MODEL 1
REMARK VINA RESULT:      -7.0      0.000      0.000
REMARK  Name = 
REMARK  5 active torsions:
REMARK  status: ('A' for Active; 'I' for Inactive)
REMARK    1  A    between atoms: C_1  and  N_2
REMARK    2  A    between atoms: C_6  and  C_7
REMARK    3  A    between atoms: C_7  and  N_8
REMARK    4  A    between atoms: N_15  and  C_16
REMARK    5  A    between atoms: C_16  and  C_17
REMARK                            x       y       z     vdW  Elec       q    Type
REMARK                         _______ _______ _______ _____ _____    ______ ____
ROOT
ATOM      1  N   UNL     1       2.148   8.135  18.658  0.00  0.00    +0.000 NA
ATOM      2  C   UNL     1       1.925   7.760  20.047  0.00  0.00    +0.000 C 
ATOM      3  C   UNL     1       2.283   6.252  20.059  0.00  0.00    +0.000 C 
ATOM      4  O   UNL     1       1.202   5.443  20.520  0.00  0.00    +0.000 OA
ATOM      5  C   UNL     1       1.374   4.079  20.166  0.00  0.00    +0.000 C 
ATOM      6  C   UNL     1       2.193   3.622  18.917  0.00  0.00    +0.000 C 
ATOM      7  O   UNL     1       2.051   2.485  18.470  0.00  0.00    +0.000 OA
ATOM      8  N   UNL     1       3.047   4.596  18.330  0.00  0.00    +0.000 N 
ATOM      9  C   UNL     1       2.530   5.950  18.576  0.00  0.00    +0.000 C 
ATOM     10  C   UNL     1       3.154   7.257  18.072  0.00  0.00    +0.000 C 
ENDROOT
BRANCH   1  11
ATOM     11  C   UNL     1       1.825   9.453  18.160  0.00  0.00    +0.000 C 
BRANCH  11  17
ATOM     12  C   UNL     1       0.956  11.316  20.451  0.00  0.00    +0.000 C 
ATOM     13  N   UNL     1       0.090  10.799  19.419  0.00  0.00    +0.000 N 
ATOM     14  C   UNL     1      -1.249  11.037  19.358  0.00  0.00    +0.000 A 
ATOM     15  C   UNL     1      -1.680  10.344  18.259  0.00  0.00    +0.000 A 
ATOM     16  N   UNL     1      -0.641   9.692  17.644  0.00  0.00    +0.000 NA
ATOM     17  C   UNL     1       0.432   9.977  18.357  0.00  0.00    +0.000 A 
ENDBRANCH  11  17
ENDBRANCH   1  11
BRANCH   8  18
ATOM     18  C   UNL     1       3.532   4.250  16.977  0.00  0.00    +0.000 C 
BRANCH  18  19
ATOM     19  C   UNL     1       5.010   3.815  16.846  0.00  0.00    +0.000 C 
ATOM     20  C   UNL     1       5.557   4.123  15.440  0.00  0.00    +0.000 C 
ATOM     21  C   UNL     1       6.915   4.787  15.595  0.00  0.00    +0.000 C 
ATOM     22  C   UNL     1       7.075   5.156  17.056  0.00  0.00    +0.000 C 
ATOM     23  C   UNL     1       5.935   4.517  17.835  0.00  0.00    +0.000 C 
ENDBRANCH  18  19
ENDBRANCH   8  18
TORSDOF 4
ENDMDL
MODEL 2
REMARK VINA RESULT:      -7.0      1.213      1.989
REMARK  Name = 
REMARK  5 active torsions:
REMARK  status: ('A' for Active; 'I' for Inactive)
REMARK    1  A    between atoms: C_1  and  N_2
REMARK    2  A    between atoms: C_6  and  C_7
REMARK    3  A    between atoms: C_7  and  N_8
REMARK    4  A    between atoms: N_15  and  C_16
REMARK    5  A    between atoms: C_16  and  C_17
REMARK                            x       y       z     vdW  Elec       q    Type
REMARK                         _______ _______ _______ _____ _____    ______ ____
ROOT
ATOM      1  N   UNL     1       2.153   8.240  18.317  0.00  0.00    +0.000 NA
ATOM      2  C   UNL     1       1.846   7.635  19.605  0.00  0.00    +0.000 C 
ATOM      3  C   UNL     1       2.686   6.333  19.584  0.00  0.00    +0.000 C 
ATOM      4  O   UNL     1       1.883   5.168  19.764  0.00  0.00    +0.000 OA
ATOM      5  C   UNL     1       2.564   3.990  19.359  0.00  0.00    +0.000 C 
ATOM      6  C   UNL     1       3.683   3.987  18.269  0.00  0.00    +0.000 C 
ATOM      7  O   UNL     1       4.011   2.933  17.726  0.00  0.00    +0.000 OA
ATOM      8  N   UNL     1       4.240   5.251  17.932  0.00  0.00    +0.000 N 
ATOM      9  C   UNL     1       3.261   6.323  18.162  0.00  0.00    +0.000 C 
ATOM     10  C   UNL     1       3.478   7.816  17.884  0.00  0.00    +0.000 C 
ENDROOT
BRANCH   1  11
ATOM     11  C   UNL     1       1.489   9.438  17.857  0.00  0.00    +0.000 C 
BRANCH  11  17
ATOM     12  C   UNL     1      -1.519   9.969  17.466  0.00  0.00    +0.000 C 
ATOM     13  N   UNL     1      -0.727  10.424  18.584  0.00  0.00    +0.000 N 
ATOM     14  C   UNL     1      -1.211  11.197  19.595  0.00  0.00    +0.000 A 
ATOM     15  C   UNL     1      -0.135  11.420  20.413  0.00  0.00    +0.000 A 
ATOM     16  N   UNL     1       0.991  10.801  19.931  0.00  0.00    +0.000 NA
ATOM     17  C   UNL     1       0.620  10.197  18.819  0.00  0.00    +0.000 A 
ENDBRANCH  11  17
ENDBRANCH   1  11
BRANCH   8  18
ATOM     18  C   UNL     1       5.029   5.260  16.682  0.00  0.00    +0.000 C 
BRANCH  18  19
ATOM     19  C   UNL     1       6.549   5.514  16.807  0.00  0.00    +0.000 C 
ATOM     20  C   UNL     1       6.842   6.995  17.109  0.00  0.00    +0.000 C 
ATOM     21  C   UNL     1       7.856   7.055  18.240  0.00  0.00    +0.000 C 
ATOM     22  C   UNL     1       7.964   5.662  18.827  0.00  0.00    +0.000 C 
ATOM     23  C   UNL     1       7.206   4.704  17.920  0.00  0.00    +0.000 C 
ENDBRANCH  18  19
ENDBRANCH   8  18
TORSDOF 4
ENDMDL
MODEL 3
REMARK VINA RESULT:      -6.9      0.525      1.274
REMARK  Name = 
REMARK  5 active torsions:
REMARK  status: ('A' for Active; 'I' for Inactive)
REMARK    1  A    between atoms: C_1  and  N_2
REMARK    2  A    between atoms: C_6  and  C_7
REMARK    3  A    between atoms: C_7  and  N_8
REMARK    4  A    between atoms: N_15  and  C_16
REMARK    5  A    between atoms: C_16  and  C_17
REMARK                            x       y       z     vdW  Elec       q    Type
REMARK                         _______ _______ _______ _____ _____    ______ ____
ROOT
ATOM      1  N   UNL     1       2.033   8.135  18.536  0.00  0.00    +0.000 NA
ATOM      2  C   UNL     1       1.886   7.847  19.955  0.00  0.00    +0.000 C 
ATOM      3  C   UNL     1       2.355   6.373  20.057  0.00  0.00    +0.000 C 
ATOM      4  O   UNL     1       1.353   5.525  20.616  0.00  0.00    +0.000 OA
ATOM      5  C   UNL     1       1.614   4.155  20.352  0.00  0.00    +0.000 C 
ATOM      6  C   UNL     1       2.421   3.668  19.106  0.00  0.00    +0.000 C 
ATOM      7  O   UNL     1       2.348   2.494  18.745  0.00  0.00    +0.000 OA
ATOM      8  N   UNL     1       3.179   4.655  18.419  0.00  0.00    +0.000 N 
ATOM      9  C   UNL     1       2.572   5.983  18.591  0.00  0.00    +0.000 C 
ATOM     10  C   UNL     1       3.080   7.292  17.973  0.00  0.00    +0.000 C 
ENDROOT
BRANCH   1  11
ATOM     11  C   UNL     1       1.596   9.388  17.961  0.00  0.00    +0.000 C 
BRANCH  11  17
ATOM     12  C   UNL     1      -1.401   9.856  17.438  0.00  0.00    +0.000 C 
ATOM     13  N   UNL     1      -0.628  10.478  18.486  0.00  0.00    +0.000 N 
ATOM     14  C   UNL     1      -1.126  11.399  19.355  0.00  0.00    +0.000 A 
ATOM     15  C   UNL     1      -0.064  11.745  20.148  0.00  0.00    +0.000 A 
ATOM     16  N   UNL     1       1.068  11.057  19.788  0.00  0.00    +0.000 NA
ATOM     17  C   UNL     1       0.714  10.287  18.777  0.00  0.00    +0.000 A 
ENDBRANCH  11  17
ENDBRANCH   1  11
BRANCH   8  18
ATOM     18  C   UNL     1       3.641   4.249  17.075  0.00  0.00    +0.000 C 
BRANCH  18  19
ATOM     19  C   UNL     1       5.150   3.952  16.906  0.00  0.00    +0.000 C 
ATOM     20  C   UNL     1       5.591   4.132  15.442  0.00  0.00    +0.000 C 
ATOM     21  C   UNL     1       6.875   4.944  15.431  0.00  0.00    +0.000 C 
ATOM     22  C   UNL     1       7.065   5.510  16.824  0.00  0.00    +0.000 C 
ATOM     23  C   UNL     1       6.041   4.863  17.743  0.00  0.00    +0.000 C 
ENDBRANCH  18  19
ENDBRANCH   8  18
TORSDOF 4
ENDMDL
MODEL 4
REMARK VINA RESULT:      -6.8      1.324      1.854
REMARK  Name = 
REMARK  5 active torsions:
REMARK  status: ('A' for Active; 'I' for Inactive)
REMARK    1  A    between atoms: C_1  and  N_2
REMARK    2  A    between atoms: C_6  and  C_7
REMARK    3  A    between atoms: C_7  and  N_8
REMARK    4  A    between atoms: N_15  and  C_16
REMARK    5  A    between atoms: C_16  and  C_17
REMARK                            x       y       z     vdW  Elec       q    Type
REMARK                         _______ _______ _______ _____ _____    ______ ____
ROOT
ATOM      1  N   UNL     1       1.978   8.176  18.400  0.00  0.00    +0.000 NA
ATOM      2  C   UNL     1       1.824   7.851  19.811  0.00  0.00    +0.000 C 
ATOM      3  C   UNL     1       2.621   6.528  19.948  0.00  0.00    +0.000 C 
ATOM      4  O   UNL     1       1.818   5.464  20.456  0.00  0.00    +0.000 OA
ATOM      5  C   UNL     1       2.410   4.196  20.215  0.00  0.00    +0.000 C 
ATOM      6  C   UNL     1       3.377   3.923  19.020  0.00  0.00    +0.000 C 
ATOM      7  O   UNL     1       3.604   2.767  18.663  0.00  0.00    +0.000 OA
ATOM      8  N   UNL     1       3.918   5.066  18.370  0.00  0.00    +0.000 N 
ATOM      9  C   UNL     1       3.006   6.211  18.499  0.00  0.00    +0.000 C 
ATOM     10  C   UNL     1       3.224   7.607  17.902  0.00  0.00    +0.000 C 
ENDROOT
BRANCH   1  11
ATOM     11  C   UNL     1       1.290   9.293  17.793  0.00  0.00    +0.000 C 
BRANCH  11  17
ATOM     12  C   UNL     1      -0.583  10.640  19.832  0.00  0.00    +0.000 C 
ATOM     13  N   UNL     1       0.608  11.232  19.271  0.00  0.00    +0.000 N 
ATOM     14  C   UNL     1       1.029  12.498  19.544  0.00  0.00    +0.000 A 
ATOM     15  C   UNL     1       2.162  12.661  18.790  0.00  0.00    +0.000 A 
ATOM     16  N   UNL     1       2.445  11.529  18.069  0.00  0.00    +0.000 NA
ATOM     17  C   UNL     1       1.495  10.665  18.369  0.00  0.00    +0.000 A 
ENDBRANCH  11  17
ENDBRANCH   1  11
BRANCH   8  18
ATOM     18  C   UNL     1       4.538   4.789  17.057  0.00  0.00    +0.000 C 
BRANCH  18  19
ATOM     19  C   UNL     1       6.048   5.087  16.911  0.00  0.00    +0.000 C 
ATOM     20  C   UNL     1       6.292   6.566  16.560  0.00  0.00    +0.000 C 
ATOM     21  C   UNL     1       7.399   7.090  17.459  0.00  0.00    +0.000 C 
ATOM     22  C   UNL     1       7.631   6.055  18.542  0.00  0.00    +0.000 C 
ATOM     23  C   UNL     1       6.843   4.805  18.181  0.00  0.00    +0.000 C 
ENDBRANCH  18  19
ENDBRANCH   8  18
TORSDOF 4
ENDMDL
MODEL 5
REMARK VINA RESULT:      -6.7      1.091      1.295
REMARK  Name = 
REMARK  5 active torsions:
REMARK  status: ('A' for Active; 'I' for Inactive)
REMARK    1  A    between atoms: C_1  and  N_2
REMARK    2  A    between atoms: C_6  and  C_7
REMARK    3  A    between atoms: C_7  and  N_8
REMARK    4  A    between atoms: N_15  and  C_16
REMARK    5  A    between atoms: C_16  and  C_17
REMARK                            x       y       z     vdW  Elec       q    Type
REMARK                         _______ _______ _______ _____ _____    ______ ____
ROOT
ATOM      1  N   UNL     1       1.868   8.393  18.494  0.00  0.00    +0.000 NA
ATOM      2  C   UNL     1       1.730   8.149  19.923  0.00  0.00    +0.000 C 
ATOM      3  C   UNL     1       2.408   6.767  20.104  0.00  0.00    +0.000 C 
ATOM      4  O   UNL     1       1.529   5.805  20.683  0.00  0.00    +0.000 OA
ATOM      5  C   UNL     1       1.996   4.479  20.490  0.00  0.00    +0.000 C 
ATOM      6  C   UNL     1       2.899   4.064  19.284  0.00  0.00    +0.000 C 
ATOM      7  O   UNL     1       3.010   2.877  18.978  0.00  0.00    +0.000 OA
ATOM      8  N   UNL     1       3.520   5.121  18.565  0.00  0.00    +0.000 N 
ATOM      9  C   UNL     1       2.719   6.350  18.662  0.00  0.00    +0.000 C 
ATOM     10  C   UNL     1       3.043   7.691  17.993  0.00  0.00    +0.000 C 
ENDROOT
BRANCH   1  11
ATOM     11  C   UNL     1       1.266   9.540  17.852  0.00  0.00    +0.000 C 
BRANCH  11  17
ATOM     12  C   UNL     1       2.065  12.373  18.754  0.00  0.00    +0.000 C 
ATOM     13  N   UNL     1       0.818  11.715  19.068  0.00  0.00    +0.000 N 
ATOM     14  C   UNL     1      -0.153  12.257  19.853  0.00  0.00    +0.000 A 
ATOM     15  C   UNL     1      -1.131  11.301  19.913  0.00  0.00    +0.000 A 
ATOM     16  N   UNL     1      -0.785  10.191  19.183  0.00  0.00    +0.000 NA
ATOM     17  C   UNL     1       0.401  10.454  18.671  0.00  0.00    +0.000 A 
ENDBRANCH  11  17
ENDBRANCH   1  11
BRANCH   8  18
ATOM     18  C   UNL     1       4.072   4.729  17.252  0.00  0.00    +0.000 C 
BRANCH  18  19
ATOM     19  C   UNL     1       5.607   4.805  17.078  0.00  0.00    +0.000 C 
ATOM     20  C   UNL     1       6.028   6.139  16.434  0.00  0.00    +0.000 C 
ATOM     21  C   UNL     1       7.196   6.700  17.227  0.00  0.00    +0.000 C 
ATOM     22  C   UNL     1       7.304   5.894  18.506  0.00  0.00    +0.000 C 
ATOM     23  C   UNL     1       6.368   4.700  18.396  0.00  0.00    +0.000 C 
ENDBRANCH  18  19
ENDBRANCH   8  18
TORSDOF 4
ENDMDL
MODEL 6
REMARK VINA RESULT:      -6.7      0.986      1.481
REMARK  Name = 
REMARK  5 active torsions:
REMARK  status: ('A' for Active; 'I' for Inactive)
REMARK    1  A    between atoms: C_1  and  N_2
REMARK    2  A    between atoms: C_6  and  C_7
REMARK    3  A    between atoms: C_7  and  N_8
REMARK    4  A    between atoms: N_15  and  C_16
REMARK    5  A    between atoms: C_16  and  C_17
REMARK                            x       y       z     vdW  Elec       q    Type
REMARK                         _______ _______ _______ _____ _____    ______ ____
ROOT
ATOM      1  N   UNL     1       1.881   8.164  18.421  0.00  0.00    +0.000 NA
ATOM      2  C   UNL     1       1.851   8.009  19.868  0.00  0.00    +0.000 C 
ATOM      3  C   UNL     1       2.457   6.598  20.076  0.00  0.00    +0.000 C 
ATOM      4  O   UNL     1       1.574   5.729  20.783  0.00  0.00    +0.000 OA
ATOM      5  C   UNL     1       1.942   4.366  20.633  0.00  0.00    +0.000 C 
ATOM      6  C   UNL     1       2.710   3.826  19.384  0.00  0.00    +0.000 C 
ATOM      7  O   UNL     1       2.723   2.620  19.143  0.00  0.00    +0.000 OA
ATOM      8  N   UNL     1       3.330   4.799  18.554  0.00  0.00    +0.000 N 
ATOM      9  C   UNL     1       2.617   6.081  18.642  0.00  0.00    +0.000 C 
ATOM     10  C   UNL     1       2.963   7.359  17.868  0.00  0.00    +0.000 C 
ENDROOT
BRANCH   1  11
ATOM     11  C   UNL     1       1.296   9.310  17.762  0.00  0.00    +0.000 C 
BRANCH  11  17
ATOM     12  C   UNL     1      -0.695  10.622  19.709  0.00  0.00    +0.000 C 
ATOM     13  N   UNL     1       0.533  11.219  19.240  0.00  0.00    +0.000 N 
ATOM     14  C   UNL     1       0.944  12.474  19.568  0.00  0.00    +0.000 A 
ATOM     15  C   UNL     1       2.122  12.647  18.893  0.00  0.00    +0.000 A 
ATOM     16  N   UNL     1       2.444  11.530  18.163  0.00  0.00    +0.000 NA
ATOM     17  C   UNL     1       1.472  10.666  18.382  0.00  0.00    +0.000 A 
ENDBRANCH  11  17
ENDBRANCH   1  11
BRANCH   8  18
ATOM     18  C   UNL     1       3.743   4.300  17.226  0.00  0.00    +0.000 C 
BRANCH  18  19
ATOM     19  C   UNL     1       5.251   4.038  17.005  0.00  0.00    +0.000 C 
ATOM     20  C   UNL     1       5.624   4.156  15.516  0.00  0.00    +0.000 C 
ATOM     21  C   UNL     1       6.880   5.003  15.408  0.00  0.00    +0.000 C 
ATOM     22  C   UNL     1       7.112   5.644  16.762  0.00  0.00    +0.000 C 
ATOM     23  C   UNL     1       6.148   5.016  17.756  0.00  0.00    +0.000 C 
ENDBRANCH  18  19
ENDBRANCH   8  18
TORSDOF 4
ENDMDL
MODEL 7
REMARK VINA RESULT:      -6.7      1.521      2.234
REMARK  Name = 
REMARK  5 active torsions:
REMARK  status: ('A' for Active; 'I' for Inactive)
REMARK    1  A    between atoms: C_1  and  N_2
REMARK    2  A    between atoms: C_6  and  C_7
REMARK    3  A    between atoms: C_7  and  N_8
REMARK    4  A    between atoms: N_15  and  C_16
REMARK    5  A    between atoms: C_16  and  C_17
REMARK                            x       y       z     vdW  Elec       q    Type
REMARK                         _______ _______ _______ _____ _____    ______ ____
ROOT
ATOM      1  N   UNL     1       1.986   7.099  19.835  0.00  0.00    +0.000 NA
ATOM      2  C   UNL     1       1.548   6.214  20.905  0.00  0.00    +0.000 C 
ATOM      3  C   UNL     1       1.940   4.811  20.375  0.00  0.00    +0.000 C 
ATOM      4  O   UNL     1       0.820   3.931  20.296  0.00  0.00    +0.000 OA
ATOM      5  C   UNL     1       1.086   2.812  19.463  0.00  0.00    +0.000 C 
ATOM      6  C   UNL     1       2.112   2.855  18.285  0.00  0.00    +0.000 C 
ATOM      7  O   UNL     1       2.077   1.994  17.407  0.00  0.00    +0.000 OA
ATOM      8  N   UNL     1       3.023   3.946  18.279  0.00  0.00    +0.000 N 
ATOM      9  C   UNL     1       2.436   5.111  18.955  0.00  0.00    +0.000 C 
ATOM     10  C   UNL     1       3.097   6.485  19.120  0.00  0.00    +0.000 C 
ENDROOT
BRANCH   1  11
ATOM     11  C   UNL     1       1.713   8.518  19.857  0.00  0.00    +0.000 C 
BRANCH  11  17
ATOM     12  C   UNL     1      -0.802  10.263  19.532  0.00  0.00    +0.000 C 
ATOM     13  N   UNL     1      -0.208   9.879  20.790  0.00  0.00    +0.000 N 
ATOM     14  C   UNL     1      -0.666  10.287  22.005  0.00  0.00    +0.000 A 
ATOM     15  C   UNL     1       0.194   9.725  22.911  0.00  0.00    +0.000 A 
ATOM     16  N   UNL     1       1.161   8.982  22.283  0.00  0.00    +0.000 NA
ATOM     17  C   UNL     1       0.908   9.081  20.992  0.00  0.00    +0.000 A 
ENDBRANCH  11  17
ENDBRANCH   1  11
BRANCH   8  18
ATOM     18  C   UNL     1       3.733   4.145  16.998  0.00  0.00    +0.000 C 
BRANCH  18  19
ATOM     19  C   UNL     1       4.981   5.058  17.016  0.00  0.00    +0.000 C 
ATOM     20  C   UNL     1       6.061   4.503  17.963  0.00  0.00    +0.000 C 
ATOM     21  C   UNL     1       7.396   4.552  17.239  0.00  0.00    +0.000 C 
ATOM     22  C   UNL     1       7.110   4.846  15.780  0.00  0.00    +0.000 C 
ATOM     23  C   UNL     1       5.638   5.207  15.648  0.00  0.00    +0.000 C 
ENDBRANCH  18  19
ENDBRANCH   8  18
TORSDOF 4
ENDMDL
MODEL 8
REMARK VINA RESULT:      -6.6      1.695      2.405
REMARK  Name = 
REMARK  5 active torsions:
REMARK  status: ('A' for Active; 'I' for Inactive)
REMARK    1  A    between atoms: C_1  and  N_2
REMARK    2  A    between atoms: C_6  and  C_7
REMARK    3  A    between atoms: C_7  and  N_8
REMARK    4  A    between atoms: N_15  and  C_16
REMARK    5  A    between atoms: C_16  and  C_17
REMARK                            x       y       z     vdW  Elec       q    Type
REMARK                         _______ _______ _______ _____ _____    ______ ____
ROOT
ATOM      1  N   UNL     1       2.146   6.693  19.896  0.00  0.00    +0.000 NA
ATOM      2  C   UNL     1       1.386   5.821  20.780  0.00  0.00    +0.000 C 
ATOM      3  C   UNL     1       2.035   4.434  20.538  0.00  0.00    +0.000 C 
ATOM      4  O   UNL     1       1.086   3.462  20.103  0.00  0.00    +0.000 OA
ATOM      5  C   UNL     1       1.718   2.335  19.515  0.00  0.00    +0.000 C 
ATOM      6  C   UNL     1       3.112   2.412  18.814  0.00  0.00    +0.000 C 
ATOM      7  O   UNL     1       3.468   1.515  18.051  0.00  0.00    +0.000 OA
ATOM      8  N   UNL     1       3.888   3.573  19.077  0.00  0.00    +0.000 N 
ATOM      9  C   UNL     1       3.018   4.714  19.396  0.00  0.00    +0.000 C 
ATOM     10  C   UNL     1       3.482   6.143  19.701  0.00  0.00    +0.000 C 
ENDROOT
BRANCH   1  11
ATOM     11  C   UNL     1       1.801   8.084  19.712  0.00  0.00    +0.000 C 
BRANCH  11  17
ATOM     12  C   UNL     1      -0.514  10.065  19.271  0.00  0.00    +0.000 C 
ATOM     13  N   UNL     1       0.037   9.694  20.553  0.00  0.00    +0.000 N 
ATOM     14  C   UNL     1      -0.375  10.219  21.739  0.00  0.00    +0.000 A 
ATOM     15  C   UNL     1       0.420   9.623  22.682  0.00  0.00    +0.000 A 
ATOM     16  N   UNL     1       1.303   8.746  22.103  0.00  0.00    +0.000 NA
ATOM     17  C   UNL     1       1.061   8.795  20.808  0.00  0.00    +0.000 A 
ENDBRANCH  11  17
ENDBRANCH   1  11
BRANCH   8  18
ATOM     18  C   UNL     1       5.022   3.776  18.150  0.00  0.00    +0.000 C 
BRANCH  18  19
ATOM     19  C   UNL     1       4.684   4.176  16.695  0.00  0.00    +0.000 C 
ATOM     20  C   UNL     1       4.802   5.698  16.495  0.00  0.00    +0.000 C 
ATOM     21  C   UNL     1       5.582   5.948  15.216  0.00  0.00    +0.000 C 
ATOM     22  C   UNL     1       6.191   4.627  14.791  0.00  0.00    +0.000 C 
ATOM     23  C   UNL     1       5.602   3.530  15.663  0.00  0.00    +0.000 C 
ENDBRANCH  18  19
ENDBRANCH   8  18
TORSDOF 4
ENDMDL
MODEL 9
REMARK VINA RESULT:      -6.6      2.319      6.396
REMARK  Name = 
REMARK  5 active torsions:
REMARK  status: ('A' for Active; 'I' for Inactive)
REMARK    1  A    between atoms: C_1  and  N_2
REMARK    2  A    between atoms: C_6  and  C_7
REMARK    3  A    between atoms: C_7  and  N_8
REMARK    4  A    between atoms: N_15  and  C_16
REMARK    5  A    between atoms: C_16  and  C_17
REMARK                            x       y       z     vdW  Elec       q    Type
REMARK                         _______ _______ _______ _____ _____    ______ ____
ROOT
ATOM      1  N   UNL     1       5.421   5.114  17.174  0.00  0.00    +0.000 NA
ATOM      2  C   UNL     1       4.747   3.892  16.758  0.00  0.00    +0.000 C 
ATOM      3  C   UNL     1       3.368   4.005  17.455  0.00  0.00    +0.000 C 
ATOM      4  O   UNL     1       3.100   2.893  18.307  0.00  0.00    +0.000 OA
ATOM      5  C   UNL     1       2.054   3.171  19.225  0.00  0.00    +0.000 C 
ATOM      6  C   UNL     1       1.722   4.614  19.723  0.00  0.00    +0.000 C 
ATOM      7  O   UNL     1       1.045   4.775  20.737  0.00  0.00    +0.000 OA
ATOM      8  N   UNL     1       2.278   5.685  18.972  0.00  0.00    +0.000 N 
ATOM      9  C   UNL     1       3.524   5.263  18.317  0.00  0.00    +0.000 C 
ATOM     10  C   UNL     1       4.430   6.146  17.450  0.00  0.00    +0.000 C 
ENDROOT
BRANCH   1  11
ATOM     11  C   UNL     1       6.803   5.377  16.841  0.00  0.00    +0.000 C 
BRANCH  11  17
ATOM     12  C   UNL     1       8.072   5.562  19.640  0.00  0.00    +0.000 C 
ATOM     13  N   UNL     1       7.999   6.639  18.681  0.00  0.00    +0.000 N 
ATOM     14  C   UNL     1       8.448   7.902  18.919  0.00  0.00    +0.000 A 
ATOM     15  C   UNL     1       8.160   8.599  17.775  0.00  0.00    +0.000 A 
ATOM     16  N   UNL     1       7.551   7.794  16.845  0.00  0.00    +0.000 NA
ATOM     17  C   UNL     1       7.460   6.604  17.404  0.00  0.00    +0.000 A 
ENDBRANCH  11  17
ENDBRANCH   1  11
BRANCH   8  18
ATOM     18  C   UNL     1       2.237   6.997  19.652  0.00  0.00    +0.000 C 
BRANCH  18  19
ATOM     19  C   UNL     1       1.320   8.082  19.040  0.00  0.00    +0.000 C 
ATOM     20  C   UNL     1       0.989   9.177  20.071  0.00  0.00    +0.000 C 
ATOM     21  C   UNL     1       1.181  10.528  19.405  0.00  0.00    +0.000 C 
ATOM     22  C   UNL     1       1.900  10.288  18.092  0.00  0.00    +0.000 C 
ATOM     23  C   UNL     1       1.941   8.789  17.840  0.00  0.00    +0.000 C 
ENDBRANCH  18  19
ENDBRANCH   8  18
TORSDOF 4
ENDMDL
