MODEL 1
REMARK VINA RESULT:      -8.4      0.000      0.000
REMARK  Name = 
REMARK  6 active torsions:
REMARK  status: ('A' for Active; 'I' for Inactive)
REMARK    1  A    between atoms: C_1  and  N_2
REMARK    2  A    between atoms: N_2  and  C_3
REMARK    3  A    between atoms: C_4  and  C_6
REMARK    4  A    between atoms: C_10  and  C_11
REMARK    5  A    between atoms: C_15  and  N_16
REMARK    6  A    between atoms: C_20  and  C_21
REMARK                            x       y       z     vdW  Elec       q    Type
REMARK                         _______ _______ _______ _____ _____    ______ ____
ROOT
ATOM      1  C   UNL     1       0.708   9.214  20.838  0.00  0.00    +0.000 A 
ATOM      2  C   UNL     1      -0.042   8.724  21.898  0.00  0.00    +0.000 A 
ATOM      3  N   UNL     1      -0.694   9.716  22.580  0.00  0.00    +0.000 NA
ATOM      4  C   UNL     1      -0.346  10.831  21.972  0.00  0.00    +0.000 A 
ATOM      5  C   UNL     1      -0.729  12.191  22.233  0.00  0.00    +0.000 A 
ATOM      6  C   UNL     1      -0.206  13.177  21.476  0.00  0.00    +0.000 A 
ATOM      7  C   UNL     1       0.767  12.908  20.423  0.00  0.00    +0.000 A 
ATOM      8  C   UNL     1       1.131  11.632  20.197  0.00  0.00    +0.000 A 
ATOM      9  N   UNL     1       0.551  10.596  20.932  0.00  0.00    +0.000 N 
ENDROOT
BRANCH   7  10
ATOM     10  C   UNL     1       1.401  13.958  19.620  0.00  0.00    +0.000 A 
ATOM     11  C   UNL     1       2.657  13.750  19.036  0.00  0.00    +0.000 A 
ATOM     12  C   UNL     1       3.246  14.770  18.290  0.00  0.00    +0.000 A 
ATOM     13  F   UNL     1       4.445  14.565  17.732  0.00  0.00    +0.000 F 
ATOM     14  C   UNL     1       2.599  15.989  18.119  0.00  0.00    +0.000 A 
ATOM     15  F   UNL     1       3.171  16.963  17.400  0.00  0.00    +0.000 F 
ATOM     16  C   UNL     1       1.353  16.189  18.697  0.00  0.00    +0.000 A 
ATOM     17  F   UNL     1       0.716  17.357  18.542  0.00  0.00    +0.000 F 
ATOM     18  C   UNL     1       0.747  15.183  19.444  0.00  0.00    +0.000 A 
ENDBRANCH   7  10
BRANCH   1  23
ATOM     19  C   UNL     1       2.908   6.577  19.209  0.00  0.00    +0.000 A 
ATOM     20  C   UNL     1       2.939   7.038  17.892  0.00  0.00    +0.000 A 
ATOM     21  C   UNL     1       2.350   8.259  17.573  0.00  0.00    +0.000 A 
ATOM     22  C   UNL     1       1.644   8.974  18.544  0.00  0.00    +0.000 A 
ATOM     23  C   UNL     1       1.524   8.487  19.855  0.00  0.00    +0.000 A 
ATOM     24  C   UNL     1       2.210   7.309  20.182  0.00  0.00    +0.000 A 
BRANCH  19  28
ATOM     25  C   UNL     1       3.374   2.908  20.146  0.00  0.00    +0.000 C 
ATOM     26  N   UNL     1       2.717   4.129  19.710  0.00  0.00    +0.000 N 
ATOM     27  C   UNL     1       1.352   4.014  19.220  0.00  0.00    +0.000 C 
ATOM     28  C   UNL     1       3.509   5.277  19.618  0.00  0.00    +0.000 C 
ATOM     29  O   UNL     1       4.719   5.268  19.848  0.00  0.00    +0.000 OA
ENDBRANCH  19  28
ENDBRANCH   1  23
BRANCH   5  30
ATOM     30  N   UNL     1      -1.617  12.368  23.268  0.00  0.00    +0.000 N 
ATOM     31  C   UNL     1      -2.980  12.309  23.250  0.00  0.00    +0.000 C 
ATOM     32  O   UNL     1      -3.675  12.500  24.239  0.00  0.00    +0.000 OA
ATOM     33  H   UNL     1      -1.213  12.589  24.174  0.00  0.00    +0.000 HD
ENDBRANCH   5  30
TORSDOF 4
ENDMDL
MODEL 2
REMARK VINA RESULT:      -8.4      3.898      4.891
REMARK  Name = 
REMARK  6 active torsions:
REMARK  status: ('A' for Active; 'I' for Inactive)
REMARK    1  A    between atoms: C_1  and  N_2
REMARK    2  A    between atoms: N_2  and  C_3
REMARK    3  A    between atoms: C_4  and  C_6
REMARK    4  A    between atoms: C_10  and  C_11
REMARK    5  A    between atoms: C_15  and  N_16
REMARK    6  A    between atoms: C_20  and  C_21
REMARK                            x       y       z     vdW  Elec       q    Type
REMARK                         _______ _______ _______ _____ _____    ______ ____
ROOT
ATOM      1  C   UNL     1       1.253   8.503  21.151  0.00  0.00    +0.000 A 
ATOM      2  C   UNL     1       1.703   8.958  22.383  0.00  0.00    +0.000 A 
ATOM      3  N   UNL     1       1.026  10.068  22.810  0.00  0.00    +0.000 NA
ATOM      4  C   UNL     1       0.165  10.332  21.848  0.00  0.00    +0.000 A 
ATOM      5  C   UNL     1      -0.822  11.370  21.742  0.00  0.00    +0.000 A 
ATOM      6  C   UNL     1      -1.576  11.447  20.626  0.00  0.00    +0.000 A 
ATOM      7  C   UNL     1      -1.392  10.531  19.506  0.00  0.00    +0.000 A 
ATOM      8  C   UNL     1      -0.454   9.572  19.609  0.00  0.00    +0.000 A 
ATOM      9  N   UNL     1       0.291   9.442  20.783  0.00  0.00    +0.000 N 
ENDROOT
BRANCH   7  10
ATOM     10  C   UNL     1      -2.152  10.621  18.254  0.00  0.00    +0.000 A 
ATOM     11  C   UNL     1      -3.257  11.475  18.151  0.00  0.00    +0.000 A 
ATOM     12  C   UNL     1      -3.973  11.531  16.955  0.00  0.00    +0.000 A 
ATOM     13  F   UNL     1      -5.027  12.350  16.862  0.00  0.00    +0.000 F 
ATOM     14  C   UNL     1      -3.599  10.752  15.868  0.00  0.00    +0.000 A 
ATOM     15  F   UNL     1      -4.291  10.813  14.722  0.00  0.00    +0.000 F 
ATOM     16  C   UNL     1      -2.500   9.910  15.974  0.00  0.00    +0.000 A 
ATOM     17  F   UNL     1      -2.127   9.152  14.935  0.00  0.00    +0.000 F 
ATOM     18  C   UNL     1      -1.772   9.839  17.157  0.00  0.00    +0.000 A 
ENDBRANCH   7  10
BRANCH   1  23
ATOM     19  C   UNL     1       3.140   6.306  18.690  0.00  0.00    +0.000 A 
ATOM     20  C   UNL     1       2.620   5.050  19.008  0.00  0.00    +0.000 A 
ATOM     21  C   UNL     1       1.579   4.945  19.927  0.00  0.00    +0.000 A 
ATOM     22  C   UNL     1       1.123   6.079  20.605  0.00  0.00    +0.000 A 
ATOM     23  C   UNL     1       1.692   7.339  20.368  0.00  0.00    +0.000 A 
ATOM     24  C   UNL     1       2.666   7.441  19.365  0.00  0.00    +0.000 A 
BRANCH  19  28
ATOM     25  C   UNL     1       6.592   6.317  17.066  0.00  0.00    +0.000 C 
ATOM     26  N   UNL     1       5.551   6.073  18.051  0.00  0.00    +0.000 N 
ATOM     27  C   UNL     1       5.899   5.247  19.198  0.00  0.00    +0.000 C 
ATOM     28  C   UNL     1       4.258   6.489  17.725  0.00  0.00    +0.000 C 
ATOM     29  O   UNL     1       3.982   7.002  16.639  0.00  0.00    +0.000 OA
ENDBRANCH  19  28
ENDBRANCH   1  23
BRANCH   5  30
ATOM     30  N   UNL     1      -0.907  12.219  22.820  0.00  0.00    +0.000 N 
ATOM     31  C   UNL     1      -0.885  13.583  22.843  0.00  0.00    +0.000 C 
ATOM     32  O   UNL     1      -0.954  14.240  23.874  0.00  0.00    +0.000 OA
ATOM     33  H   UNL     1      -0.981  11.779  23.734  0.00  0.00    +0.000 HD
ENDBRANCH   5  30
TORSDOF 4
ENDMDL
MODEL 3
REMARK VINA RESULT:      -8.4      0.101      1.461
REMARK  Name = 
REMARK  6 active torsions:
REMARK  status: ('A' for Active; 'I' for Inactive)
REMARK    1  A    between atoms: C_1  and  N_2
REMARK    2  A    between atoms: N_2  and  C_3
REMARK    3  A    between atoms: C_4  and  C_6
REMARK    4  A    between atoms: C_10  and  C_11
REMARK    5  A    between atoms: C_15  and  N_16
REMARK    6  A    between atoms: C_20  and  C_21
REMARK                            x       y       z     vdW  Elec       q    Type
REMARK                         _______ _______ _______ _____ _____    ______ ____
ROOT
ATOM      1  C   UNL     1       0.734   9.135  20.804  0.00  0.00    +0.000 A 
ATOM      2  C   UNL     1      -0.013   8.613  21.851  0.00  0.00    +0.000 A 
ATOM      3  N   UNL     1      -0.684   9.582  22.547  0.00  0.00    +0.000 NA
ATOM      4  C   UNL     1      -0.351  10.714  21.962  0.00  0.00    +0.000 A 
ATOM      5  C   UNL     1      -0.756  12.063  22.246  0.00  0.00    +0.000 A 
ATOM      6  C   UNL     1      -0.244  13.070  21.510  0.00  0.00    +0.000 A 
ATOM      7  C   UNL     1       0.738  12.835  20.457  0.00  0.00    +0.000 A 
ATOM      8  C   UNL     1       1.122  11.570  20.210  0.00  0.00    +0.000 A 
ATOM      9  N   UNL     1       0.555  10.512  20.923  0.00  0.00    +0.000 N 
ENDROOT
BRANCH   7  10
ATOM     10  C   UNL     1       1.359  13.911  19.676  0.00  0.00    +0.000 A 
ATOM     11  C   UNL     1       0.705  15.137  19.506  0.00  0.00    +0.000 A 
ATOM     12  C   UNL     1       1.309  16.138  18.745  0.00  0.00    +0.000 A 
ATOM     13  F   UNL     1       0.680  17.309  18.587  0.00  0.00    +0.000 F 
ATOM     14  C   UNL     1       2.552  15.931  18.158  0.00  0.00    +0.000 A 
ATOM     15  F   UNL     1       3.126  16.898  17.431  0.00  0.00    +0.000 F 
ATOM     16  C   UNL     1       3.197  14.715  18.334  0.00  0.00    +0.000 A 
ATOM     17  F   UNL     1       4.396  14.499  17.775  0.00  0.00    +0.000 F 
ATOM     18  C   UNL     1       2.613  13.703  19.090  0.00  0.00    +0.000 A 
ENDBRANCH   7  10
BRANCH   1  23
ATOM     19  C   UNL     1       2.961   6.549  19.129  0.00  0.00    +0.000 A 
ATOM     20  C   UNL     1       3.013   7.051  17.828  0.00  0.00    +0.000 A 
ATOM     21  C   UNL     1       2.429   8.282  17.537  0.00  0.00    +0.000 A 
ATOM     22  C   UNL     1       1.707   8.966  18.519  0.00  0.00    +0.000 A 
ATOM     23  C   UNL     1       1.566   8.438  19.812  0.00  0.00    +0.000 A 
ATOM     24  C   UNL     1       2.247   7.250  20.113  0.00  0.00    +0.000 A 
BRANCH  19  28
ATOM     25  C   UNL     1       3.398   2.873  20.052  0.00  0.00    +0.000 C 
ATOM     26  N   UNL     1       2.744   4.108  19.651  0.00  0.00    +0.000 N 
ATOM     27  C   UNL     1       1.350   4.023  19.244  0.00  0.00    +0.000 C 
ATOM     28  C   UNL     1       3.555   5.237  19.506  0.00  0.00    +0.000 C 
ATOM     29  O   UNL     1       4.776   5.200  19.664  0.00  0.00    +0.000 OA
ENDBRANCH  19  28
ENDBRANCH   1  23
BRANCH   5  30
ATOM     30  N   UNL     1      -1.652  12.207  23.279  0.00  0.00    +0.000 N 
ATOM     31  C   UNL     1      -3.011  12.301  23.231  0.00  0.00    +0.000 C 
ATOM     32  O   UNL     1      -3.713  12.443  24.224  0.00  0.00    +0.000 OA
ATOM     33  H   UNL     1      -1.254  12.268  24.213  0.00  0.00    +0.000 HD
ENDBRANCH   5  30
TORSDOF 4
ENDMDL
MODEL 4
REMARK VINA RESULT:      -8.4      3.894      4.680
REMARK  Name = 
REMARK  6 active torsions:
REMARK  status: ('A' for Active; 'I' for Inactive)
REMARK    1  A    between atoms: C_1  and  N_2
REMARK    2  A    between atoms: N_2  and  C_3
REMARK    3  A    between atoms: C_4  and  C_6
REMARK    4  A    between atoms: C_10  and  C_11
REMARK    5  A    between atoms: C_15  and  N_16
REMARK    6  A    between atoms: C_20  and  C_21
REMARK                            x       y       z     vdW  Elec       q    Type
REMARK                         _______ _______ _______ _____ _____    ______ ____
ROOT
ATOM      1  C   UNL     1       1.263   8.491  21.148  0.00  0.00    +0.000 A 
ATOM      2  C   UNL     1       1.712   8.952  22.378  0.00  0.00    +0.000 A 
ATOM      3  N   UNL     1       1.031  10.061  22.801  0.00  0.00    +0.000 NA
ATOM      4  C   UNL     1       0.168  10.318  21.840  0.00  0.00    +0.000 A 
ATOM      5  C   UNL     1      -0.823  11.352  21.731  0.00  0.00    +0.000 A 
ATOM      6  C   UNL     1      -1.578  11.422  20.615  0.00  0.00    +0.000 A 
ATOM      7  C   UNL     1      -1.392  10.503  19.498  0.00  0.00    +0.000 A 
ATOM      8  C   UNL     1      -0.450   9.548  19.604  0.00  0.00    +0.000 A 
ATOM      9  N   UNL     1       0.297   9.425  20.777  0.00  0.00    +0.000 N 
ENDROOT
BRANCH   7  10
ATOM     10  C   UNL     1      -2.153  10.586  18.247  0.00  0.00    +0.000 A 
ATOM     11  C   UNL     1      -1.777   9.826  17.132  0.00  0.00    +0.000 A 
ATOM     12  C   UNL     1      -2.507   9.936  15.949  0.00  0.00    +0.000 A 
ATOM     13  F   UNL     1      -2.145   9.205  14.887  0.00  0.00    +0.000 F 
ATOM     14  C   UNL     1      -3.602  10.788  15.866  0.00  0.00    +0.000 A 
ATOM     15  F   UNL     1      -4.299  10.885  14.727  0.00  0.00    +0.000 F 
ATOM     16  C   UNL     1      -3.972  11.536  16.975  0.00  0.00    +0.000 A 
ATOM     17  F   UNL     1      -5.025  12.362  16.913  0.00  0.00    +0.000 F 
ATOM     18  C   UNL     1      -3.258  11.441  18.166  0.00  0.00    +0.000 A 
ENDBRANCH   7  10
BRANCH   1  23
ATOM     19  C   UNL     1       3.158   6.292  18.694  0.00  0.00    +0.000 A 
ATOM     20  C   UNL     1       2.641   5.036  19.014  0.00  0.00    +0.000 A 
ATOM     21  C   UNL     1       1.599   4.930  19.933  0.00  0.00    +0.000 A 
ATOM     22  C   UNL     1       1.140   6.065  20.608  0.00  0.00    +0.000 A 
ATOM     23  C   UNL     1       1.705   7.326  20.367  0.00  0.00    +0.000 A 
ATOM     24  C   UNL     1       2.680   7.428  19.365  0.00  0.00    +0.000 A 
BRANCH  19  28
ATOM     25  C   UNL     1       6.611   6.307  17.072  0.00  0.00    +0.000 C 
ATOM     26  N   UNL     1       5.570   6.063  18.057  0.00  0.00    +0.000 N 
ATOM     27  C   UNL     1       5.918   5.240  19.205  0.00  0.00    +0.000 C 
ATOM     28  C   UNL     1       4.276   6.476  17.729  0.00  0.00    +0.000 C 
ATOM     29  O   UNL     1       3.999   6.986  16.642  0.00  0.00    +0.000 OA
ENDBRANCH  19  28
ENDBRANCH   1  23
BRANCH   5  30
ATOM     30  N   UNL     1      -0.910  12.204  22.806  0.00  0.00    +0.000 N 
ATOM     31  C   UNL     1      -0.881  13.567  22.827  0.00  0.00    +0.000 C 
ATOM     32  O   UNL     1      -0.953  14.227  23.855  0.00  0.00    +0.000 OA
ATOM     33  H   UNL     1      -0.992  11.766  23.721  0.00  0.00    +0.000 HD
ENDBRANCH   5  30
TORSDOF 4
ENDMDL
MODEL 5
REMARK VINA RESULT:      -8.3      0.755      1.006
REMARK  Name = 
REMARK  6 active torsions:
REMARK  status: ('A' for Active; 'I' for Inactive)
REMARK    1  A    between atoms: C_1  and  N_2
REMARK    2  A    between atoms: N_2  and  C_3
REMARK    3  A    between atoms: C_4  and  C_6
REMARK    4  A    between atoms: C_10  and  C_11
REMARK    5  A    between atoms: C_15  and  N_16
REMARK    6  A    between atoms: C_20  and  C_21
REMARK                            x       y       z     vdW  Elec       q    Type
REMARK                         _______ _______ _______ _____ _____    ______ ____
ROOT
ATOM      1  C   UNL     1       0.687   9.073  20.932  0.00  0.00    +0.000 A 
ATOM      2  C   UNL     1      -0.074   8.612  21.998  0.00  0.00    +0.000 A 
ATOM      3  N   UNL     1      -0.703   9.625  22.668  0.00  0.00    +0.000 NA
ATOM      4  C   UNL     1      -0.331  10.726  22.047  0.00  0.00    +0.000 A 
ATOM      5  C   UNL     1      -0.684  12.097  22.293  0.00  0.00    +0.000 A 
ATOM      6  C   UNL     1      -0.139  13.062  21.524  0.00  0.00    +0.000 A 
ATOM      7  C   UNL     1       0.828  12.759  20.475  0.00  0.00    +0.000 A 
ATOM      8  C   UNL     1       1.163  11.473  20.264  0.00  0.00    +0.000 A 
ATOM      9  N   UNL     1       0.561  10.458  21.010  0.00  0.00    +0.000 N 
ENDROOT
BRANCH   7  10
ATOM     10  C   UNL     1       1.485  13.786  19.659  0.00  0.00    +0.000 A 
ATOM     11  C   UNL     1       2.748  13.553  19.101  0.00  0.00    +0.000 A 
ATOM     12  C   UNL     1       3.358  14.552  18.342  0.00  0.00    +0.000 A 
ATOM     13  F   UNL     1       4.565  14.323  17.810  0.00  0.00    +0.000 F 
ATOM     14  C   UNL     1       2.727  15.772  18.135  0.00  0.00    +0.000 A 
ATOM     15  F   UNL     1       3.319  16.725  17.404  0.00  0.00    +0.000 F 
ATOM     16  C   UNL     1       1.473  15.996  18.688  0.00  0.00    +0.000 A 
ATOM     17  F   UNL     1       0.850  17.167  18.497  0.00  0.00    +0.000 F 
ATOM     18  C   UNL     1       0.845  15.013  19.446  0.00  0.00    +0.000 A 
ENDBRANCH   7  10
BRANCH   1  23
ATOM     19  C   UNL     1       2.605   6.266  19.231  0.00  0.00    +0.000 A 
ATOM     20  C   UNL     1       2.873   6.847  17.990  0.00  0.00    +0.000 A 
ATOM     21  C   UNL     1       2.538   8.179  17.763  0.00  0.00    +0.000 A 
ATOM     22  C   UNL     1       1.845   8.905  18.736  0.00  0.00    +0.000 A 
ATOM     23  C   UNL     1       1.486   8.316  19.957  0.00  0.00    +0.000 A 
ATOM     24  C   UNL     1       1.923   7.008  20.208  0.00  0.00    +0.000 A 
BRANCH  19  28
ATOM     25  C   UNL     1       4.465   2.969  19.706  0.00  0.00    +0.000 C 
ATOM     26  N   UNL     1       4.239   4.376  19.419  0.00  0.00    +0.000 N 
ATOM     27  C   UNL     1       5.412   5.215  19.228  0.00  0.00    +0.000 C 
ATOM     28  C   UNL     1       2.928   4.846  19.538  0.00  0.00    +0.000 C 
ATOM     29  O   UNL     1       1.998   4.128  19.909  0.00  0.00    +0.000 OA
ENDBRANCH  19  28
ENDBRANCH   1  23
BRANCH   5  30
ATOM     30  N   UNL     1      -1.567  12.305  23.325  0.00  0.00    +0.000 N 
ATOM     31  C   UNL     1      -2.930  12.351  23.294  0.00  0.00    +0.000 C 
ATOM     32  O   UNL     1      -3.620  12.561  24.283  0.00  0.00    +0.000 OA
ATOM     33  H   UNL     1      -1.157  12.464  24.242  0.00  0.00    +0.000 HD
ENDBRANCH   5  30
TORSDOF 4
ENDMDL
MODEL 6
REMARK VINA RESULT:      -8.3      0.759      1.773
REMARK  Name = 
REMARK  6 active torsions:
REMARK  status: ('A' for Active; 'I' for Inactive)
REMARK    1  A    between atoms: C_1  and  N_2
REMARK    2  A    between atoms: N_2  and  C_3
REMARK    3  A    between atoms: C_4  and  C_6
REMARK    4  A    between atoms: C_10  and  C_11
REMARK    5  A    between atoms: C_15  and  N_16
REMARK    6  A    between atoms: C_20  and  C_21
REMARK                            x       y       z     vdW  Elec       q    Type
REMARK                         _______ _______ _______ _____ _____    ______ ____
ROOT
ATOM      1  C   UNL     1       0.684   9.072  20.929  0.00  0.00    +0.000 A 
ATOM      2  C   UNL     1      -0.079   8.605  21.990  0.00  0.00    +0.000 A 
ATOM      3  N   UNL     1      -0.712   9.615  22.662  0.00  0.00    +0.000 NA
ATOM      4  C   UNL     1      -0.340  10.719  22.047  0.00  0.00    +0.000 A 
ATOM      5  C   UNL     1      -0.695  12.088  22.297  0.00  0.00    +0.000 A 
ATOM      6  C   UNL     1      -0.150  13.057  21.533  0.00  0.00    +0.000 A 
ATOM      7  C   UNL     1       0.820  12.760  20.485  0.00  0.00    +0.000 A 
ATOM      8  C   UNL     1       1.158  11.475  20.270  0.00  0.00    +0.000 A 
ATOM      9  N   UNL     1       0.555  10.457  21.012  0.00  0.00    +0.000 N 
ENDROOT
BRANCH   7  10
ATOM     10  C   UNL     1       1.477  13.791  19.675  0.00  0.00    +0.000 A 
ATOM     11  C   UNL     1       0.849  15.021  19.440  0.00  0.00    +0.000 A 
ATOM     12  C   UNL     1       1.488  15.979  18.653  0.00  0.00    +0.000 A 
ATOM     13  F   UNL     1       0.884  17.153  18.433  0.00  0.00    +0.000 F 
ATOM     14  C   UNL     1       2.739  15.727  18.103  0.00  0.00    +0.000 A 
ATOM     15  F   UNL     1       3.346  16.653  17.351  0.00  0.00    +0.000 F 
ATOM     16  C   UNL     1       3.358  14.508  18.343  0.00  0.00    +0.000 A 
ATOM     17  F   UNL     1       4.564  14.249  17.820  0.00  0.00    +0.000 F 
ATOM     18  C   UNL     1       2.740  13.538  19.126  0.00  0.00    +0.000 A 
ENDBRANCH   7  10
BRANCH   1  23
ATOM     19  C   UNL     1       2.611   6.275  19.222  0.00  0.00    +0.000 A 
ATOM     20  C   UNL     1       2.882   6.861  17.984  0.00  0.00    +0.000 A 
ATOM     21  C   UNL     1       2.545   8.193  17.761  0.00  0.00    +0.000 A 
ATOM     22  C   UNL     1       1.848   8.915  18.735  0.00  0.00    +0.000 A 
ATOM     23  C   UNL     1       1.487   8.320  19.953  0.00  0.00    +0.000 A 
ATOM     24  C   UNL     1       1.925   7.011  20.200  0.00  0.00    +0.000 A 
BRANCH  19  28
ATOM     25  C   UNL     1       4.476   2.981  19.695  0.00  0.00    +0.000 C 
ATOM     26  N   UNL     1       4.248   4.389  19.413  0.00  0.00    +0.000 N 
ATOM     27  C   UNL     1       5.421   5.231  19.236  0.00  0.00    +0.000 C 
ATOM     28  C   UNL     1       2.936   4.854  19.524  0.00  0.00    +0.000 C 
ATOM     29  O   UNL     1       2.005   4.132  19.885  0.00  0.00    +0.000 OA
ENDBRANCH  19  28
ENDBRANCH   1  23
BRANCH   5  30
ATOM     30  N   UNL     1      -1.582  12.292  23.328  0.00  0.00    +0.000 N 
ATOM     31  C   UNL     1      -2.943  12.369  23.287  0.00  0.00    +0.000 C 
ATOM     32  O   UNL     1      -3.636  12.569  24.276  0.00  0.00    +0.000 OA
ATOM     33  H   UNL     1      -1.176  12.419  24.251  0.00  0.00    +0.000 HD
ENDBRANCH   5  30
TORSDOF 4
ENDMDL
MODEL 7
REMARK VINA RESULT:      -8.3      3.864      4.644
REMARK  Name = 
REMARK  6 active torsions:
REMARK  status: ('A' for Active; 'I' for Inactive)
REMARK    1  A    between atoms: C_1  and  N_2
REMARK    2  A    between atoms: N_2  and  C_3
REMARK    3  A    between atoms: C_4  and  C_6
REMARK    4  A    between atoms: C_10  and  C_11
REMARK    5  A    between atoms: C_15  and  N_16
REMARK    6  A    between atoms: C_20  and  C_21
REMARK                            x       y       z     vdW  Elec       q    Type
REMARK                         _______ _______ _______ _____ _____    ______ ____
ROOT
ATOM      1  C   UNL     1       1.312   8.833  20.740  0.00  0.00    +0.000 A 
ATOM      2  C   UNL     1       1.702   9.222  22.014  0.00  0.00    +0.000 A 
ATOM      3  N   UNL     1       0.882  10.184  22.540  0.00  0.00    +0.000 NA
ATOM      4  C   UNL     1      -0.011  10.420  21.601  0.00  0.00    +0.000 A 
ATOM      5  C   UNL     1      -1.130  11.321  21.588  0.00  0.00    +0.000 A 
ATOM      6  C   UNL     1      -1.892  11.404  20.478  0.00  0.00    +0.000 A 
ATOM      7  C   UNL     1      -1.591  10.634  19.276  0.00  0.00    +0.000 A 
ATOM      8  C   UNL     1      -0.531   9.805  19.294  0.00  0.00    +0.000 A 
ATOM      9  N   UNL     1       0.230   9.663  20.456  0.00  0.00    +0.000 N 
ENDROOT
BRANCH   7  10
ATOM     10  C   UNL     1      -2.361  10.742  18.032  0.00  0.00    +0.000 A 
ATOM     11  C   UNL     1      -3.513  11.537  17.974  0.00  0.00    +0.000 A 
ATOM     12  C   UNL     1      -4.237  11.610  16.784  0.00  0.00    +0.000 A 
ATOM     13  F   UNL     1      -5.336  12.373  16.734  0.00  0.00    +0.000 F 
ATOM     14  C   UNL     1      -3.827  10.906  15.659  0.00  0.00    +0.000 A 
ATOM     15  F   UNL     1      -4.528  10.984  14.520  0.00  0.00    +0.000 F 
ATOM     16  C   UNL     1      -2.683  10.122  15.721  0.00  0.00    +0.000 A 
ATOM     17  F   UNL     1      -2.274   9.437  14.645  0.00  0.00    +0.000 F 
ATOM     18  C   UNL     1      -1.944  10.036  16.898  0.00  0.00    +0.000 A 
ENDBRANCH   7  10
BRANCH   1  23
ATOM     19  C   UNL     1       2.677   5.544  19.410  0.00  0.00    +0.000 A 
ATOM     20  C   UNL     1       2.874   5.865  18.067  0.00  0.00    +0.000 A 
ATOM     21  C   UNL     1       2.678   7.174  17.633  0.00  0.00    +0.000 A 
ATOM     22  C   UNL     1       2.190   8.142  18.516  0.00  0.00    +0.000 A 
ATOM     23  C   UNL     1       1.901   7.820  19.851  0.00  0.00    +0.000 A 
ATOM     24  C   UNL     1       2.202   6.525  20.294  0.00  0.00    +0.000 A 
BRANCH  19  28
ATOM     25  C   UNL     1       4.132   2.112  20.225  0.00  0.00    +0.000 C 
ATOM     26  N   UNL     1       4.047   3.466  19.702  0.00  0.00    +0.000 N 
ATOM     27  C   UNL     1       5.263   4.048  19.156  0.00  0.00    +0.000 C 
ATOM     28  C   UNL     1       2.859   4.164  19.939  0.00  0.00    +0.000 C 
ATOM     29  O   UNL     1       1.931   3.689  20.595  0.00  0.00    +0.000 OA
ENDBRANCH  19  28
ENDBRANCH   1  23
BRANCH   5  30
ATOM     30  N   UNL     1      -1.324  12.042  22.742  0.00  0.00    +0.000 N 
ATOM     31  C   UNL     1      -1.385  13.394  22.911  0.00  0.00    +0.000 C 
ATOM     32  O   UNL     1      -1.549  13.930  23.999  0.00  0.00    +0.000 OA
ATOM     33  H   UNL     1      -1.421  11.501  23.598  0.00  0.00    +0.000 HD
ENDBRANCH   5  30
TORSDOF 4
ENDMDL
MODEL 8
REMARK VINA RESULT:      -8.2      3.829      4.459
REMARK  Name = 
REMARK  6 active torsions:
REMARK  status: ('A' for Active; 'I' for Inactive)
REMARK    1  A    between atoms: C_1  and  N_2
REMARK    2  A    between atoms: N_2  and  C_3
REMARK    3  A    between atoms: C_4  and  C_6
REMARK    4  A    between atoms: C_10  and  C_11
REMARK    5  A    between atoms: C_15  and  N_16
REMARK    6  A    between atoms: C_20  and  C_21
REMARK                            x       y       z     vdW  Elec       q    Type
REMARK                         _______ _______ _______ _____ _____    ______ ____
ROOT
ATOM      1  C   UNL     1       1.357   8.848  20.639  0.00  0.00    +0.000 A 
ATOM      2  C   UNL     1       1.764   9.263  21.900  0.00  0.00    +0.000 A 
ATOM      3  N   UNL     1       0.954  10.237  22.417  0.00  0.00    +0.000 NA
ATOM      4  C   UNL     1       0.049  10.456  21.485  0.00  0.00    +0.000 A 
ATOM      5  C   UNL     1      -1.069  11.359  21.468  0.00  0.00    +0.000 A 
ATOM      6  C   UNL     1      -1.845  11.421  20.367  0.00  0.00    +0.000 A 
ATOM      7  C   UNL     1      -1.562  10.626  19.177  0.00  0.00    +0.000 A 
ATOM      8  C   UNL     1      -0.503   9.796  19.198  0.00  0.00    +0.000 A 
ATOM      9  N   UNL     1       0.273   9.676  20.353  0.00  0.00    +0.000 N 
ENDROOT
BRANCH   7  10
ATOM     10  C   UNL     1      -2.348  10.710  17.942  0.00  0.00    +0.000 A 
ATOM     11  C   UNL     1      -1.929  10.045  16.783  0.00  0.00    +0.000 A 
ATOM     12  C   UNL     1      -2.686  10.154  15.616  0.00  0.00    +0.000 A 
ATOM     13  F   UNL     1      -2.281   9.515  14.512  0.00  0.00    +0.000 F 
ATOM     14  C   UNL     1      -3.850  10.913  15.594  0.00  0.00    +0.000 A 
ATOM     15  F   UNL     1      -4.572  11.011  14.470  0.00  0.00    +0.000 F 
ATOM     16  C   UNL     1      -4.263  11.567  16.747  0.00  0.00    +0.000 A 
ATOM     17  F   UNL     1      -5.383  12.302  16.742  0.00  0.00    +0.000 F 
ATOM     18  C   UNL     1      -3.523  11.470  17.922  0.00  0.00    +0.000 A 
ENDBRANCH   7  10
BRANCH   1  23
ATOM     19  C   UNL     1       2.695   5.529  19.358  0.00  0.00    +0.000 A 
ATOM     20  C   UNL     1       2.877   5.824  18.006  0.00  0.00    +0.000 A 
ATOM     21  C   UNL     1       2.680   7.125  17.549  0.00  0.00    +0.000 A 
ATOM     22  C   UNL     1       2.206   8.111  18.419  0.00  0.00    +0.000 A 
ATOM     23  C   UNL     1       1.932   7.817  19.763  0.00  0.00    +0.000 A 
ATOM     24  C   UNL     1       2.234   6.529  20.228  0.00  0.00    +0.000 A 
BRANCH  19  28
ATOM     25  C   UNL     1       4.160   2.120  20.245  0.00  0.00    +0.000 C 
ATOM     26  N   UNL     1       4.072   3.464  19.699  0.00  0.00    +0.000 N 
ATOM     27  C   UNL     1       5.291   4.044  19.156  0.00  0.00    +0.000 C 
ATOM     28  C   UNL     1       2.879   4.160  19.911  0.00  0.00    +0.000 C 
ATOM     29  O   UNL     1       1.947   3.690  20.565  0.00  0.00    +0.000 OA
ENDBRANCH  19  28
ENDBRANCH   1  23
BRANCH   5  30
ATOM     30  N   UNL     1      -1.246  12.104  22.610  0.00  0.00    +0.000 N 
ATOM     31  C   UNL     1      -0.923  13.408  22.844  0.00  0.00    +0.000 C 
ATOM     32  O   UNL     1      -1.116  13.968  23.915  0.00  0.00    +0.000 OA
ATOM     33  H   UNL     1      -1.662  11.620  23.402  0.00  0.00    +0.000 HD
ENDBRANCH   5  30
TORSDOF 4
ENDMDL
MODEL 9
REMARK VINA RESULT:      -7.9      4.845      8.831
REMARK  Name = 
REMARK  6 active torsions:
REMARK  status: ('A' for Active; 'I' for Inactive)
REMARK    1  A    between atoms: C_1  and  N_2
REMARK    2  A    between atoms: N_2  and  C_3
REMARK    3  A    between atoms: C_4  and  C_6
REMARK    4  A    between atoms: C_10  and  C_11
REMARK    5  A    between atoms: C_15  and  N_16
REMARK    6  A    between atoms: C_20  and  C_21
REMARK                            x       y       z     vdW  Elec       q    Type
REMARK                         _______ _______ _______ _____ _____    ______ ____
ROOT
ATOM      1  C   UNL     1      -6.100  11.950  19.814  0.00  0.00    +0.000 A 
ATOM      2  C   UNL     1      -7.015  11.694  18.802  0.00  0.00    +0.000 A 
ATOM      3  N   UNL     1      -6.409  11.399  17.611  0.00  0.00    +0.000 NA
ATOM      4  C   UNL     1      -5.118  11.486  17.856  0.00  0.00    +0.000 A 
ATOM      5  C   UNL     1      -3.991  11.270  16.992  0.00  0.00    +0.000 A 
ATOM      6  C   UNL     1      -2.746  11.453  17.479  0.00  0.00    +0.000 A 
ATOM      7  C   UNL     1      -2.511  11.902  18.847  0.00  0.00    +0.000 A 
ATOM      8  C   UNL     1      -3.574  12.116  19.643  0.00  0.00    +0.000 A 
ATOM      9  N   UNL     1      -4.866  11.872  19.171  0.00  0.00    +0.000 N 
ENDROOT
BRANCH   7  10
ATOM     10  C   UNL     1      -1.176  12.168  19.393  0.00  0.00    +0.000 A 
ATOM     11  C   UNL     1      -0.540  11.226  20.212  0.00  0.00    +0.000 A 
ATOM     12  C   UNL     1       0.723  11.510  20.731  0.00  0.00    +0.000 A 
ATOM     13  F   UNL     1       1.327  10.606  21.512  0.00  0.00    +0.000 F 
ATOM     14  C   UNL     1       1.355  12.713  20.444  0.00  0.00    +0.000 A 
ATOM     15  F   UNL     1       2.569  12.976  20.945  0.00  0.00    +0.000 F 
ATOM     16  C   UNL     1       0.722  13.641  19.628  0.00  0.00    +0.000 A 
ATOM     17  F   UNL     1       1.318  14.806  19.341  0.00  0.00    +0.000 F 
ATOM     18  C   UNL     1      -0.537  13.378  19.098  0.00  0.00    +0.000 A 
ENDBRANCH   7  10
BRANCH   1  23
ATOM     19  C   UNL     1      -5.641  13.295  23.339  0.00  0.00    +0.000 A 
ATOM     20  C   UNL     1      -6.897  13.028  23.887  0.00  0.00    +0.000 A 
ATOM     21  C   UNL     1      -7.835  12.308  23.150  0.00  0.00    +0.000 A 
ATOM     22  C   UNL     1      -7.558  11.941  21.830  0.00  0.00    +0.000 A 
ATOM     23  C   UNL     1      -6.336  12.276  21.228  0.00  0.00    +0.000 A 
ATOM     24  C   UNL     1      -5.367  12.909  22.018  0.00  0.00    +0.000 A 
BRANCH  19  28
ATOM     25  C   UNL     1      -3.549  16.142  24.779  0.00  0.00    +0.000 C 
ATOM     26  N   UNL     1      -4.623  15.464  24.071  0.00  0.00    +0.000 N 
ATOM     27  C   UNL     1      -5.731  16.280  23.601  0.00  0.00    +0.000 C 
ATOM     28  C   UNL     1      -4.597  14.067  24.067  0.00  0.00    +0.000 C 
ATOM     29  O   UNL     1      -3.738  13.418  24.666  0.00  0.00    +0.000 OA
ENDBRANCH  19  28
ENDBRANCH   1  23
BRANCH   5  30
ATOM     30  N   UNL     1      -4.294  10.890  15.706  0.00  0.00    +0.000 N 
ATOM     31  C   UNL     1      -3.484  10.334  14.760  0.00  0.00    +0.000 C 
ATOM     32  O   UNL     1      -3.863  10.048  13.632  0.00  0.00    +0.000 OA
ATOM     33  H   UNL     1      -5.250  11.056  15.403  0.00  0.00    +0.000 HD
ENDBRANCH   5  30
TORSDOF 4
ENDMDL
