MODEL 1
REMARK VINA RESULT:      -7.9      0.000      0.000
REMARK  Name = 
REMARK  1 active torsions:
REMARK  status: ('A' for Active; 'I' for Inactive)
REMARK    1  A    between atoms: N_2  and  C_4
REMARK                            x       y       z     vdW  Elec       q    Type
REMARK                         _______ _______ _______ _____ _____    ______ ____
ROOT
ATOM      1  C   UNL     1       5.601   5.187  15.875  0.00  0.00    +0.000 A 
ATOM      2  C   UNL     1       5.691   6.501  16.280  0.00  0.00    +0.000 A 
ATOM      3  N   UNL     1       4.880   7.026  17.227  0.00  0.00    +0.000 NA
ATOM      4  C   UNL     1       3.964   6.226  17.803  0.00  0.00    +0.000 A 
ATOM      5  C   UNL     1       3.158   6.783  18.777  0.00  0.00    +0.000 A 
ATOM      6  C   UNL     1       2.194   6.034  19.448  0.00  0.00    +0.000 A 
ATOM      7  C   UNL     1       2.012   4.681  19.155  0.00  0.00    +0.000 A 
ATOM      8  C   UNL     1       1.047   3.937  19.856  0.00  0.00    +0.000 A 
ATOM      9  C   UNL     1       0.853   2.584  19.594  0.00  0.00    +0.000 A 
ATOM     10  C   UNL     1       1.616   1.959  18.620  0.00  0.00    +0.000 A 
ATOM     11  C   UNL     1       2.574   2.689  17.912  0.00  0.00    +0.000 A 
ATOM     12  C   UNL     1       2.805   4.066  18.156  0.00  0.00    +0.000 A 
ATOM     13  C   UNL     1       3.792   4.858  17.471  0.00  0.00    +0.000 A 
ATOM     14  C   UNL     1       4.645   4.358  16.462  0.00  0.00    +0.000 A 
ENDROOT
BRANCH   1  16
ATOM     15  O   UNL     1       7.568   5.288  14.678  0.00  0.00    +0.000 OA
ATOM     16  N   UNL     1       6.504   4.683  14.857  0.00  0.00    +0.000 N 
ATOM     17  O   UNL     1       6.154   3.675  14.228  0.00  0.00    +0.000 OA
ENDBRANCH   1  16
TORSDOF 1
ENDMDL
MODEL 2
REMARK VINA RESULT:      -7.6      1.462      1.589
REMARK  Name = 
REMARK  1 active torsions:
REMARK  status: ('A' for Active; 'I' for Inactive)
REMARK    1  A    between atoms: N_2  and  C_4
REMARK                            x       y       z     vdW  Elec       q    Type
REMARK                         _______ _______ _______ _____ _____    ______ ____
ROOT
ATOM      1  C   UNL     1       6.147   5.230  16.979  0.00  0.00    +0.000 A 
ATOM      2  C   UNL     1       5.722   6.487  16.608  0.00  0.00    +0.000 A 
ATOM      3  N   UNL     1       4.591   7.045  17.096  0.00  0.00    +0.000 NA
ATOM      4  C   UNL     1       3.867   6.349  17.992  0.00  0.00    +0.000 A 
ATOM      5  C   UNL     1       2.725   6.948  18.486  0.00  0.00    +0.000 A 
ATOM      6  C   UNL     1       1.918   6.319  19.433  0.00  0.00    +0.000 A 
ATOM      7  C   UNL     1       2.244   5.051  19.918  0.00  0.00    +0.000 A 
ATOM      8  C   UNL     1       1.429   4.442  20.887  0.00  0.00    +0.000 A 
ATOM      9  C   UNL     1       1.738   3.184  21.397  0.00  0.00    +0.000 A 
ATOM     10  C   UNL     1       2.862   2.516  20.939  0.00  0.00    +0.000 A 
ATOM     11  C   UNL     1       3.678   3.109  19.971  0.00  0.00    +0.000 A 
ATOM     12  C   UNL     1       3.400   4.391  19.433  0.00  0.00    +0.000 A 
ATOM     13  C   UNL     1       4.216   5.054  18.452  0.00  0.00    +0.000 A 
ATOM     14  C   UNL     1       5.393   4.501  17.899  0.00  0.00    +0.000 A 
ENDROOT
BRANCH   1  16
ATOM     15  O   UNL     1       8.178   4.163  17.198  0.00  0.00    +0.000 OA
ATOM     16  N   UNL     1       7.372   4.689  16.421  0.00  0.00    +0.000 N 
ATOM     17  O   UNL     1       7.535   4.784  15.197  0.00  0.00    +0.000 OA
ENDBRANCH   1  16
TORSDOF 1
ENDMDL
MODEL 3
REMARK VINA RESULT:      -7.6      2.081      3.166
REMARK  Name = 
REMARK  1 active torsions:
REMARK  status: ('A' for Active; 'I' for Inactive)
REMARK    1  A    between atoms: N_2  and  C_4
REMARK                            x       y       z     vdW  Elec       q    Type
REMARK                         _______ _______ _______ _____ _____    ______ ____
ROOT
ATOM      1  C   UNL     1       6.183   4.075  13.636  0.00  0.00    +0.000 A 
ATOM      2  C   UNL     1       7.354   4.787  13.781  0.00  0.00    +0.000 A 
ATOM      3  N   UNL     1       7.671   5.440  14.923  0.00  0.00    +0.000 NA
ATOM      4  C   UNL     1       6.814   5.374  15.959  0.00  0.00    +0.000 A 
ATOM      5  C   UNL     1       7.168   6.038  17.117  0.00  0.00    +0.000 A 
ATOM      6  C   UNL     1       6.359   6.013  18.252  0.00  0.00    +0.000 A 
ATOM      7  C   UNL     1       5.155   5.307  18.254  0.00  0.00    +0.000 A 
ATOM      8  C   UNL     1       4.363   5.279  19.415  0.00  0.00    +0.000 A 
ATOM      9  C   UNL     1       3.164   4.572  19.449  0.00  0.00    +0.000 A 
ATOM     10  C   UNL     1       2.737   3.892  18.319  0.00  0.00    +0.000 A 
ATOM     11  C   UNL     1       3.513   3.919  17.157  0.00  0.00    +0.000 A 
ATOM     12  C   UNL     1       4.743   4.621  17.087  0.00  0.00    +0.000 A 
ATOM     13  C   UNL     1       5.588   4.663  15.923  0.00  0.00    +0.000 A 
ATOM     14  C   UNL     1       5.288   4.014  14.704  0.00  0.00    +0.000 A 
ENDROOT
BRANCH   1  16
ATOM     15  O   UNL     1       6.851   2.861  11.795  0.00  0.00    +0.000 OA
ATOM     16  N   UNL     1       5.904   3.393  12.387  0.00  0.00    +0.000 N 
ATOM     17  O   UNL     1       4.731   3.384  11.988  0.00  0.00    +0.000 OA
ENDBRANCH   1  16
TORSDOF 1
ENDMDL
MODEL 4
REMARK VINA RESULT:      -7.5      2.001      3.086
REMARK  Name = 
REMARK  1 active torsions:
REMARK  status: ('A' for Active; 'I' for Inactive)
REMARK    1  A    between atoms: N_2  and  C_4
REMARK                            x       y       z     vdW  Elec       q    Type
REMARK                         _______ _______ _______ _____ _____    ______ ____
ROOT
ATOM      1  C   UNL     1       6.540   5.898  17.559  0.00  0.00    +0.000 A 
ATOM      2  C   UNL     1       6.692   5.026  16.503  0.00  0.00    +0.000 A 
ATOM      3  N   UNL     1       5.806   4.038  16.244  0.00  0.00    +0.000 NA
ATOM      4  C   UNL     1       4.728   3.916  17.041  0.00  0.00    +0.000 A 
ATOM      5  C   UNL     1       3.832   2.907  16.747  0.00  0.00    +0.000 A 
ATOM      6  C   UNL     1       2.675   2.711  17.499  0.00  0.00    +0.000 A 
ATOM      7  C   UNL     1       2.382   3.539  18.584  0.00  0.00    +0.000 A 
ATOM      8  C   UNL     1       1.201   3.338  19.318  0.00  0.00    +0.000 A 
ATOM      9  C   UNL     1       0.878   4.156  20.396  0.00  0.00    +0.000 A 
ATOM     10  C   UNL     1       1.736   5.182  20.760  0.00  0.00    +0.000 A 
ATOM     11  C   UNL     1       2.917   5.388  20.041  0.00  0.00    +0.000 A 
ATOM     12  C   UNL     1       3.276   4.580  18.933  0.00  0.00    +0.000 A 
ATOM     13  C   UNL     1       4.468   4.763  18.148  0.00  0.00    +0.000 A 
ATOM     14  C   UNL     1       5.431   5.767  18.394  0.00  0.00    +0.000 A 
ENDROOT
BRANCH   1  16
ATOM     15  O   UNL     1       7.603   7.848  16.945  0.00  0.00    +0.000 OA
ATOM     16  N   UNL     1       7.525   6.940  17.781  0.00  0.00    +0.000 N 
ATOM     17  O   UNL     1       8.227   6.858  18.798  0.00  0.00    +0.000 OA
ENDBRANCH   1  16
TORSDOF 1
ENDMDL
MODEL 5
REMARK VINA RESULT:      -7.4      3.808      5.427
REMARK  Name = 
REMARK  1 active torsions:
REMARK  status: ('A' for Active; 'I' for Inactive)
REMARK    1  A    between atoms: N_2  and  C_4
REMARK                            x       y       z     vdW  Elec       q    Type
REMARK                         _______ _______ _______ _____ _____    ______ ____
ROOT
ATOM      1  C   UNL     1       2.588   3.924  20.744  0.00  0.00    +0.000 A 
ATOM      2  C   UNL     1       1.872   5.067  21.028  0.00  0.00    +0.000 A 
ATOM      3  N   UNL     1       1.964   6.187  20.276  0.00  0.00    +0.000 NA
ATOM      4  C   UNL     1       2.775   6.175  19.202  0.00  0.00    +0.000 A 
ATOM      5  C   UNL     1       2.841   7.327  18.443  0.00  0.00    +0.000 A 
ATOM      6  C   UNL     1       3.634   7.408  17.300  0.00  0.00    +0.000 A 
ATOM      7  C   UNL     1       4.394   6.315  16.881  0.00  0.00    +0.000 A 
ATOM      8  C   UNL     1       5.172   6.410  15.715  0.00  0.00    +0.000 A 
ATOM      9  C   UNL     1       5.929   5.331  15.267  0.00  0.00    +0.000 A 
ATOM     10  C   UNL     1       5.924   4.145  15.984  0.00  0.00    +0.000 A 
ATOM     11  C   UNL     1       5.159   4.040  17.149  0.00  0.00    +0.000 A 
ATOM     12  C   UNL     1       4.370   5.114  17.632  0.00  0.00    +0.000 A 
ATOM     13  C   UNL     1       3.549   5.052  18.812  0.00  0.00    +0.000 A 
ATOM     14  C   UNL     1       3.438   3.912  19.639  0.00  0.00    +0.000 A 
ENDROOT
BRANCH   1  16
ATOM     15  O   UNL     1       1.335   2.546  22.101  0.00  0.00    +0.000 OA
ATOM     16  N   UNL     1       2.441   2.754  21.588  0.00  0.00    +0.000 N 
ATOM     17  O   UNL     1       3.434   2.030  21.743  0.00  0.00    +0.000 OA
ENDBRANCH   1  16
TORSDOF 1
ENDMDL
MODEL 6
REMARK VINA RESULT:      -7.4      2.492      3.318
REMARK  Name = 
REMARK  1 active torsions:
REMARK  status: ('A' for Active; 'I' for Inactive)
REMARK    1  A    between atoms: N_2  and  C_4
REMARK                            x       y       z     vdW  Elec       q    Type
REMARK                         _______ _______ _______ _____ _____    ______ ____
ROOT
ATOM      1  C   UNL     1       6.700   5.228  18.690  0.00  0.00    +0.000 A 
ATOM      2  C   UNL     1       6.821   4.934  17.349  0.00  0.00    +0.000 A 
ATOM      3  N   UNL     1       5.840   4.322  16.648  0.00  0.00    +0.000 NA
ATOM      4  C   UNL     1       4.697   4.006  17.285  0.00  0.00    +0.000 A 
ATOM      5  C   UNL     1       3.706   3.395  16.542  0.00  0.00    +0.000 A 
ATOM      6  C   UNL     1       2.479   3.046  17.104  0.00  0.00    +0.000 A 
ATOM      7  C   UNL     1       2.210   3.310  18.448  0.00  0.00    +0.000 A 
ATOM      8  C   UNL     1       0.959   2.969  18.990  0.00  0.00    +0.000 A 
ATOM      9  C   UNL     1       0.659   3.232  20.324  0.00  0.00    +0.000 A 
ATOM     10  C   UNL     1       1.610   3.832  21.135  0.00  0.00    +0.000 A 
ATOM     11  C   UNL     1       2.860   4.170  20.608  0.00  0.00    +0.000 A 
ATOM     12  C   UNL     1       3.199   3.925  19.254  0.00  0.00    +0.000 A 
ATOM     13  C   UNL     1       4.461   4.271  18.657  0.00  0.00    +0.000 A 
ATOM     14  C   UNL     1       5.521   4.892  19.355  0.00  0.00    +0.000 A 
ENDROOT
BRANCH   1  16
ATOM     15  O   UNL     1       8.298   6.881  18.848  0.00  0.00    +0.000 OA
ATOM     16  N   UNL     1       7.788   5.890  19.385  0.00  0.00    +0.000 N 
ATOM     17  O   UNL     1       8.140   5.422  20.476  0.00  0.00    +0.000 OA
ENDBRANCH   1  16
TORSDOF 1
ENDMDL
MODEL 7
REMARK VINA RESULT:      -7.1      2.127      2.347
REMARK  Name = 
REMARK  1 active torsions:
REMARK  status: ('A' for Active; 'I' for Inactive)
REMARK    1  A    between atoms: N_2  and  C_4
REMARK                            x       y       z     vdW  Elec       q    Type
REMARK                         _______ _______ _______ _____ _____    ______ ____
ROOT
ATOM      1  C   UNL     1       6.429   5.101  18.151  0.00  0.00    +0.000 A 
ATOM      2  C   UNL     1       5.986   6.167  17.397  0.00  0.00    +0.000 A 
ATOM      3  N   UNL     1       4.689   6.549  17.373  0.00  0.00    +0.000 NA
ATOM      4  C   UNL     1       3.805   5.870  18.127  0.00  0.00    +0.000 A 
ATOM      5  C   UNL     1       2.489   6.290  18.095  0.00  0.00    +0.000 A 
ATOM      6  C   UNL     1       1.502   5.667  18.856  0.00  0.00    +0.000 A 
ATOM      7  C   UNL     1       1.816   4.589  19.685  0.00  0.00    +0.000 A 
ATOM      8  C   UNL     1       0.810   3.986  20.460  0.00  0.00    +0.000 A 
ATOM      9  C   UNL     1       1.097   2.918  21.305  0.00  0.00    +0.000 A 
ATOM     10  C   UNL     1       2.393   2.433  21.380  0.00  0.00    +0.000 A 
ATOM     11  C   UNL     1       3.401   3.020  20.610  0.00  0.00    +0.000 A 
ATOM     12  C   UNL     1       3.148   4.113  19.744  0.00  0.00    +0.000 A 
ATOM     13  C   UNL     1       4.152   4.766  18.947  0.00  0.00    +0.000 A 
ATOM     14  C   UNL     1       5.513   4.389  18.925  0.00  0.00    +0.000 A 
ENDROOT
BRANCH   1  16
ATOM     15  O   UNL     1       8.295   4.248  17.101  0.00  0.00    +0.000 OA
ATOM     16  N   UNL     1       7.835   4.744  18.137  0.00  0.00    +0.000 N 
ATOM     17  O   UNL     1       8.491   4.959  19.165  0.00  0.00    +0.000 OA
ENDBRANCH   1  16
TORSDOF 1
ENDMDL
MODEL 8
REMARK VINA RESULT:      -7.1      2.277      2.827
REMARK  Name = 
REMARK  1 active torsions:
REMARK  status: ('A' for Active; 'I' for Inactive)
REMARK    1  A    between atoms: N_2  and  C_4
REMARK                            x       y       z     vdW  Elec       q    Type
REMARK                         _______ _______ _______ _____ _____    ______ ____
ROOT
ATOM      1  C   UNL     1       6.326   4.632  17.941  0.00  0.00    +0.000 A 
ATOM      2  C   UNL     1       5.857   4.832  16.661  0.00  0.00    +0.000 A 
ATOM      3  N   UNL     1       4.568   4.610  16.316  0.00  0.00    +0.000 NA
ATOM      4  C   UNL     1       3.711   4.195  17.268  0.00  0.00    +0.000 A 
ATOM      5  C   UNL     1       2.398   3.990  16.894  0.00  0.00    +0.000 A 
ATOM      6  C   UNL     1       1.430   3.580  17.809  0.00  0.00    +0.000 A 
ATOM      7  C   UNL     1       1.761   3.366  19.148  0.00  0.00    +0.000 A 
ATOM      8  C   UNL     1       0.766   2.972  20.059  0.00  0.00    +0.000 A 
ATOM      9  C   UNL     1       1.065   2.763  21.402  0.00  0.00    +0.000 A 
ATOM     10  C   UNL     1       2.366   2.937  21.850  0.00  0.00    +0.000 A 
ATOM     11  C   UNL     1       3.365   3.322  20.952  0.00  0.00    +0.000 A 
ATOM     12  C   UNL     1       3.097   3.551  19.579  0.00  0.00    +0.000 A 
ATOM     13  C   UNL     1       4.083   3.968  18.618  0.00  0.00    +0.000 A 
ATOM     14  C   UNL     1       5.443   4.192  18.927  0.00  0.00    +0.000 A 
ENDROOT
BRANCH   1  16
ATOM     15  O   UNL     1       8.562   4.088  17.831  0.00  0.00    +0.000 OA
ATOM     16  N   UNL     1       7.720   4.892  18.247  0.00  0.00    +0.000 N 
ATOM     17  O   UNL     1       7.982   5.907  18.906  0.00  0.00    +0.000 OA
ENDBRANCH   1  16
TORSDOF 1
ENDMDL
MODEL 9
REMARK VINA RESULT:      -7.0      2.397      2.871
REMARK  Name = 
REMARK  1 active torsions:
REMARK  status: ('A' for Active; 'I' for Inactive)
REMARK    1  A    between atoms: N_2  and  C_4
REMARK                            x       y       z     vdW  Elec       q    Type
REMARK                         _______ _______ _______ _____ _____    ______ ____
ROOT
ATOM      1  C   UNL     1       6.291   5.692  18.573  0.00  0.00    +0.000 A 
ATOM      2  C   UNL     1       5.843   6.159  17.356  0.00  0.00    +0.000 A 
ATOM      3  N   UNL     1       4.591   5.923  16.903  0.00  0.00    +0.000 NA
ATOM      4  C   UNL     1       3.749   5.219  17.682  0.00  0.00    +0.000 A 
ATOM      5  C   UNL     1       2.472   5.004  17.202  0.00  0.00    +0.000 A 
ATOM      6  C   UNL     1       1.519   4.305  17.941  0.00  0.00    +0.000 A 
ATOM      7  C   UNL     1       1.828   3.797  19.203  0.00  0.00    +0.000 A 
ATOM      8  C   UNL     1       0.848   3.112  19.941  0.00  0.00    +0.000 A 
ATOM      9  C   UNL     1       1.126   2.606  21.208  0.00  0.00    +0.000 A 
ATOM     10  C   UNL     1       2.390   2.772  21.750  0.00  0.00    +0.000 A 
ATOM     11  C   UNL     1       3.376   3.446  21.023  0.00  0.00    +0.000 A 
ATOM     12  C   UNL     1       3.128   3.981  19.734  0.00  0.00    +0.000 A 
ATOM     13  C   UNL     1       4.100   4.700  18.954  0.00  0.00    +0.000 A 
ATOM     14  C   UNL     1       5.424   4.952  19.377  0.00  0.00    +0.000 A 
ENDROOT
BRANCH   1  16
ATOM     15  O   UNL     1       8.184   7.006  18.562  0.00  0.00    +0.000 OA
ATOM     16  N   UNL     1       7.645   5.983  19.003  0.00  0.00    +0.000 N 
ATOM     17  O   UNL     1       8.180   5.189  19.789  0.00  0.00    +0.000 OA
ENDBRANCH   1  16
TORSDOF 1
ENDMDL
