MODEL 1
REMARK VINA RESULT:      -4.1      0.000      0.000
REMARK  Name = 
REMARK  7 active torsions:
REMARK  status: ('A' for Active; 'I' for Inactive)
REMARK    1  A    between atoms: C_2  and  C_3
REMARK    2  A    between atoms: C_3  and  N_4
REMARK    3  A    between atoms: N_4  and  C_5
REMARK    4  A    between atoms: C_5  and  C_6
REMARK    5  A    between atoms: C_6  and  N_7
REMARK    6  A    between atoms: N_7  and  C_8
REMARK    7  A    between atoms: C_8  and  C_9
REMARK                            x       y       z     vdW  Elec       q    Type
REMARK                         _______ _______ _______ _____ _____    ______ ____
ROOT
ATOM      1  C   UNL     1       3.203   2.114  18.382  0.00  0.00    +0.000 C 
ENDROOT
BRANCH   1   2
ATOM      2  N   UNL     1       1.934   1.574  18.878  0.00  0.00    +0.000 NA
ATOM      3  H   UNL     1       1.715   0.736  18.332  0.00  0.00    +0.000 HD
BRANCH   2   4
ATOM      4  C   UNL     1       0.860   2.566  18.799  0.00  0.00    +0.000 C 
BRANCH   4   6
ATOM      5 CL   UNL     1       1.280   2.725  21.486  0.00  0.00    +0.000 Cl
ATOM      6  C   UNL     1       0.956   3.568  19.950  0.00  0.00    +0.000 C 
ENDBRANCH   4   6
ENDBRANCH   2   4
ENDBRANCH   1   2
BRANCH   1   7
ATOM      7  C   UNL     1       4.272   2.106  19.494  0.00  0.00    +0.000 C 
BRANCH   7   8
ATOM      8  N   UNL     1       5.248   3.193  19.305  0.00  0.00    +0.000 NA
ATOM      9  H   UNL     1       6.115   2.795  18.939  0.00  0.00    +0.000 HD
BRANCH   8  10
ATOM     10  C   UNL     1       4.729   4.193  18.360  0.00  0.00    +0.000 C 
BRANCH  10  11
ATOM     11  C   UNL     1       5.811   4.604  17.362  0.00  0.00    +0.000 C 
ATOM     12 CL   UNL     1       5.136   5.671  16.107  0.00  0.00    +0.000 Cl
ENDBRANCH  10  11
ENDBRANCH   8  10
ENDBRANCH   7   8
ENDBRANCH   1   7
TORSDOF 7
ENDMDL
MODEL 2
REMARK VINA RESULT:      -4.0      1.585      4.436
REMARK  Name = 
REMARK  7 active torsions:
REMARK  status: ('A' for Active; 'I' for Inactive)
REMARK    1  A    between atoms: C_2  and  C_3
REMARK    2  A    between atoms: C_3  and  N_4
REMARK    3  A    between atoms: N_4  and  C_5
REMARK    4  A    between atoms: C_5  and  C_6
REMARK    5  A    between atoms: C_6  and  N_7
REMARK    6  A    between atoms: N_7  and  C_8
REMARK    7  A    between atoms: C_8  and  C_9
REMARK                            x       y       z     vdW  Elec       q    Type
REMARK                         _______ _______ _______ _____ _____    ______ ____
ROOT
ATOM      1  C   UNL     1       4.123   2.039  19.723  0.00  0.00    +0.000 C 
ENDROOT
BRANCH   1   2
ATOM      2  N   UNL     1       5.219   2.995  19.539  0.00  0.00    +0.000 NA
ATOM      3  H   UNL     1       5.455   3.382  20.457  0.00  0.00    +0.000 HD
BRANCH   2   4
ATOM      4  C   UNL     1       4.859   4.047  18.585  0.00  0.00    +0.000 C 
BRANCH   4   6
ATOM      5 CL   UNL     1       6.997   5.554  19.345  0.00  0.00    +0.000 Cl
ATOM      6  C   UNL     1       5.233   5.427  19.126  0.00  0.00    +0.000 C 
ENDBRANCH   4   6
ENDBRANCH   2   4
ENDBRANCH   1   2
BRANCH   1   7
ATOM      7  C   UNL     1       3.364   1.816  18.398  0.00  0.00    +0.000 C 
BRANCH   7   8
ATOM      8  N   UNL     1       1.908   1.925  18.591  0.00  0.00    +0.000 NA
ATOM      9  H   UNL     1       1.482   1.021  18.379  0.00  0.00    +0.000 HD
BRANCH   8  10
ATOM     10  C   UNL     1       1.599   2.302  19.978  0.00  0.00    +0.000 C 
BRANCH  10  11
ATOM     11  C   UNL     1       0.910   3.666  20.025  0.00  0.00    +0.000 C 
ATOM     12 CL   UNL     1       2.000   4.897  20.707  0.00  0.00    +0.000 Cl
ENDBRANCH  10  11
ENDBRANCH   8  10
ENDBRANCH   7   8
ENDBRANCH   1   7
TORSDOF 7
ENDMDL
MODEL 3
REMARK VINA RESULT:      -4.0      1.817      5.434
REMARK  Name = 
REMARK  7 active torsions:
REMARK  status: ('A' for Active; 'I' for Inactive)
REMARK    1  A    between atoms: C_2  and  C_3
REMARK    2  A    between atoms: C_3  and  N_4
REMARK    3  A    between atoms: N_4  and  C_5
REMARK    4  A    between atoms: C_5  and  C_6
REMARK    5  A    between atoms: C_6  and  N_7
REMARK    6  A    between atoms: N_7  and  C_8
REMARK    7  A    between atoms: C_8  and  C_9
REMARK                            x       y       z     vdW  Elec       q    Type
REMARK                         _______ _______ _______ _____ _____    ______ ____
ROOT
ATOM      1  C   UNL     1       5.130   4.805  18.390  0.00  0.00    +0.000 C 
ENDROOT
BRANCH   1   2
ATOM      2  N   UNL     1       6.352   3.998  18.332  0.00  0.00    +0.000 NA
ATOM      3  H   UNL     1       6.542   3.649  19.276  0.00  0.00    +0.000 HD
BRANCH   2   4
ATOM      4  C   UNL     1       7.479   4.767  17.803  0.00  0.00    +0.000 C 
BRANCH   4   6
ATOM      5 CL   UNL     1       7.640   7.473  17.528  0.00  0.00    +0.000 Cl
ATOM      6  C   UNL     1       6.990   5.925  16.932  0.00  0.00    +0.000 C 
ENDBRANCH   4   6
ENDBRANCH   2   4
ENDBRANCH   1   2
BRANCH   1   7
ATOM      7  C   UNL     1       3.914   3.993  17.897  0.00  0.00    +0.000 C 
BRANCH   7   8
ATOM      8  N   UNL     1       4.266   2.578  17.690  0.00  0.00    +0.000 NA
ATOM      9  H   UNL     1       5.233   2.435  17.987  0.00  0.00    +0.000 HD
BRANCH   8  10
ATOM     10  C   UNL     1       3.377   1.705  18.470  0.00  0.00    +0.000 C 
BRANCH  10  11
ATOM     11  C   UNL     1       2.114   2.458  18.887  0.00  0.00    +0.000 C 
ATOM     12 CL   UNL     1       1.987   2.539  20.661  0.00  0.00    +0.000 Cl
ENDBRANCH  10  11
ENDBRANCH   8  10
ENDBRANCH   7   8
ENDBRANCH   1   7
TORSDOF 7
ENDMDL
MODEL 4
REMARK VINA RESULT:      -4.0      5.917      6.901
REMARK  Name = 
REMARK  7 active torsions:
REMARK  status: ('A' for Active; 'I' for Inactive)
REMARK    1  A    between atoms: C_2  and  C_3
REMARK    2  A    between atoms: C_3  and  N_4
REMARK    3  A    between atoms: N_4  and  C_5
REMARK    4  A    between atoms: C_5  and  C_6
REMARK    5  A    between atoms: C_6  and  N_7
REMARK    6  A    between atoms: N_7  and  C_8
REMARK    7  A    between atoms: C_8  and  C_9
REMARK                            x       y       z     vdW  Elec       q    Type
REMARK                         _______ _______ _______ _____ _____    ______ ____
ROOT
ATOM      1  C   UNL     1       5.847   4.120  14.508  0.00  0.00    +0.000 C 
ENDROOT
BRANCH   1   2
ATOM      2  N   UNL     1       6.455   3.428  13.368  0.00  0.00    +0.000 NA
ATOM      3  H   UNL     1       7.333   3.904  13.144  0.00  0.00    +0.000 HD
BRANCH   2   4
ATOM      4  C   UNL     1       5.550   3.394  12.216  0.00  0.00    +0.000 C 
BRANCH   4   6
ATOM      5 CL   UNL     1       7.303   1.684  11.021  0.00  0.00    +0.000 Cl
ATOM      6  C   UNL     1       5.625   2.043  11.504  0.00  0.00    +0.000 C 
ENDBRANCH   4   6
ENDBRANCH   2   4
ENDBRANCH   1   2
BRANCH   1   7
ATOM      7  C   UNL     1       6.885   4.347  15.626  0.00  0.00    +0.000 C 
BRANCH   7   8
ATOM      8  N   UNL     1       7.231   5.773  15.753  0.00  0.00    +0.000 NA
ATOM      9  H   UNL     1       6.931   6.259  14.906  0.00  0.00    +0.000 HD
BRANCH   8  10
ATOM     10  C   UNL     1       6.563   6.363  16.922  0.00  0.00    +0.000 C 
BRANCH  10  11
ATOM     11  C   UNL     1       7.591   6.797  17.968  0.00  0.00    +0.000 C 
ATOM     12 CL   UNL     1       8.007   8.516  17.764  0.00  0.00    +0.000 Cl
ENDBRANCH  10  11
ENDBRANCH   8  10
ENDBRANCH   7   8
ENDBRANCH   1   7
TORSDOF 7
ENDMDL
MODEL 5
REMARK VINA RESULT:      -3.9      1.821      2.374
REMARK  Name = 
REMARK  7 active torsions:
REMARK  status: ('A' for Active; 'I' for Inactive)
REMARK    1  A    between atoms: C_2  and  C_3
REMARK    2  A    between atoms: C_3  and  N_4
REMARK    3  A    between atoms: N_4  and  C_5
REMARK    4  A    between atoms: C_5  and  C_6
REMARK    5  A    between atoms: C_6  and  N_7
REMARK    6  A    between atoms: N_7  and  C_8
REMARK    7  A    between atoms: C_8  and  C_9
REMARK                            x       y       z     vdW  Elec       q    Type
REMARK                         _______ _______ _______ _____ _____    ______ ____
ROOT
ATOM      1  C   UNL     1       4.193   3.971  19.430  0.00  0.00    +0.000 C 
ENDROOT
BRANCH   1   2
ATOM      2  N   UNL     1       4.372   2.610  18.914  0.00  0.00    +0.000 NA
ATOM      3  H   UNL     1       5.329   2.534  18.558  0.00  0.00    +0.000 HD
BRANCH   2   4
ATOM      4  C   UNL     1       3.383   2.294  17.882  0.00  0.00    +0.000 C 
BRANCH   4   6
ATOM      5 CL   UNL     1       0.825   2.440  18.808  0.00  0.00    +0.000 Cl
ATOM      6  C   UNL     1       2.182   3.235  17.969  0.00  0.00    +0.000 C 
ENDBRANCH   4   6
ENDBRANCH   2   4
ENDBRANCH   1   2
BRANCH   1   7
ATOM      7  C   UNL     1       5.417   4.848  19.093  0.00  0.00    +0.000 C 
BRANCH   7   8
ATOM      8  N   UNL     1       6.446   4.076  18.377  0.00  0.00    +0.000 NA
ATOM      9  H   UNL     1       6.095   3.129  18.221  0.00  0.00    +0.000 HD
BRANCH   8  10
ATOM     10  C   UNL     1       6.758   4.705  17.085  0.00  0.00    +0.000 C 
BRANCH  10  11
ATOM     11  C   UNL     1       6.139   3.909  15.936  0.00  0.00    +0.000 C 
ATOM     12 CL   UNL     1       5.609   4.998  14.631  0.00  0.00    +0.000 Cl
ENDBRANCH  10  11
ENDBRANCH   8  10
ENDBRANCH   7   8
ENDBRANCH   1   7
TORSDOF 7
ENDMDL
MODEL 6
REMARK VINA RESULT:      -3.9      1.969      2.920
REMARK  Name = 
REMARK  7 active torsions:
REMARK  status: ('A' for Active; 'I' for Inactive)
REMARK    1  A    between atoms: C_2  and  C_3
REMARK    2  A    between atoms: C_3  and  N_4
REMARK    3  A    between atoms: N_4  and  C_5
REMARK    4  A    between atoms: C_5  and  C_6
REMARK    5  A    between atoms: C_6  and  N_7
REMARK    6  A    between atoms: N_7  and  C_8
REMARK    7  A    between atoms: C_8  and  C_9
REMARK                            x       y       z     vdW  Elec       q    Type
REMARK                         _______ _______ _______ _____ _____    ______ ____
ROOT
ATOM      1  C   UNL     1       5.244   4.150  18.975  0.00  0.00    +0.000 C 
ENDROOT
BRANCH   1   2
ATOM      2  N   UNL     1       4.904   2.746  19.225  0.00  0.00    +0.000 NA
ATOM      3  H   UNL     1       4.661   2.319  18.327  0.00  0.00    +0.000 HD
BRANCH   2   4
ATOM      4  C   UNL     1       3.816   2.622  20.196  0.00  0.00    +0.000 C 
BRANCH   4   6
ATOM      5 CL   UNL     1       1.247   3.200  20.898  0.00  0.00    +0.000 Cl
ATOM      6  C   UNL     1       2.593   3.425  19.751  0.00  0.00    +0.000 C 
ENDBRANCH   4   6
ENDBRANCH   2   4
ENDBRANCH   1   2
BRANCH   1   7
ATOM      7  C   UNL     1       5.386   4.417  17.462  0.00  0.00    +0.000 C 
BRANCH   7   8
ATOM      8  N   UNL     1       6.764   4.169  17.003  0.00  0.00    +0.000 NA
ATOM      9  H   UNL     1       6.943   3.163  17.036  0.00  0.00    +0.000 HD
BRANCH   8  10
ATOM     10  C   UNL     1       6.945   4.656  15.628  0.00  0.00    +0.000 C 
BRANCH  10  11
ATOM     11  C   UNL     1       5.724   4.319  14.772  0.00  0.00    +0.000 C 
ATOM     12 CL   UNL     1       6.225   3.697  13.181  0.00  0.00    +0.000 Cl
ENDBRANCH  10  11
ENDBRANCH   8  10
ENDBRANCH   7   8
ENDBRANCH   1   7
TORSDOF 7
ENDMDL
MODEL 7
REMARK VINA RESULT:      -3.9      1.896      2.153
REMARK  Name = 
REMARK  7 active torsions:
REMARK  status: ('A' for Active; 'I' for Inactive)
REMARK    1  A    between atoms: C_2  and  C_3
REMARK    2  A    between atoms: C_3  and  N_4
REMARK    3  A    between atoms: N_4  and  C_5
REMARK    4  A    between atoms: C_5  and  C_6
REMARK    5  A    between atoms: C_6  and  N_7
REMARK    6  A    between atoms: N_7  and  C_8
REMARK    7  A    between atoms: C_8  and  C_9
REMARK                            x       y       z     vdW  Elec       q    Type
REMARK                         _______ _______ _______ _____ _____    ______ ____
ROOT
ATOM      1  C   UNL     1       3.510   4.553  19.121  0.00  0.00    +0.000 C 
ENDROOT
BRANCH   1   2
ATOM      2  N   UNL     1       3.168   5.239  20.371  0.00  0.00    +0.000 NA
ATOM      3  H   UNL     1       3.632   4.744  21.137  0.00  0.00    +0.000 HD
BRANCH   2   4
ATOM      4  C   UNL     1       1.718   5.303  20.568  0.00  0.00    +0.000 C 
BRANCH   4   6
ATOM      5 CL   UNL     1       1.509   2.809  21.646  0.00  0.00    +0.000 Cl
ATOM      6  C   UNL     1       1.075   3.936  20.335  0.00  0.00    +0.000 C 
ENDBRANCH   4   6
ENDBRANCH   2   4
ENDBRANCH   1   2
BRANCH   1   7
ATOM      7  C   UNL     1       4.511   3.409  19.383  0.00  0.00    +0.000 C 
BRANCH   7   8
ATOM      8  N   UNL     1       5.841   3.725  18.833  0.00  0.00    +0.000 NA
ATOM      9  H   UNL     1       6.228   2.881  18.409  0.00  0.00    +0.000 HD
BRANCH   8  10
ATOM     10  C   UNL     1       5.740   4.785  17.819  0.00  0.00    +0.000 C 
BRANCH  10  11
ATOM     11  C   UNL     1       6.791   4.586  16.727  0.00  0.00    +0.000 C 
ATOM     12 CL   UNL     1       6.083   3.761  15.317  0.00  0.00    +0.000 Cl
ENDBRANCH  10  11
ENDBRANCH   8  10
ENDBRANCH   7   8
ENDBRANCH   1   7
TORSDOF 7
ENDMDL
MODEL 8
REMARK VINA RESULT:      -3.9      1.858      2.043
REMARK  Name = 
REMARK  7 active torsions:
REMARK  status: ('A' for Active; 'I' for Inactive)
REMARK    1  A    between atoms: C_2  and  C_3
REMARK    2  A    between atoms: C_3  and  N_4
REMARK    3  A    between atoms: N_4  and  C_5
REMARK    4  A    between atoms: C_5  and  C_6
REMARK    5  A    between atoms: C_6  and  N_7
REMARK    6  A    between atoms: N_7  and  C_8
REMARK    7  A    between atoms: C_8  and  C_9
REMARK                            x       y       z     vdW  Elec       q    Type
REMARK                         _______ _______ _______ _____ _____    ______ ____
ROOT
ATOM      1  C   UNL     1       3.890   3.388  17.212  0.00  0.00    +0.000 C 
ENDROOT
BRANCH   1   2
ATOM      2  N   UNL     1       2.469   3.027  17.215  0.00  0.00    +0.000 NA
ATOM      3  H   UNL     1       2.102   3.192  16.274  0.00  0.00    +0.000 HD
BRANCH   2   4
ATOM      4  C   UNL     1       1.726   3.782  18.226  0.00  0.00    +0.000 C 
BRANCH   4   6
ATOM      5 CL   UNL     1       1.110   3.119  20.796  0.00  0.00    +0.000 Cl
ATOM      6  C   UNL     1       0.836   2.855  19.054  0.00  0.00    +0.000 C 
ENDBRANCH   4   6
ENDBRANCH   2   4
ENDBRANCH   1   2
BRANCH   1   7
ATOM      7  C   UNL     1       4.254   4.181  18.484  0.00  0.00    +0.000 C 
BRANCH   7   8
ATOM      8  N   UNL     1       5.656   3.950  18.874  0.00  0.00    +0.000 NA
ATOM      9  H   UNL     1       6.148   3.522  18.087  0.00  0.00    +0.000 HD
BRANCH   8  10
ATOM     10  C   UNL     1       6.308   5.218  19.231  0.00  0.00    +0.000 C 
BRANCH  10  11
ATOM     11  C   UNL     1       7.555   5.442  18.376  0.00  0.00    +0.000 C 
ATOM     12 CL   UNL     1       7.806   7.178  18.073  0.00  0.00    +0.000 Cl
ENDBRANCH  10  11
ENDBRANCH   8  10
ENDBRANCH   7   8
ENDBRANCH   1   7
TORSDOF 7
ENDMDL
MODEL 9
REMARK VINA RESULT:      -3.9      1.629      5.302
REMARK  Name = 
REMARK  7 active torsions:
REMARK  status: ('A' for Active; 'I' for Inactive)
REMARK    1  A    between atoms: C_2  and  C_3
REMARK    2  A    between atoms: C_3  and  N_4
REMARK    3  A    between atoms: N_4  and  C_5
REMARK    4  A    between atoms: C_5  and  C_6
REMARK    5  A    between atoms: C_6  and  N_7
REMARK    6  A    between atoms: N_7  and  C_8
REMARK    7  A    between atoms: C_8  and  C_9
REMARK                            x       y       z     vdW  Elec       q    Type
REMARK                         _______ _______ _______ _____ _____    ______ ____
ROOT
ATOM      1  C   UNL     1       4.160   3.548  17.992  0.00  0.00    +0.000 C 
ENDROOT
BRANCH   1   2
ATOM      2  N   UNL     1       5.203   3.365  16.978  0.00  0.00    +0.000 NA
ATOM      3  H   UNL     1       5.881   2.692  17.346  0.00  0.00    +0.000 HD
BRANCH   2   4
ATOM      4  C   UNL     1       5.839   4.636  16.626  0.00  0.00    +0.000 C 
BRANCH   4   6
ATOM      5 CL   UNL     1       7.617   5.352  18.562  0.00  0.00    +0.000 Cl
ATOM      6  C   UNL     1       7.329   4.614  16.965  0.00  0.00    +0.000 C 
ENDBRANCH   4   6
ENDBRANCH   2   4
ENDBRANCH   1   2
BRANCH   1   7
ATOM      7  C   UNL     1       3.120   2.411  17.918  0.00  0.00    +0.000 C 
BRANCH   7   8
ATOM      8  N   UNL     1       1.755   2.943  17.773  0.00  0.00    +0.000 NA
ATOM      9  H   UNL     1       1.366   2.610  16.888  0.00  0.00    +0.000 HD
BRANCH   8  10
ATOM     10  C   UNL     1       0.905   2.494  18.885  0.00  0.00    +0.000 C 
BRANCH  10  11
ATOM     11  C   UNL     1       0.940   3.505  20.031  0.00  0.00    +0.000 C 
ATOM     12 CL   UNL     1       1.427   2.714  21.550  0.00  0.00    +0.000 Cl
ENDBRANCH  10  11
ENDBRANCH   8  10
ENDBRANCH   7   8
ENDBRANCH   1   7
TORSDOF 7
ENDMDL
