MODEL 1
REMARK VINA RESULT:      -6.3      0.000      0.000
REMARK  Name = 
REMARK  4 active torsions:
REMARK  status: ('A' for Active; 'I' for Inactive)
REMARK    1  A    between atoms: CA_4  and  C_5
REMARK    2  A    between atoms: C_5  and  OXT_7
REMARK    3  A    between atoms: C_21  and  C_22
REMARK    4  A    between atoms: C_22  and  S_23
REMARK                            x       y       z     vdW  Elec       q    Type
REMARK                         _______ _______ _______ _____ _____    ______ ____
ROOT
ATOM      1  O   UNL     1       0.286  12.971  22.473  0.00  0.00    +0.000 OA
ATOM      2  C   UNL     1      -0.406  12.142  21.877  0.00  0.00    +0.000 C 
ATOM      3  N   UNL     1      -0.336  12.172  20.522  0.00  0.00    +0.000 N 
ATOM      4  CA  UNL     1      -0.625  11.130  19.491  0.00  0.00    +0.000 C 
ATOM      5  C   UNL     1      -1.925  11.561  18.794  0.00  0.00    +0.000 C 
ATOM      6  C   UNL     1      -2.699  11.064  17.588  0.00  0.00    +0.000 A 
ATOM      7  C   UNL     1      -2.000  10.376  16.597  0.00  0.00    +0.000 A 
ATOM      8  C   UNL     1      -2.595   9.998  15.395  0.00  0.00    +0.000 A 
ATOM      9  C   UNL     1      -3.919  10.332  15.136  0.00  0.00    +0.000 A 
ATOM     10  C   UNL     1      -4.664  11.008  16.116  0.00  0.00    +0.000 A 
ATOM     11  C   UNL     1      -4.093  11.394  17.357  0.00  0.00    +0.000 A 
ATOM     12  C   UNL     1      -5.103  12.166  18.300  0.00  0.00    +0.000 C 
ATOM     13  C   UNL     1      -4.509  12.442  19.664  0.00  0.00    +0.000 C 
ATOM     14  C   UNL     1      -4.936  13.161  20.940  0.00  0.00    +0.000 C 
ATOM     15  C   UNL     1      -3.599  13.252  21.782  0.00  0.00    +0.000 C 
ATOM     16  C   UNL     1      -3.560  12.595  23.164  0.00  0.00    +0.000 C 
ATOM     17  C   UNL     1      -2.170  12.041  23.633  0.00  0.00    +0.000 C 
ATOM     18  C   UNL     1      -1.342  11.186  22.611  0.00  0.00    +0.000 C 
ATOM     19  H   UNL     1      -0.083  13.109  20.239  0.00  0.00    +0.000 HD
ENDROOT
BRANCH   4  20
ATOM     20  C   UNL     1       0.601  10.955  18.590  0.00  0.00    +0.000 C 
ATOM     21  O   UNL     1       1.032   9.864  18.246  0.00  0.00    +0.000 OA
BRANCH  20  22
ATOM     22  OXT UNL     1       1.174  12.098  18.150  0.00  0.00    +0.000 OA
ATOM     23  HXT UNL     1       0.600  12.674  17.627  0.00  0.00    +0.000 HD
ENDBRANCH  20  22
ENDBRANCH   4  20
BRANCH  18  24
ATOM     24  C   UNL     1      -0.417  10.116  23.225  0.00  0.00    +0.000 C 
BRANCH  24  25
ATOM     25  S   UNL     1       0.096   8.812  22.067  0.00  0.00    +0.000 S 
ATOM     26  H   UNL     1       0.110   7.810  22.962  0.00  0.00    +0.000 HD
ENDBRANCH  24  25
ENDBRANCH  18  24
TORSDOF 4
ENDMDL
MODEL 2
REMARK VINA RESULT:      -6.1      3.755      5.067
REMARK  Name = 
REMARK  4 active torsions:
REMARK  status: ('A' for Active; 'I' for Inactive)
REMARK    1  A    between atoms: CA_4  and  C_5
REMARK    2  A    between atoms: C_5  and  OXT_7
REMARK    3  A    between atoms: C_21  and  C_22
REMARK    4  A    between atoms: C_22  and  S_23
REMARK                            x       y       z     vdW  Elec       q    Type
REMARK                         _______ _______ _______ _____ _____    ______ ____
ROOT
ATOM      1  O   UNL     1      -4.764  12.772  24.752  0.00  0.00    +0.000 OA
ATOM      2  C   UNL     1      -4.542  13.179  23.608  0.00  0.00    +0.000 C 
ATOM      3  N   UNL     1      -4.906  12.347  22.600  0.00  0.00    +0.000 N 
ATOM      4  CA  UNL     1      -5.223  12.610  21.163  0.00  0.00    +0.000 C 
ATOM      5  C   UNL     1      -4.050  12.041  20.351  0.00  0.00    +0.000 C 
ATOM      6  C   UNL     1      -3.784  11.835  18.871  0.00  0.00    +0.000 A 
ATOM      7  C   UNL     1      -4.878  11.700  18.019  0.00  0.00    +0.000 A 
ATOM      8  C   UNL     1      -4.734  11.377  16.671  0.00  0.00    +0.000 A 
ATOM      9  C   UNL     1      -3.471  11.147  16.140  0.00  0.00    +0.000 A 
ATOM     10  C   UNL     1      -2.340  11.292  16.960  0.00  0.00    +0.000 A 
ATOM     11  C   UNL     1      -2.451  11.635  18.333  0.00  0.00    +0.000 A 
ATOM     12  C   UNL     1      -1.054  11.720  19.073  0.00  0.00    +0.000 C 
ATOM     13  C   UNL     1      -1.194  12.219  20.495  0.00  0.00    +0.000 C 
ATOM     14  C   UNL     1      -0.273  12.459  21.687  0.00  0.00    +0.000 C 
ATOM     15  C   UNL     1      -1.273  12.693  22.890  0.00  0.00    +0.000 C 
ATOM     16  C   UNL     1      -1.211  14.024  23.644  0.00  0.00    +0.000 C 
ATOM     17  C   UNL     1      -2.560  14.544  24.252  0.00  0.00    +0.000 C 
ATOM     18  C   UNL     1      -3.835  14.505  23.339  0.00  0.00    +0.000 C 
ATOM     19  H   UNL     1      -4.890  11.399  22.950  0.00  0.00    +0.000 HD
ENDROOT
BRANCH   4  20
ATOM     20  C   UNL     1      -6.609  12.044  20.840  0.00  0.00    +0.000 C 
ATOM     21  O   UNL     1      -6.895  10.860  20.951  0.00  0.00    +0.000 OA
BRANCH  20  22
ATOM     22  OXT UNL     1      -7.537  12.948  20.453  0.00  0.00    +0.000 OA
ATOM     23  HXT UNL     1      -7.530  13.782  20.942  0.00  0.00    +0.000 HD
ENDBRANCH  20  22
ENDBRANCH   4  20
BRANCH  18  24
ATOM     24  C   UNL     1      -4.898  15.587  23.622  0.00  0.00    +0.000 C 
BRANCH  24  25
ATOM     25  S   UNL     1      -4.407  16.814  24.870  0.00  0.00    +0.000 S 
ATOM     26  H   UNL     1      -3.305  17.245  24.235  0.00  0.00    +0.000 HD
ENDBRANCH  24  25
ENDBRANCH  18  24
TORSDOF 4
ENDMDL
MODEL 3
REMARK VINA RESULT:      -6.1      4.046      5.303
REMARK  Name = 
REMARK  4 active torsions:
REMARK  status: ('A' for Active; 'I' for Inactive)
REMARK    1  A    between atoms: CA_4  and  C_5
REMARK    2  A    between atoms: C_5  and  OXT_7
REMARK    3  A    between atoms: C_21  and  C_22
REMARK    4  A    between atoms: C_22  and  S_23
REMARK                            x       y       z     vdW  Elec       q    Type
REMARK                         _______ _______ _______ _____ _____    ______ ____
ROOT
ATOM      1  O   UNL     1      -6.501  12.770  23.626  0.00  0.00    +0.000 OA
ATOM      2  C   UNL     1      -5.911  13.119  22.600  0.00  0.00    +0.000 C 
ATOM      3  N   UNL     1      -6.017  12.280  21.538  0.00  0.00    +0.000 N 
ATOM      4  CA  UNL     1      -5.862  12.515  20.070  0.00  0.00    +0.000 C 
ATOM      5  C   UNL     1      -4.548  11.834  19.661  0.00  0.00    +0.000 C 
ATOM      6  C   UNL     1      -3.862  11.557  18.336  0.00  0.00    +0.000 A 
ATOM      7  C   UNL     1      -4.654  11.472  17.192  0.00  0.00    +0.000 A 
ATOM      8  C   UNL     1      -4.134  11.092  15.956  0.00  0.00    +0.000 A 
ATOM      9  C   UNL     1      -2.792  10.752  15.838  0.00  0.00    +0.000 A 
ATOM     10  C   UNL     1      -1.955  10.843  16.963  0.00  0.00    +0.000 A 
ATOM     11  C   UNL     1      -2.450  11.241  18.232  0.00  0.00    +0.000 A 
ATOM     12  C   UNL     1      -1.341  11.250  19.363  0.00  0.00    +0.000 C 
ATOM     13  C   UNL     1      -1.865  11.808  20.668  0.00  0.00    +0.000 C 
ATOM     14  C   UNL     1      -1.333  12.022  22.081  0.00  0.00    +0.000 C 
ATOM     15  C   UNL     1      -2.629  12.371  22.919  0.00  0.00    +0.000 C 
ATOM     16  C   UNL     1      -2.692  13.720  23.641  0.00  0.00    +0.000 C 
ATOM     17  C   UNL     1      -4.116  14.358  23.802  0.00  0.00    +0.000 C 
ATOM     18  C   UNL     1      -5.052  14.379  22.544  0.00  0.00    +0.000 C 
ATOM     19  H   UNL     1      -6.185  11.347  21.887  0.00  0.00    +0.000 HD
ENDROOT
BRANCH   4  20
ATOM     20  C   UNL     1      -7.125  12.040  19.346  0.00  0.00    +0.000 C 
ATOM     21  O   UNL     1      -7.735  12.727  18.538  0.00  0.00    +0.000 OA
BRANCH  20  22
ATOM     22  OXT UNL     1      -7.520  10.777  19.620  0.00  0.00    +0.000 OA
ATOM     23  HXT UNL     1      -8.471  10.616  19.548  0.00  0.00    +0.000 HD
ENDBRANCH  20  22
ENDBRANCH   4  20
BRANCH  18  24
ATOM     24  C   UNL     1      -6.061  15.545  22.478  0.00  0.00    +0.000 C 
BRANCH  24  25
ATOM     25  S   UNL     1      -6.007  16.668  23.905  0.00  0.00    +0.000 S 
ATOM     26  H   UNL     1      -4.678  16.865  23.895  0.00  0.00    +0.000 HD
ENDBRANCH  24  25
ENDBRANCH  18  24
TORSDOF 4
ENDMDL
MODEL 4
REMARK VINA RESULT:      -6.0      2.535      4.881
REMARK  Name = 
REMARK  4 active torsions:
REMARK  status: ('A' for Active; 'I' for Inactive)
REMARK    1  A    between atoms: CA_4  and  C_5
REMARK    2  A    between atoms: C_5  and  OXT_7
REMARK    3  A    between atoms: C_21  and  C_22
REMARK    4  A    between atoms: C_22  and  S_23
REMARK                            x       y       z     vdW  Elec       q    Type
REMARK                         _______ _______ _______ _____ _____    ______ ____
ROOT
ATOM      1  O   UNL     1      -0.451  11.386  23.017  0.00  0.00    +0.000 OA
ATOM      2  C   UNL     1      -1.004  12.071  22.153  0.00  0.00    +0.000 C 
ATOM      3  N   UNL     1      -2.361  12.050  22.156  0.00  0.00    +0.000 N 
ATOM      4  CA  UNL     1      -3.369  13.017  21.626  0.00  0.00    +0.000 C 
ATOM      5  C   UNL     1      -3.999  12.351  20.393  0.00  0.00    +0.000 C 
ATOM      6  C   UNL     1      -5.160  12.694  19.478  0.00  0.00    +0.000 A 
ATOM      7  C   UNL     1      -6.181  13.495  19.984  0.00  0.00    +0.000 A 
ATOM      8  C   UNL     1      -7.348  13.753  19.267  0.00  0.00    +0.000 A 
ATOM      9  C   UNL     1      -7.539  13.180  18.016  0.00  0.00    +0.000 A 
ATOM     10  C   UNL     1      -6.526  12.381  17.461  0.00  0.00    +0.000 A 
ATOM     11  C   UNL     1      -5.319  12.111  18.159  0.00  0.00    +0.000 A 
ATOM     12  C   UNL     1      -4.329  11.169  17.359  0.00  0.00    +0.000 C 
ATOM     13  C   UNL     1      -3.000  11.011  18.065  0.00  0.00    +0.000 C 
ATOM     14  C   UNL     1      -1.708  10.230  17.847  0.00  0.00    +0.000 C 
ATOM     15  C   UNL     1      -0.939  10.391  19.220  0.00  0.00    +0.000 C 
ATOM     16  C   UNL     1       0.444  11.048  19.210  0.00  0.00    +0.000 C 
ATOM     17  C   UNL     1       0.843  11.851  20.497  0.00  0.00    +0.000 C 
ATOM     18  C   UNL     1      -0.216  12.840  21.097  0.00  0.00    +0.000 C 
ATOM     19  H   UNL     1      -2.663  11.175  22.562  0.00  0.00    +0.000 HD
ENDROOT
BRANCH   4  20
ATOM     20  C   UNL     1      -4.332  13.412  22.749  0.00  0.00    +0.000 C 
ATOM     21  O   UNL     1      -4.470  14.562  23.143  0.00  0.00    +0.000 OA
BRANCH  20  22
ATOM     22  OXT UNL     1      -5.069  12.407  23.270  0.00  0.00    +0.000 OA
ATOM     23  HXT UNL     1      -5.219  12.455  24.224  0.00  0.00    +0.000 HD
ENDBRANCH  20  22
ENDBRANCH   4  20
BRANCH  18  24
ATOM     24  C   UNL     1       0.356  14.065  21.841  0.00  0.00    +0.000 C 
BRANCH  24  25
ATOM     25  S   UNL     1      -0.713  15.534  21.802  0.00  0.00    +0.000 S 
ATOM     26  H   UNL     1       0.269  16.433  21.624  0.00  0.00    +0.000 HD
ENDBRANCH  24  25
ENDBRANCH  18  24
TORSDOF 4
ENDMDL
MODEL 5
REMARK VINA RESULT:      -5.9      3.565      5.750
REMARK  Name = 
REMARK  4 active torsions:
REMARK  status: ('A' for Active; 'I' for Inactive)
REMARK    1  A    between atoms: CA_4  and  C_5
REMARK    2  A    between atoms: C_5  and  OXT_7
REMARK    3  A    between atoms: C_21  and  C_22
REMARK    4  A    between atoms: C_22  and  S_23
REMARK                            x       y       z     vdW  Elec       q    Type
REMARK                         _______ _______ _______ _____ _____    ______ ____
ROOT
ATOM      1  O   UNL     1      -7.004  10.736  18.167  0.00  0.00    +0.000 OA
ATOM      2  C   UNL     1      -6.092  11.563  18.255  0.00  0.00    +0.000 C 
ATOM      3  N   UNL     1      -4.832  11.059  18.281  0.00  0.00    +0.000 N 
ATOM      4  CA  UNL     1      -3.513  11.672  17.940  0.00  0.00    +0.000 C 
ATOM      5  C   UNL     1      -2.773  11.871  19.271  0.00  0.00    +0.000 C 
ATOM      6  C   UNL     1      -1.367  12.297  19.651  0.00  0.00    +0.000 A 
ATOM      7  C   UNL     1      -0.345  12.088  18.727  0.00  0.00    +0.000 A 
ATOM      8  C   UNL     1       0.994  12.324  19.035  0.00  0.00    +0.000 A 
ATOM      9  C   UNL     1       1.353  12.752  20.307  0.00  0.00    +0.000 A 
ATOM     10  C   UNL     1       0.351  12.993  21.262  0.00  0.00    +0.000 A 
ATOM     11  C   UNL     1      -1.023  12.778  20.976  0.00  0.00    +0.000 A 
ATOM     12  C   UNL     1      -1.975  13.089  22.202  0.00  0.00    +0.000 C 
ATOM     13  C   UNL     1      -3.437  12.982  21.827  0.00  0.00    +0.000 C 
ATOM     14  C   UNL     1      -4.781  13.104  22.538  0.00  0.00    +0.000 C 
ATOM     15  C   UNL     1      -5.815  12.539  21.481  0.00  0.00    +0.000 C 
ATOM     16  C   UNL     1      -6.938  13.459  20.994  0.00  0.00    +0.000 C 
ATOM     17  C   UNL     1      -7.442  13.226  19.527  0.00  0.00    +0.000 C 
ATOM     18  C   UNL     1      -6.362  13.058  18.402  0.00  0.00    +0.000 C 
ATOM     19  H   UNL     1      -4.875  10.119  18.649  0.00  0.00    +0.000 HD
ENDROOT
BRANCH   4  20
ATOM     20  C   UNL     1      -2.807  10.803  16.895  0.00  0.00    +0.000 C 
ATOM     21  O   UNL     1      -2.620   9.602  17.034  0.00  0.00    +0.000 OA
BRANCH  20  22
ATOM     22  OXT UNL     1      -2.425  11.438  15.764  0.00  0.00    +0.000 OA
ATOM     23  HXT UNL     1      -3.147  11.743  15.197  0.00  0.00    +0.000 HD
ENDBRANCH  20  22
ENDBRANCH   4  20
BRANCH  18  24
ATOM     24  C   UNL     1      -6.781  13.526  16.993  0.00  0.00    +0.000 C 
BRANCH  24  25
ATOM     25  S   UNL     1      -7.079  15.314  16.853  0.00  0.00    +0.000 S 
ATOM     26  H   UNL     1      -7.901  15.415  17.911  0.00  0.00    +0.000 HD
ENDBRANCH  24  25
ENDBRANCH  18  24
TORSDOF 4
ENDMDL
MODEL 6
REMARK VINA RESULT:      -5.9      2.826      5.457
REMARK  Name = 
REMARK  4 active torsions:
REMARK  status: ('A' for Active; 'I' for Inactive)
REMARK    1  A    between atoms: CA_4  and  C_5
REMARK    2  A    between atoms: C_5  and  OXT_7
REMARK    3  A    between atoms: C_21  and  C_22
REMARK    4  A    between atoms: C_22  and  S_23
REMARK                            x       y       z     vdW  Elec       q    Type
REMARK                         _______ _______ _______ _____ _____    ______ ____
ROOT
ATOM      1  O   UNL     1      -0.849  12.947  17.944  0.00  0.00    +0.000 OA
ATOM      2  C   UNL     1      -1.513  12.348  18.794  0.00  0.00    +0.000 C 
ATOM      3  N   UNL     1      -2.818  12.707  18.892  0.00  0.00    +0.000 N 
ATOM      4  CA  UNL     1      -4.009  11.978  19.422  0.00  0.00    +0.000 C 
ATOM      5  C   UNL     1      -4.384  12.668  20.743  0.00  0.00    +0.000 C 
ATOM      6  C   UNL     1      -5.545  12.547  21.712  0.00  0.00    +0.000 A 
ATOM      7  C   UNL     1      -6.762  12.073  21.224  0.00  0.00    +0.000 A 
ATOM      8  C   UNL     1      -7.917  12.052  22.004  0.00  0.00    +0.000 A 
ATOM      9  C   UNL     1      -7.891  12.541  23.304  0.00  0.00    +0.000 A 
ATOM     10  C   UNL     1      -6.680  13.010  23.840  0.00  0.00    +0.000 A 
ATOM     11  C   UNL     1      -5.482  13.031  23.078  0.00  0.00    +0.000 A 
ATOM     12  C   UNL     1      -4.245  13.622  23.871  0.00  0.00    +0.000 C 
ATOM     13  C   UNL     1      -2.958  13.505  23.083  0.00  0.00    +0.000 C 
ATOM     14  C   UNL     1      -1.501  13.917  23.263  0.00  0.00    +0.000 C 
ATOM     15  C   UNL     1      -0.870  13.692  21.830  0.00  0.00    +0.000 C 
ATOM     16  C   UNL     1       0.299  12.713  21.691  0.00  0.00    +0.000 C 
ATOM     17  C   UNL     1       0.413  11.953  20.324  0.00  0.00    +0.000 C 
ATOM     18  C   UNL     1      -0.892  11.316  19.732  0.00  0.00    +0.000 C 
ATOM     19  H   UNL     1      -2.908  13.662  18.573  0.00  0.00    +0.000 HD
ENDROOT
BRANCH   4  20
ATOM     20  C   UNL     1      -5.098  11.937  18.346  0.00  0.00    +0.000 C 
ATOM     21  O   UNL     1      -5.567  10.898  17.903  0.00  0.00    +0.000 OA
BRANCH  20  22
ATOM     22  OXT UNL     1      -5.555  13.138  17.927  0.00  0.00    +0.000 OA
ATOM     23  HXT UNL     1      -5.077  13.906  18.270  0.00  0.00    +0.000 HD
ENDBRANCH  20  22
ENDBRANCH   4  20
BRANCH  18  24
ATOM     24  C   UNL     1      -0.690  10.059  18.861  0.00  0.00    +0.000 C 
BRANCH  24  25
ATOM     25  S   UNL     1       1.030   9.763  18.354  0.00  0.00    +0.000 S 
ATOM     26  H   UNL     1       1.019  10.586  17.292  0.00  0.00    +0.000 HD
ENDBRANCH  24  25
ENDBRANCH  18  24
TORSDOF 4
ENDMDL
MODEL 7
REMARK VINA RESULT:      -5.9      2.843      4.887
REMARK  Name = 
REMARK  4 active torsions:
REMARK  status: ('A' for Active; 'I' for Inactive)
REMARK    1  A    between atoms: CA_4  and  C_5
REMARK    2  A    between atoms: C_5  and  OXT_7
REMARK    3  A    between atoms: C_21  and  C_22
REMARK    4  A    between atoms: C_22  and  S_23
REMARK                            x       y       z     vdW  Elec       q    Type
REMARK                         _______ _______ _______ _____ _____    ______ ____
ROOT
ATOM      1  O   UNL     1      -4.016  12.990  20.491  0.00  0.00    +0.000 OA
ATOM      2  C   UNL     1      -2.811  12.783  20.330  0.00  0.00    +0.000 C 
ATOM      3  N   UNL     1      -2.489  11.732  19.534  0.00  0.00    +0.000 N 
ATOM      4  CA  UNL     1      -1.254  11.422  18.753  0.00  0.00    +0.000 C 
ATOM      5  C   UNL     1      -0.563  10.259  19.480  0.00  0.00    +0.000 C 
ATOM      6  C   UNL     1       0.626   9.368  19.170  0.00  0.00    +0.000 A 
ATOM      7  C   UNL     1       0.978   9.184  17.834  0.00  0.00    +0.000 A 
ATOM      8  C   UNL     1       1.967   8.283  17.445  0.00  0.00    +0.000 A 
ATOM      9  C   UNL     1       2.618   7.507  18.395  0.00  0.00    +0.000 A 
ATOM     10  C   UNL     1       2.307   7.675  19.754  0.00  0.00    +0.000 A 
ATOM     11  C   UNL     1       1.316   8.596  20.186  0.00  0.00    +0.000 A 
ATOM     12  C   UNL     1       1.110   8.605  21.756  0.00  0.00    +0.000 C 
ATOM     13  C   UNL     1       0.149   9.688  22.197  0.00  0.00    +0.000 C 
ATOM     14  C   UNL     1      -0.476  10.157  23.506  0.00  0.00    +0.000 C 
ATOM     15  C   UNL     1      -1.613  11.155  23.041  0.00  0.00    +0.000 C 
ATOM     16  C   UNL     1      -1.553  12.607  23.523  0.00  0.00    +0.000 C 
ATOM     17  C   UNL     1      -2.145  13.688  22.553  0.00  0.00    +0.000 C 
ATOM     18  C   UNL     1      -1.742  13.609  21.040  0.00  0.00    +0.000 C 
ATOM     19  H   UNL     1      -3.249  11.066  19.566  0.00  0.00    +0.000 HD
ENDROOT
BRANCH   4  20
ATOM     20  C   UNL     1      -1.629  11.178  17.288  0.00  0.00    +0.000 C 
ATOM     21  O   UNL     1      -1.930  10.078  16.845  0.00  0.00    +0.000 OA
BRANCH  20  22
ATOM     22  OXT UNL     1      -1.652  12.274  16.497  0.00  0.00    +0.000 OA
ATOM     23  HXT UNL     1      -0.815  12.487  16.061  0.00  0.00    +0.000 HD
ENDBRANCH  20  22
ENDBRANCH   4  20
BRANCH  18  24
ATOM     24  C   UNL     1      -1.710  14.953  20.283  0.00  0.00    +0.000 C 
BRANCH  24  25
ATOM     25  S   UNL     1      -0.203  15.231  19.307  0.00  0.00    +0.000 S 
ATOM     26  H   UNL     1       0.455  15.939  20.240  0.00  0.00    +0.000 HD
ENDBRANCH  24  25
ENDBRANCH  18  24
TORSDOF 4
ENDMDL
MODEL 8
REMARK VINA RESULT:      -5.9      3.598      4.906
REMARK  Name = 
REMARK  4 active torsions:
REMARK  status: ('A' for Active; 'I' for Inactive)
REMARK    1  A    between atoms: CA_4  and  C_5
REMARK    2  A    between atoms: C_5  and  OXT_7
REMARK    3  A    between atoms: C_21  and  C_22
REMARK    4  A    between atoms: C_22  and  S_23
REMARK                            x       y       z     vdW  Elec       q    Type
REMARK                         _______ _______ _______ _____ _____    ______ ____
ROOT
ATOM      1  O   UNL     1      -5.169  13.197  23.804  0.00  0.00    +0.000 OA
ATOM      2  C   UNL     1      -4.661  13.404  22.699  0.00  0.00    +0.000 C 
ATOM      3  N   UNL     1      -5.043  12.567  21.702  0.00  0.00    +0.000 N 
ATOM      4  CA  UNL     1      -5.036  12.725  20.217  0.00  0.00    +0.000 C 
ATOM      5  C   UNL     1      -3.920  11.809  19.690  0.00  0.00    +0.000 C 
ATOM      6  C   UNL     1      -3.465  11.376  18.309  0.00  0.00    +0.000 A 
ATOM      7  C   UNL     1      -4.397  11.398  17.273  0.00  0.00    +0.000 A 
ATOM      8  C   UNL     1      -4.109  10.894  16.006  0.00  0.00    +0.000 A 
ATOM      9  C   UNL     1      -2.872  10.318  15.747  0.00  0.00    +0.000 A 
ATOM     10  C   UNL     1      -1.898  10.293  16.759  0.00  0.00    +0.000 A 
ATOM     11  C   UNL     1      -2.153  10.811  18.056  0.00  0.00    +0.000 A 
ATOM     12  C   UNL     1      -0.925  10.657  19.044  0.00  0.00    +0.000 C 
ATOM     13  C   UNL     1      -1.177  11.338  20.372  0.00  0.00    +0.000 C 
ATOM     14  C   UNL     1      -0.443  11.497  21.699  0.00  0.00    +0.000 C 
ATOM     15  C   UNL     1      -1.543  12.095  22.666  0.00  0.00    +0.000 C 
ATOM     16  C   UNL     1      -1.281  13.455  23.319  0.00  0.00    +0.000 C 
ATOM     17  C   UNL     1      -2.542  14.340  23.614  0.00  0.00    +0.000 C 
ATOM     18  C   UNL     1      -3.612  14.490  22.477  0.00  0.00    +0.000 C 
ATOM     19  H   UNL     1      -5.324  11.689  22.117  0.00  0.00    +0.000 HD
ENDROOT
BRANCH   4  20
ATOM     20  C   UNL     1      -6.443  12.461  19.672  0.00  0.00    +0.000 C 
ATOM     21  O   UNL     1      -7.087  13.290  19.045  0.00  0.00    +0.000 OA
BRANCH  20  22
ATOM     22  OXT UNL     1      -6.933  11.220  19.890  0.00  0.00    +0.000 OA
ATOM     23  HXT UNL     1      -7.426  11.109  20.714  0.00  0.00    +0.000 HD
ENDBRANCH  20  22
ENDBRANCH   4  20
BRANCH  18  24
ATOM     24  C   UNL     1      -4.404  15.814  22.470  0.00  0.00    +0.000 C 
BRANCH  24  25
ATOM     25  S   UNL     1      -4.743  16.478  20.812  0.00  0.00    +0.000 S 
ATOM     26  H   UNL     1      -3.617  16.029  20.234  0.00  0.00    +0.000 HD
ENDBRANCH  24  25
ENDBRANCH  18  24
TORSDOF 4
ENDMDL
MODEL 9
REMARK VINA RESULT:      -5.8      3.884      4.969
REMARK  Name = 
REMARK  4 active torsions:
REMARK  status: ('A' for Active; 'I' for Inactive)
REMARK    1  A    between atoms: CA_4  and  C_5
REMARK    2  A    between atoms: C_5  and  OXT_7
REMARK    3  A    between atoms: C_21  and  C_22
REMARK    4  A    between atoms: C_22  and  S_23
REMARK                            x       y       z     vdW  Elec       q    Type
REMARK                         _______ _______ _______ _____ _____    ______ ____
ROOT
ATOM      1  O   UNL     1      -1.655  13.760  24.007  0.00  0.00    +0.000 OA
ATOM      2  C   UNL     1      -1.696  13.074  22.982  0.00  0.00    +0.000 C 
ATOM      3  N   UNL     1      -0.721  12.139  22.852  0.00  0.00    +0.000 N 
ATOM      4  CA  UNL     1      -0.658  10.876  22.057  0.00  0.00    +0.000 C 
ATOM      5  C   UNL     1       0.326  11.138  20.907  0.00  0.00    +0.000 C 
ATOM      6  C   UNL     1       0.960  10.273  19.834  0.00  0.00    +0.000 A 
ATOM      7  C   UNL     1       1.090   8.908  20.082  0.00  0.00    +0.000 A 
ATOM      8  C   UNL     1       1.776   8.058  19.215  0.00  0.00    +0.000 A 
ATOM      9  C   UNL     1       2.385   8.566  18.075  0.00  0.00    +0.000 A 
ATOM     10  C   UNL     1       2.261   9.934  17.779  0.00  0.00    +0.000 A 
ATOM     11  C   UNL     1       1.557  10.824  18.631  0.00  0.00    +0.000 A 
ATOM     12  C   UNL     1       1.565  12.322  18.118  0.00  0.00    +0.000 C 
ATOM     13  C   UNL     1       0.694  13.219  18.972  0.00  0.00    +0.000 C 
ATOM     14  C   UNL     1       0.342  14.701  19.029  0.00  0.00    +0.000 C 
ATOM     15  C   UNL     1      -0.394  14.857  20.421  0.00  0.00    +0.000 C 
ATOM     16  C   UNL     1      -1.835  15.374  20.433  0.00  0.00    +0.000 C 
ATOM     17  C   UNL     1      -2.755  14.845  21.588  0.00  0.00    +0.000 C 
ATOM     18  C   UNL     1      -2.736  13.306  21.890  0.00  0.00    +0.000 C 
ATOM     19  H   UNL     1       0.086  12.449  23.377  0.00  0.00    +0.000 HD
ENDROOT
BRANCH   4  20
ATOM     20  C   UNL     1      -0.318   9.708  22.988  0.00  0.00    +0.000 C 
ATOM     21  O   UNL     1       0.552   9.764  23.846  0.00  0.00    +0.000 OA
BRANCH  20  22
ATOM     22  OXT UNL     1      -1.073   8.598  22.838  0.00  0.00    +0.000 OA
ATOM     23  HXT UNL     1      -1.675   8.606  22.081  0.00  0.00    +0.000 HD
ENDBRANCH  20  22
ENDBRANCH   4  20
BRANCH  18  24
ATOM     24  C   UNL     1      -4.045  12.716  22.455  0.00  0.00    +0.000 C 
BRANCH  24  25
ATOM     25  S   UNL     1      -5.424  12.676  21.271  0.00  0.00    +0.000 S 
ATOM     26  H   UNL     1      -5.634  11.350  21.327  0.00  0.00    +0.000 HD
ENDBRANCH  24  25
ENDBRANCH  18  24
TORSDOF 4
ENDMDL
