MODEL 1
REMARK VINA RESULT:      -7.1      0.000      0.000
REMARK  Name = 
REMARK  5 active torsions:
REMARK  status: ('A' for Active; 'I' for Inactive)
REMARK    1  A    between atoms: C_1  and  C_2
REMARK    2  A    between atoms: C_6  and  N_7
REMARK    3  A    between atoms: C_8  and  C_10
REMARK    4  A    between atoms: CA_15  and  C_16
REMARK    5  A    between atoms: C_16  and  O_17
REMARK                            x       y       z     vdW  Elec       q    Type
REMARK                         _______ _______ _______ _____ _____    ______ ____
ROOT
ATOM      1  N   UNL     1       3.802   4.260  17.377  0.00  0.00    +0.000 N 
ATOM      2  C   UNL     1       5.181   4.165  17.515  0.00  0.00    +0.000 C 
ATOM      3  O   UNL     1       5.767   3.905  18.558  0.00  0.00    +0.000 OA
ATOM      4  H   UNL     1       3.467   4.397  16.428  0.00  0.00    +0.000 HD
ENDROOT
BRANCH   1  10
ATOM      5  C   UNL     1       1.336   6.551  21.017  0.00  0.00    +0.000 C 
ATOM      6  C   UNL     1       1.639   5.313  20.225  0.00  0.00    +0.000 A 
ATOM      7  C   UNL     1       0.994   4.112  20.542  0.00  0.00    +0.000 A 
ATOM      8  C   UNL     1       1.273   2.962  19.817  0.00  0.00    +0.000 A 
ATOM      9  C   UNL     1       2.194   3.001  18.771  0.00  0.00    +0.000 A 
ATOM     10  C   UNL     1       2.853   4.185  18.425  0.00  0.00    +0.000 A 
ATOM     11  C   UNL     1       2.572   5.342  19.168  0.00  0.00    +0.000 A 
ENDBRANCH   1  10
BRANCH   2  12
ATOM     12  C   UNL     1       5.980   4.410  16.270  0.00  0.00    +0.000 A 
ATOM     13  N   UNL     1       5.665   3.614  15.200  0.00  0.00    +0.000 NA
ATOM     14  C   UNL     1       6.367   3.868  14.070  0.00  0.00    +0.000 A 
ATOM     15  C   UNL     1       7.315   4.871  13.984  0.00  0.00    +0.000 A 
ATOM     16  N   UNL     1       7.624   5.660  15.033  0.00  0.00    +0.000 NA
ATOM     17  CA  UNL     1       6.955   5.417  16.202  0.00  0.00    +0.000 A 
BRANCH  17  18
ATOM     18  C   UNL     1       7.314   6.316  17.359  0.00  0.00    +0.000 C 
BRANCH  18  19
ATOM     19  O   UNL     1       7.654   7.632  16.932  0.00  0.00    +0.000 OA
ATOM     20  H   UNL     1       8.582   7.564  16.615  0.00  0.00    +0.000 HD
ENDBRANCH  18  19
ENDBRANCH  17  18
ENDBRANCH   2  12
TORSDOF 4
ENDMDL
MODEL 2
REMARK VINA RESULT:      -7.0      0.685      1.610
REMARK  Name = 
REMARK  5 active torsions:
REMARK  status: ('A' for Active; 'I' for Inactive)
REMARK    1  A    between atoms: C_1  and  C_2
REMARK    2  A    between atoms: C_6  and  N_7
REMARK    3  A    between atoms: C_8  and  C_10
REMARK    4  A    between atoms: CA_15  and  C_16
REMARK    5  A    between atoms: C_16  and  O_17
REMARK                            x       y       z     vdW  Elec       q    Type
REMARK                         _______ _______ _______ _____ _____    ______ ____
ROOT
ATOM      1  N   UNL     1       3.966   4.912  17.715  0.00  0.00    +0.000 N 
ATOM      2  C   UNL     1       5.296   4.509  17.736  0.00  0.00    +0.000 C 
ATOM      3  O   UNL     1       5.891   4.102  18.727  0.00  0.00    +0.000 OA
ATOM      4  H   UNL     1       3.595   5.140  16.797  0.00  0.00    +0.000 HD
ENDROOT
BRANCH   1  10
ATOM      5  C   UNL     1       1.348   2.680  21.285  0.00  0.00    +0.000 C 
ATOM      6  C   UNL     1       1.817   3.930  20.598  0.00  0.00    +0.000 A 
ATOM      7  C   UNL     1       1.397   5.178  21.068  0.00  0.00    +0.000 A 
ATOM      8  C   UNL     1       1.822   6.338  20.436  0.00  0.00    +0.000 A 
ATOM      9  C   UNL     1       2.671   6.261  19.332  0.00  0.00    +0.000 A 
ATOM     10  C   UNL     1       3.113   5.030  18.839  0.00  0.00    +0.000 A 
ATOM     11  C   UNL     1       2.672   3.862  19.479  0.00  0.00    +0.000 A 
ENDBRANCH   1  10
BRANCH   2  12
ATOM     12  C   UNL     1       6.025   4.594  16.430  0.00  0.00    +0.000 A 
ATOM     13  N   UNL     1       5.594   3.733  15.455  0.00  0.00    +0.000 NA
ATOM     14  C   UNL     1       6.235   3.843  14.267  0.00  0.00    +0.000 A 
ATOM     15  C   UNL     1       7.235   4.770  14.036  0.00  0.00    +0.000 A 
ATOM     16  N   UNL     1       7.659   5.623  14.991  0.00  0.00    +0.000 NA
ATOM     17  CA  UNL     1       7.054   5.525  16.215  0.00  0.00    +0.000 A 
BRANCH  17  18
ATOM     18  C   UNL     1       7.541   6.492  17.264  0.00  0.00    +0.000 C 
BRANCH  18  19
ATOM     19  O   UNL     1       7.160   7.834  16.977  0.00  0.00    +0.000 OA
ATOM     20  H   UNL     1       7.951   8.239  16.559  0.00  0.00    +0.000 HD
ENDBRANCH  18  19
ENDBRANCH  17  18
ENDBRANCH   2  12
TORSDOF 4
ENDMDL
MODEL 3
REMARK VINA RESULT:      -6.9      1.430      1.462
REMARK  Name = 
REMARK  5 active torsions:
REMARK  status: ('A' for Active; 'I' for Inactive)
REMARK    1  A    between atoms: C_1  and  C_2
REMARK    2  A    between atoms: C_6  and  N_7
REMARK    3  A    between atoms: C_8  and  C_10
REMARK    4  A    between atoms: CA_15  and  C_16
REMARK    5  A    between atoms: C_16  and  O_17
REMARK                            x       y       z     vdW  Elec       q    Type
REMARK                         _______ _______ _______ _____ _____    ______ ____
ROOT
ATOM      1  N   UNL     1       4.094   3.524  17.338  0.00  0.00    +0.000 N 
ATOM      2  C   UNL     1       4.439   4.773  16.835  0.00  0.00    +0.000 C 
ATOM      3  O   UNL     1       3.924   5.833  17.170  0.00  0.00    +0.000 OA
ATOM      4  H   UNL     1       4.673   2.752  17.022  0.00  0.00    +0.000 HD
ENDROOT
BRANCH   1  10
ATOM      5  C   UNL     1       2.363   3.531  21.985  0.00  0.00    +0.000 C 
ATOM      6  C   UNL     1       2.174   3.249  20.522  0.00  0.00    +0.000 A 
ATOM      7  C   UNL     1       0.963   2.715  20.070  0.00  0.00    +0.000 A 
ATOM      8  C   UNL     1       0.782   2.447  18.720  0.00  0.00    +0.000 A 
ATOM      9  C   UNL     1       1.807   2.713  17.812  0.00  0.00    +0.000 A 
ATOM     10  C   UNL     1       3.028   3.251  18.230  0.00  0.00    +0.000 A 
ATOM     11  C   UNL     1       3.206   3.511  19.597  0.00  0.00    +0.000 A 
ENDBRANCH   1  10
BRANCH   2  12
ATOM     12  C   UNL     1       5.525   4.783  15.802  0.00  0.00    +0.000 A 
ATOM     13  N   UNL     1       5.249   4.094  14.649  0.00  0.00    +0.000 NA
ATOM     14  C   UNL     1       6.223   4.139  13.708  0.00  0.00    +0.000 A 
ATOM     15  C   UNL     1       7.399   4.846  13.877  0.00  0.00    +0.000 A 
ATOM     16  N   UNL     1       7.671   5.530  15.007  0.00  0.00    +0.000 NA
ATOM     17  CA  UNL     1       6.724   5.486  15.994  0.00  0.00    +0.000 A 
BRANCH  17  18
ATOM     18  C   UNL     1       7.049   6.262  17.246  0.00  0.00    +0.000 C 
BRANCH  18  19
ATOM     19  O   UNL     1       7.598   7.544  16.957  0.00  0.00    +0.000 OA
ATOM     20  H   UNL     1       8.089   7.425  16.114  0.00  0.00    +0.000 HD
ENDBRANCH  18  19
ENDBRANCH  17  18
ENDBRANCH   2  12
TORSDOF 4
ENDMDL
MODEL 4
REMARK VINA RESULT:      -6.8      1.858      6.631
REMARK  Name = 
REMARK  5 active torsions:
REMARK  status: ('A' for Active; 'I' for Inactive)
REMARK    1  A    between atoms: C_1  and  C_2
REMARK    2  A    between atoms: C_6  and  N_7
REMARK    3  A    between atoms: C_8  and  C_10
REMARK    4  A    between atoms: CA_15  and  C_16
REMARK    5  A    between atoms: C_16  and  O_17
REMARK                            x       y       z     vdW  Elec       q    Type
REMARK                         _______ _______ _______ _____ _____    ______ ____
ROOT
ATOM      1  N   UNL     1       4.403   4.499  17.204  0.00  0.00    +0.000 N 
ATOM      2  C   UNL     1       4.659   4.052  18.495  0.00  0.00    +0.000 C 
ATOM      3  O   UNL     1       5.773   3.837  18.957  0.00  0.00    +0.000 OA
ATOM      4  H   UNL     1       3.431   4.712  17.001  0.00  0.00    +0.000 HD
ENDROOT
BRANCH   1  10
ATOM      5  C   UNL     1       5.934   3.398  12.618  0.00  0.00    +0.000 C 
ATOM      6  C   UNL     1       6.123   4.126  13.917  0.00  0.00    +0.000 A 
ATOM      7  C   UNL     1       7.240   4.949  14.095  0.00  0.00    +0.000 A 
ATOM      8  C   UNL     1       7.424   5.622  15.294  0.00  0.00    +0.000 A 
ATOM      9  C   UNL     1       6.494   5.483  16.323  0.00  0.00    +0.000 A 
ATOM     10  C   UNL     1       5.363   4.673  16.178  0.00  0.00    +0.000 A 
ATOM     11  C   UNL     1       5.189   3.989  14.965  0.00  0.00    +0.000 A 
ENDBRANCH   1  10
BRANCH   2  12
ATOM     12  C   UNL     1       3.454   3.823  19.357  0.00  0.00    +0.000 A 
ATOM     13  N   UNL     1       3.101   4.871  20.167  0.00  0.00    +0.000 NA
ATOM     14  C   UNL     1       1.990   4.668  20.915  0.00  0.00    +0.000 A 
ATOM     15  C   UNL     1       1.245   3.504  20.855  0.00  0.00    +0.000 A 
ATOM     16  N   UNL     1       1.587   2.473  20.054  0.00  0.00    +0.000 NA
ATOM     17  CA  UNL     1       2.719   2.629  19.302  0.00  0.00    +0.000 A 
BRANCH  17  18
ATOM     18  C   UNL     1       3.077   1.465  18.412  0.00  0.00    +0.000 C 
BRANCH  18  19
ATOM     19  O   UNL     1       4.325   0.877  18.771  0.00  0.00    +0.000 OA
ATOM     20  H   UNL     1       4.166   0.461  19.647  0.00  0.00    +0.000 HD
ENDBRANCH  18  19
ENDBRANCH  17  18
ENDBRANCH   2  12
TORSDOF 4
ENDMDL
MODEL 5
REMARK VINA RESULT:      -6.5      1.942      6.475
REMARK  Name = 
REMARK  5 active torsions:
REMARK  status: ('A' for Active; 'I' for Inactive)
REMARK    1  A    between atoms: C_1  and  C_2
REMARK    2  A    between atoms: C_6  and  N_7
REMARK    3  A    between atoms: C_8  and  C_10
REMARK    4  A    between atoms: CA_15  and  C_16
REMARK    5  A    between atoms: C_16  and  O_17
REMARK                            x       y       z     vdW  Elec       q    Type
REMARK                         _______ _______ _______ _____ _____    ______ ____
ROOT
ATOM      1  N   UNL     1       5.237   4.532  15.635  0.00  0.00    +0.000 N 
ATOM      2  C   UNL     1       4.929   5.733  16.263  0.00  0.00    +0.000 C 
ATOM      3  O   UNL     1       5.122   6.845  15.786  0.00  0.00    +0.000 OA
ATOM      4  H   UNL     1       4.936   3.695  16.124  0.00  0.00    +0.000 HD
ENDROOT
BRANCH   1  10
ATOM      5  C   UNL     1       5.573   2.286  11.228  0.00  0.00    +0.000 C 
ATOM      6  C   UNL     1       6.090   3.276  12.230  0.00  0.00    +0.000 A 
ATOM      7  C   UNL     1       7.234   4.025  11.937  0.00  0.00    +0.000 A 
ATOM      8  C   UNL     1       7.721   4.940  12.860  0.00  0.00    +0.000 A 
ATOM      9  C   UNL     1       7.069   5.116  14.080  0.00  0.00    +0.000 A 
ATOM     10  C   UNL     1       5.920   4.388  14.402  0.00  0.00    +0.000 A 
ATOM     11  C   UNL     1       5.439   3.459  13.467  0.00  0.00    +0.000 A 
ENDBRANCH   1  10
BRANCH   2  12
ATOM     12  C   UNL     1       4.319   5.619  17.627  0.00  0.00    +0.000 A 
ATOM     13  N   UNL     1       2.951   5.676  17.668  0.00  0.00    +0.000 NA
ATOM     14  C   UNL     1       2.407   5.536  18.901  0.00  0.00    +0.000 A 
ATOM     15  C   UNL     1       3.167   5.324  20.037  0.00  0.00    +0.000 A 
ATOM     16  N   UNL     1       4.514   5.261  19.999  0.00  0.00    +0.000 NA
ATOM     17  CA  UNL     1       5.103   5.425  18.775  0.00  0.00    +0.000 A 
BRANCH  17  18
ATOM     18  C   UNL     1       6.609   5.346  18.758  0.00  0.00    +0.000 C 
BRANCH  18  19
ATOM     19  O   UNL     1       7.077   4.125  18.192  0.00  0.00    +0.000 OA
ATOM     20  H   UNL     1       8.001   4.036  18.511  0.00  0.00    +0.000 HD
ENDBRANCH  18  19
ENDBRANCH  17  18
ENDBRANCH   2  12
TORSDOF 4
ENDMDL
MODEL 6
REMARK VINA RESULT:      -6.5      1.992      6.565
REMARK  Name = 
REMARK  5 active torsions:
REMARK  status: ('A' for Active; 'I' for Inactive)
REMARK    1  A    between atoms: C_1  and  C_2
REMARK    2  A    between atoms: C_6  and  N_7
REMARK    3  A    between atoms: C_8  and  C_10
REMARK    4  A    between atoms: CA_15  and  C_16
REMARK    5  A    between atoms: C_16  and  O_17
REMARK                            x       y       z     vdW  Elec       q    Type
REMARK                         _______ _______ _______ _____ _____    ______ ____
ROOT
ATOM      1  N   UNL     1       4.324   3.890  17.466  0.00  0.00    +0.000 N 
ATOM      2  C   UNL     1       3.937   4.716  18.515  0.00  0.00    +0.000 C 
ATOM      3  O   UNL     1       4.317   5.870  18.678  0.00  0.00    +0.000 OA
ATOM      4  H   UNL     1       3.853   2.991  17.424  0.00  0.00    +0.000 HD
ENDROOT
BRANCH   1  10
ATOM      5  C   UNL     1       5.785   3.597  12.737  0.00  0.00    +0.000 C 
ATOM      6  C   UNL     1       6.021   4.045  14.150  0.00  0.00    +0.000 A 
ATOM      7  C   UNL     1       7.194   4.738  14.471  0.00  0.00    +0.000 A 
ATOM      8  C   UNL     1       7.421   5.151  15.777  0.00  0.00    +0.000 A 
ATOM      9  C   UNL     1       6.481   4.879  16.770  0.00  0.00    +0.000 A 
ATOM     10  C   UNL     1       5.297   4.193  16.482  0.00  0.00    +0.000 A 
ATOM     11  C   UNL     1       5.078   3.772  15.162  0.00  0.00    +0.000 A 
ENDBRANCH   1  10
BRANCH   2  12
ATOM     12  C   UNL     1       2.984   4.115  19.502  0.00  0.00    +0.000 A 
ATOM     13  N   UNL     1       1.784   4.763  19.635  0.00  0.00    +0.000 NA
ATOM     14  C   UNL     1       0.916   4.190  20.503  0.00  0.00    +0.000 A 
ATOM     15  C   UNL     1       1.199   3.024  21.190  0.00  0.00    +0.000 A 
ATOM     16  N   UNL     1       2.377   2.380  21.058  0.00  0.00    +0.000 NA
ATOM     17  CA  UNL     1       3.292   2.942  20.210  0.00  0.00    +0.000 A 
BRANCH  17  18
ATOM     18  C   UNL     1       4.599   2.201  20.075  0.00  0.00    +0.000 C 
BRANCH  18  19
ATOM     19  O   UNL     1       4.553   1.211  19.052  0.00  0.00    +0.000 OA
ATOM     20  H   UNL     1       4.445   1.715  18.216  0.00  0.00    +0.000 HD
ENDBRANCH  18  19
ENDBRANCH  17  18
ENDBRANCH   2  12
TORSDOF 4
ENDMDL
MODEL 7
REMARK VINA RESULT:      -6.5      1.261      1.963
REMARK  Name = 
REMARK  5 active torsions:
REMARK  status: ('A' for Active; 'I' for Inactive)
REMARK    1  A    between atoms: C_1  and  C_2
REMARK    2  A    between atoms: C_6  and  N_7
REMARK    3  A    between atoms: C_8  and  C_10
REMARK    4  A    between atoms: CA_15  and  C_16
REMARK    5  A    between atoms: C_16  and  O_17
REMARK                            x       y       z     vdW  Elec       q    Type
REMARK                         _______ _______ _______ _____ _____    ______ ____
ROOT
ATOM      1  N   UNL     1       3.955   5.240  17.328  0.00  0.00    +0.000 N 
ATOM      2  C   UNL     1       4.684   4.124  16.936  0.00  0.00    +0.000 C 
ATOM      3  O   UNL     1       4.619   3.020  17.465  0.00  0.00    +0.000 OA
ATOM      4  H   UNL     1       4.057   6.057  16.734  0.00  0.00    +0.000 HD
ENDROOT
BRANCH   1  10
ATOM      5  C   UNL     1       1.006   2.940  20.583  0.00  0.00    +0.000 C 
ATOM      6  C   UNL     1       1.648   4.193  20.063  0.00  0.00    +0.000 A 
ATOM      7  C   UNL     1       1.390   5.416  20.691  0.00  0.00    +0.000 A 
ATOM      8  C   UNL     1       1.977   6.580  20.213  0.00  0.00    +0.000 A 
ATOM      9  C   UNL     1       2.825   6.532  19.108  0.00  0.00    +0.000 A 
ATOM     10  C   UNL     1       3.107   5.326  18.459  0.00  0.00    +0.000 A 
ATOM     11  C   UNL     1       2.504   4.155  18.943  0.00  0.00    +0.000 A 
ENDBRANCH   1  10
BRANCH   2  12
ATOM     12  C   UNL     1       5.613   4.325  15.777  0.00  0.00    +0.000 A 
ATOM     13  N   UNL     1       5.085   4.050  14.543  0.00  0.00    +0.000 NA
ATOM     14  C   UNL     1       5.921   4.269  13.499  0.00  0.00    +0.000 A 
ATOM     15  C   UNL     1       7.204   4.759  13.655  0.00  0.00    +0.000 A 
ATOM     16  N   UNL     1       7.725   5.037  14.868  0.00  0.00    +0.000 NA
ATOM     17  CA  UNL     1       6.921   4.802  15.950  0.00  0.00    +0.000 A 
BRANCH  17  18
ATOM     18  C   UNL     1       7.525   5.125  17.294  0.00  0.00    +0.000 C 
BRANCH  18  19
ATOM     19  O   UNL     1       8.325   4.057  17.794  0.00  0.00    +0.000 OA
ATOM     20  H   UNL     1       9.014   3.914  17.108  0.00  0.00    +0.000 HD
ENDBRANCH  18  19
ENDBRANCH  17  18
ENDBRANCH   2  12
TORSDOF 4
ENDMDL
MODEL 8
REMARK VINA RESULT:      -6.5      2.165      2.852
REMARK  Name = 
REMARK  5 active torsions:
REMARK  status: ('A' for Active; 'I' for Inactive)
REMARK    1  A    between atoms: C_1  and  C_2
REMARK    2  A    between atoms: C_6  and  N_7
REMARK    3  A    between atoms: C_8  and  C_10
REMARK    4  A    between atoms: CA_15  and  C_16
REMARK    5  A    between atoms: C_16  and  O_17
REMARK                            x       y       z     vdW  Elec       q    Type
REMARK                         _______ _______ _______ _____ _____    ______ ____
ROOT
ATOM      1  N   UNL     1       3.578   6.694  17.692  0.00  0.00    +0.000 N 
ATOM      2  C   UNL     1       4.657   5.893  18.047  0.00  0.00    +0.000 C 
ATOM      3  O   UNL     1       4.949   5.574  19.193  0.00  0.00    +0.000 OA
ATOM      4  H   UNL     1       3.421   6.795  16.694  0.00  0.00    +0.000 HD
ENDROOT
BRANCH   1  10
ATOM      5  C   UNL     1       0.745  10.642  18.676  0.00  0.00    +0.000 C 
ATOM      6  C   UNL     1       1.313   9.311  19.076  0.00  0.00    +0.000 A 
ATOM      7  C   UNL     1       0.983   8.763  20.320  0.00  0.00    +0.000 A 
ATOM      8  C   UNL     1       1.508   7.535  20.699  0.00  0.00    +0.000 A 
ATOM      9  C   UNL     1       2.361   6.845  19.839  0.00  0.00    +0.000 A 
ATOM     10  C   UNL     1       2.707   7.361  18.587  0.00  0.00    +0.000 A 
ATOM     11  C   UNL     1       2.179   8.607  18.215  0.00  0.00    +0.000 A 
ENDBRANCH   1  10
BRANCH   2  12
ATOM     12  C   UNL     1       5.509   5.406  16.914  0.00  0.00    +0.000 A 
ATOM     13  N   UNL     1       4.961   4.408  16.151  0.00  0.00    +0.000 NA
ATOM     14  C   UNL     1       5.723   3.999  15.108  0.00  0.00    +0.000 A 
ATOM     15  C   UNL     1       6.952   4.560  14.811  0.00  0.00    +0.000 A 
ATOM     16  N   UNL     1       7.491   5.547  15.556  0.00  0.00    +0.000 NA
ATOM     17  CA  UNL     1       6.764   5.968  16.635  0.00  0.00    +0.000 A 
BRANCH  17  18
ATOM     18  C   UNL     1       7.386   7.075  17.449  0.00  0.00    +0.000 C 
BRANCH  18  19
ATOM     19  O   UNL     1       7.949   6.596  18.667  0.00  0.00    +0.000 OA
ATOM     20  H   UNL     1       7.709   7.271  19.340  0.00  0.00    +0.000 HD
ENDBRANCH  18  19
ENDBRANCH  17  18
ENDBRANCH   2  12
TORSDOF 4
ENDMDL
MODEL 9
REMARK VINA RESULT:      -6.5      1.878      6.363
REMARK  Name = 
REMARK  5 active torsions:
REMARK  status: ('A' for Active; 'I' for Inactive)
REMARK    1  A    between atoms: C_1  and  C_2
REMARK    2  A    between atoms: C_6  and  N_7
REMARK    3  A    between atoms: C_8  and  C_10
REMARK    4  A    between atoms: CA_15  and  C_16
REMARK    5  A    between atoms: C_16  and  O_17
REMARK                            x       y       z     vdW  Elec       q    Type
REMARK                         _______ _______ _______ _____ _____    ______ ____
ROOT
ATOM      1  N   UNL     1       4.264   4.468  17.199  0.00  0.00    +0.000 N 
ATOM      2  C   UNL     1       4.466   4.064  18.513  0.00  0.00    +0.000 C 
ATOM      3  O   UNL     1       5.561   3.870  19.029  0.00  0.00    +0.000 OA
ATOM      4  H   UNL     1       3.301   4.669  16.948  0.00  0.00    +0.000 HD
ENDROOT
BRANCH   1  10
ATOM      5  C   UNL     1       5.884   3.406  12.634  0.00  0.00    +0.000 C 
ATOM      6  C   UNL     1       6.069   4.087  13.959  0.00  0.00    +0.000 A 
ATOM      7  C   UNL     1       7.225   4.839  14.196  0.00  0.00    +0.000 A 
ATOM      8  C   UNL     1       7.406   5.468  15.420  0.00  0.00    +0.000 A 
ATOM      9  C   UNL     1       6.435   5.354  16.414  0.00  0.00    +0.000 A 
ATOM     10  C   UNL     1       5.267   4.614  16.209  0.00  0.00    +0.000 A 
ATOM     11  C   UNL     1       5.095   3.975  14.972  0.00  0.00    +0.000 A 
ENDBRANCH   1  10
BRANCH   2  12
ATOM     12  C   UNL     1       3.227   3.857  19.330  0.00  0.00    +0.000 A 
ATOM     13  N   UNL     1       2.927   2.553  19.627  0.00  0.00    +0.000 NA
ATOM     14  C   UNL     1       1.825   2.378  20.396  0.00  0.00    +0.000 A 
ATOM     15  C   UNL     1       1.067   3.432  20.873  0.00  0.00    +0.000 A 
ATOM     16  N   UNL     1       1.363   4.717  20.587  0.00  0.00    +0.000 NA
ATOM     17  CA  UNL     1       2.454   4.934  19.790  0.00  0.00    +0.000 A 
BRANCH  17  18
ATOM     18  C   UNL     1       2.766   6.378  19.489  0.00  0.00    +0.000 C 
BRANCH  18  19
ATOM     19  O   UNL     1       2.352   6.757  18.180  0.00  0.00    +0.000 OA
ATOM     20  H   UNL     1       3.077   7.325  17.838  0.00  0.00    +0.000 HD
ENDBRANCH  18  19
ENDBRANCH  17  18
ENDBRANCH   2  12
TORSDOF 4
ENDMDL
