MODEL 1
REMARK VINA RESULT:      -7.4      0.000      0.000
REMARK  Name = 
REMARK  3 active torsions:
REMARK  status: ('A' for Active; 'I' for Inactive)
REMARK    1  A    between atoms: O_1  and  C_2
REMARK    2  A    between atoms: C_6  and  C_7
REMARK    3  A    between atoms: C_11  and  O_12
REMARK                            x       y       z     vdW  Elec       q    Type
REMARK                         _______ _______ _______ _____ _____    ______ ____
ROOT
ATOM      1  C   UNL     1       3.654   4.784  17.573  0.00  0.00    +0.000 A 
ATOM      2  C   UNL     1       3.512   5.268  18.859  0.00  0.00    +0.000 A 
ATOM      3  C   UNL     1       2.646   4.373  19.506  0.00  0.00    +0.000 A 
ATOM      4  C   UNL     1       2.383   4.077  20.849  0.00  0.00    +0.000 A 
ATOM      5  C   UNL     1       1.459   3.070  21.114  0.00  0.00    +0.000 A 
ATOM      6  C   UNL     1       0.718   2.468  20.102  0.00  0.00    +0.000 A 
ATOM      7  C   UNL     1       0.993   2.737  18.751  0.00  0.00    +0.000 A 
ATOM      8  C   UNL     1       2.026   3.640  18.503  0.00  0.00    +0.000 A 
ATOM      9  O   UNL     1       2.649   3.889  17.304  0.00  0.00    +0.000 OA
ENDROOT
BRANCH   1  14
ATOM     10  C   UNL     1       6.916   5.992  16.218  0.00  0.00    +0.000 A 
ATOM     11  C   UNL     1       7.202   5.069  15.222  0.00  0.00    +0.000 A 
ATOM     12  C   UNL     1       6.258   4.089  14.917  0.00  0.00    +0.000 A 
ATOM     13  C   UNL     1       5.048   4.011  15.624  0.00  0.00    +0.000 A 
ATOM     14  C   UNL     1       4.767   4.931  16.639  0.00  0.00    +0.000 A 
ATOM     15  C   UNL     1       5.713   5.941  16.902  0.00  0.00    +0.000 A 
BRANCH  10  16
ATOM     16  O   UNL     1       7.802   6.956  16.594  0.00  0.00    +0.000 OA
ATOM     17  H   UNL     1       7.444   7.429  17.360  0.00  0.00    +0.000 HD
ENDBRANCH  10  16
ENDBRANCH   1  14
BRANCH   5  18
ATOM     18  O   UNL     1       1.303   2.612  22.389  0.00  0.00    +0.000 OA
ATOM     19  H   UNL     1       2.128   2.161  22.641  0.00  0.00    +0.000 HD
ENDBRANCH   5  18
TORSDOF 3
ENDMDL
MODEL 2
REMARK VINA RESULT:      -7.3      2.188      2.707
REMARK  Name = 
REMARK  3 active torsions:
REMARK  status: ('A' for Active; 'I' for Inactive)
REMARK    1  A    between atoms: O_1  and  C_2
REMARK    2  A    between atoms: C_6  and  C_7
REMARK    3  A    between atoms: C_11  and  O_12
REMARK                            x       y       z     vdW  Elec       q    Type
REMARK                         _______ _______ _______ _____ _____    ______ ____
ROOT
ATOM      1  C   UNL     1       4.509   5.137  17.844  0.00  0.00    +0.000 A 
ATOM      2  C   UNL     1       3.182   5.509  17.933  0.00  0.00    +0.000 A 
ATOM      3  C   UNL     1       2.476   4.328  18.207  0.00  0.00    +0.000 A 
ATOM      4  C   UNL     1       1.216   4.054  18.750  0.00  0.00    +0.000 A 
ATOM      5  C   UNL     1       0.864   2.717  18.910  0.00  0.00    +0.000 A 
ATOM      6  C   UNL     1       1.662   1.684  18.431  0.00  0.00    +0.000 A 
ATOM      7  C   UNL     1       2.940   1.945  17.910  0.00  0.00    +0.000 A 
ATOM      8  C   UNL     1       3.335   3.282  17.894  0.00  0.00    +0.000 A 
ATOM      9  O   UNL     1       4.597   3.778  17.671  0.00  0.00    +0.000 OA
ENDROOT
BRANCH   1  14
ATOM     10  C   UNL     1       7.865   5.978  19.250  0.00  0.00    +0.000 A 
ATOM     11  C   UNL     1       8.290   7.021  18.439  0.00  0.00    +0.000 A 
ATOM     12  C   UNL     1       7.419   7.528  17.476  0.00  0.00    +0.000 A 
ATOM     13  C   UNL     1       6.140   6.978  17.302  0.00  0.00    +0.000 A 
ATOM     14  C   UNL     1       5.717   5.917  18.109  0.00  0.00    +0.000 A 
ATOM     15  C   UNL     1       6.594   5.447  19.105  0.00  0.00    +0.000 A 
BRANCH  10  16
ATOM     16  O   UNL     1       8.671   5.409  20.189  0.00  0.00    +0.000 OA
ATOM     17  H   UNL     1       9.564   5.770  20.095  0.00  0.00    +0.000 HD
ENDBRANCH  10  16
ENDBRANCH   1  14
BRANCH   5  18
ATOM     18  O   UNL     1      -0.266   2.392  19.603  0.00  0.00    +0.000 OA
ATOM     19  H   UNL     1      -0.048   2.428  20.551  0.00  0.00    +0.000 HD
ENDBRANCH   5  18
TORSDOF 3
ENDMDL
MODEL 3
REMARK VINA RESULT:      -7.3      1.053      1.094
REMARK  Name = 
REMARK  3 active torsions:
REMARK  status: ('A' for Active; 'I' for Inactive)
REMARK    1  A    between atoms: O_1  and  C_2
REMARK    2  A    between atoms: C_6  and  C_7
REMARK    3  A    between atoms: C_11  and  O_12
REMARK                            x       y       z     vdW  Elec       q    Type
REMARK                         _______ _______ _______ _____ _____    ______ ____
ROOT
ATOM      1  C   UNL     1       3.806   4.950  18.024  0.00  0.00    +0.000 A 
ATOM      2  C   UNL     1       3.613   5.339  19.335  0.00  0.00    +0.000 A 
ATOM      3  C   UNL     1       2.669   4.443  19.860  0.00  0.00    +0.000 A 
ATOM      4  C   UNL     1       2.313   4.057  21.158  0.00  0.00    +0.000 A 
ATOM      5  C   UNL     1       1.328   3.083  21.289  0.00  0.00    +0.000 A 
ATOM      6  C   UNL     1       0.619   2.602  20.194  0.00  0.00    +0.000 A 
ATOM      7  C   UNL     1       0.984   2.961  18.886  0.00  0.00    +0.000 A 
ATOM      8  C   UNL     1       2.073   3.825  18.768  0.00  0.00    +0.000 A 
ATOM      9  O   UNL     1       2.775   4.134  17.629  0.00  0.00    +0.000 OA
ENDROOT
BRANCH   1  14
ATOM     10  C   UNL     1       7.323   4.554  16.836  0.00  0.00    +0.000 A 
ATOM     11  C   UNL     1       7.244   4.919  15.499  0.00  0.00    +0.000 A 
ATOM     12  C   UNL     1       6.035   5.403  15.000  0.00  0.00    +0.000 A 
ATOM     13  C   UNL     1       4.902   5.493  15.823  0.00  0.00    +0.000 A 
ATOM     14  C   UNL     1       4.978   5.111  17.166  0.00  0.00    +0.000 A 
ATOM     15  C   UNL     1       6.218   4.667  17.663  0.00  0.00    +0.000 A 
BRANCH  10  16
ATOM     16  O   UNL     1       8.460   4.043  17.386  0.00  0.00    +0.000 OA
ATOM     17  H   UNL     1       9.108   3.894  16.682  0.00  0.00    +0.000 HD
ENDBRANCH  10  16
ENDBRANCH   1  14
BRANCH   5  18
ATOM     18  O   UNL     1       1.075   2.536  22.513  0.00  0.00    +0.000 OA
ATOM     19  H   UNL     1       1.683   2.951  23.151  0.00  0.00    +0.000 HD
ENDBRANCH   5  18
TORSDOF 3
ENDMDL
MODEL 4
REMARK VINA RESULT:      -7.2      1.660      6.562
REMARK  Name = 
REMARK  3 active torsions:
REMARK  status: ('A' for Active; 'I' for Inactive)
REMARK    1  A    between atoms: O_1  and  C_2
REMARK    2  A    between atoms: C_6  and  C_7
REMARK    3  A    between atoms: C_11  and  O_12
REMARK                            x       y       z     vdW  Elec       q    Type
REMARK                         _______ _______ _______ _____ _____    ______ ____
ROOT
ATOM      1  C   UNL     1       3.923   4.975  18.593  0.00  0.00    +0.000 A 
ATOM      2  C   UNL     1       3.857   5.737  17.443  0.00  0.00    +0.000 A 
ATOM      3  C   UNL     1       5.053   5.483  16.754  0.00  0.00    +0.000 A 
ATOM      4  C   UNL     1       5.455   5.633  15.422  0.00  0.00    +0.000 A 
ATOM      5  C   UNL     1       6.745   5.226  15.092  0.00  0.00    +0.000 A 
ATOM      6  C   UNL     1       7.655   4.814  16.060  0.00  0.00    +0.000 A 
ATOM      7  C   UNL     1       7.255   4.633  17.394  0.00  0.00    +0.000 A 
ATOM      8  C   UNL     1       5.916   4.905  17.675  0.00  0.00    +0.000 A 
ATOM      9  O   UNL     1       5.220   4.586  18.816  0.00  0.00    +0.000 OA
ENDROOT
BRANCH   1  14
ATOM     10  C   UNL     1       0.977   2.846  19.450  0.00  0.00    +0.000 A 
ATOM     11  C   UNL     1       0.970   2.866  20.838  0.00  0.00    +0.000 A 
ATOM     12  C   UNL     1       1.887   3.676  21.507  0.00  0.00    +0.000 A 
ATOM     13  C   UNL     1       2.827   4.438  20.796  0.00  0.00    +0.000 A 
ATOM     14  C   UNL     1       2.843   4.406  19.398  0.00  0.00    +0.000 A 
ATOM     15  C   UNL     1       1.881   3.617  18.738  0.00  0.00    +0.000 A 
BRANCH  10  16
ATOM     16  O   UNL     1       0.135   2.055  18.728  0.00  0.00    +0.000 OA
ATOM     17  H   UNL     1       0.660   1.491  18.143  0.00  0.00    +0.000 HD
ENDBRANCH  10  16
ENDBRANCH   1  14
BRANCH   5  18
ATOM     18  O   UNL     1       7.126   5.173  13.783  0.00  0.00    +0.000 OA
ATOM     19  H   UNL     1       6.746   4.362  13.401  0.00  0.00    +0.000 HD
ENDBRANCH   5  18
TORSDOF 3
ENDMDL
MODEL 5
REMARK VINA RESULT:      -7.2      1.692      6.260
REMARK  Name = 
REMARK  3 active torsions:
REMARK  status: ('A' for Active; 'I' for Inactive)
REMARK    1  A    between atoms: O_1  and  C_2
REMARK    2  A    between atoms: C_6  and  C_7
REMARK    3  A    between atoms: C_11  and  O_12
REMARK                            x       y       z     vdW  Elec       q    Type
REMARK                         _______ _______ _______ _____ _____    ______ ____
ROOT
ATOM      1  C   UNL     1       4.401   4.121  18.429  0.00  0.00    +0.000 A 
ATOM      2  C   UNL     1       5.677   4.011  18.946  0.00  0.00    +0.000 A 
ATOM      3  C   UNL     1       6.340   5.189  18.570  0.00  0.00    +0.000 A 
ATOM      4  C   UNL     1       7.476   5.856  19.042  0.00  0.00    +0.000 A 
ATOM      5  C   UNL     1       7.817   7.056  18.424  0.00  0.00    +0.000 A 
ATOM      6  C   UNL     1       7.150   7.516  17.294  0.00  0.00    +0.000 A 
ATOM      7  C   UNL     1       5.994   6.870  16.828  0.00  0.00    +0.000 A 
ATOM      8  C   UNL     1       5.581   5.752  17.553  0.00  0.00    +0.000 A 
ATOM      9  O   UNL     1       4.377   5.096  17.463  0.00  0.00    +0.000 OA
ENDROOT
BRANCH   1  14
ATOM     10  C   UNL     1       1.793   2.972  20.842  0.00  0.00    +0.000 A 
ATOM     11  C   UNL     1       0.666   2.837  20.042  0.00  0.00    +0.000 A 
ATOM     12  C   UNL     1       0.786   3.028  18.666  0.00  0.00    +0.000 A 
ATOM     13  C   UNL     1       2.017   3.382  18.094  0.00  0.00    +0.000 A 
ATOM     14  C   UNL     1       3.149   3.532  18.901  0.00  0.00    +0.000 A 
ATOM     15  C   UNL     1       3.019   3.292  20.282  0.00  0.00    +0.000 A 
BRANCH  10  16
ATOM     16  O   UNL     1       1.747   2.834  22.196  0.00  0.00    +0.000 OA
ATOM     17  H   UNL     1       2.556   3.205  22.576  0.00  0.00    +0.000 HD
ENDBRANCH  10  16
ENDBRANCH   1  14
BRANCH   5  18
ATOM     18  O   UNL     1       8.797   7.840  18.960  0.00  0.00    +0.000 OA
ATOM     19  H   UNL     1       8.365   8.624  19.344  0.00  0.00    +0.000 HD
ENDBRANCH   5  18
TORSDOF 3
ENDMDL
MODEL 6
REMARK VINA RESULT:      -7.0      1.234      1.695
REMARK  Name = 
REMARK  3 active torsions:
REMARK  status: ('A' for Active; 'I' for Inactive)
REMARK    1  A    between atoms: O_1  and  C_2
REMARK    2  A    between atoms: C_6  and  C_7
REMARK    3  A    between atoms: C_11  and  O_12
REMARK                            x       y       z     vdW  Elec       q    Type
REMARK                         _______ _______ _______ _____ _____    ______ ____
ROOT
ATOM      1  C   UNL     1       4.088   4.738  17.884  0.00  0.00    +0.000 A 
ATOM      2  C   UNL     1       3.927   5.135  19.197  0.00  0.00    +0.000 A 
ATOM      3  C   UNL     1       2.908   4.321  19.715  0.00  0.00    +0.000 A 
ATOM      4  C   UNL     1       2.517   3.960  21.009  0.00  0.00    +0.000 A 
ATOM      5  C   UNL     1       1.451   3.073  21.134  0.00  0.00    +0.000 A 
ATOM      6  C   UNL     1       0.706   2.662  20.034  0.00  0.00    +0.000 A 
ATOM      7  C   UNL     1       1.104   2.995  18.729  0.00  0.00    +0.000 A 
ATOM      8  C   UNL     1       2.264   3.762  18.618  0.00  0.00    +0.000 A 
ATOM      9  O   UNL     1       2.993   4.016  17.482  0.00  0.00    +0.000 OA
ENDROOT
BRANCH   1  14
ATOM     10  C   UNL     1       6.276   4.109  14.924  0.00  0.00    +0.000 A 
ATOM     11  C   UNL     1       7.239   5.103  15.031  0.00  0.00    +0.000 A 
ATOM     12  C   UNL     1       7.233   5.934  16.151  0.00  0.00    +0.000 A 
ATOM     13  C   UNL     1       6.251   5.794  17.144  0.00  0.00    +0.000 A 
ATOM     14  C   UNL     1       5.272   4.803  17.029  0.00  0.00    +0.000 A 
ATOM     15  C   UNL     1       5.321   3.945  15.913  0.00  0.00    +0.000 A 
BRANCH  10  16
ATOM     16  O   UNL     1       6.198   3.282  13.844  0.00  0.00    +0.000 OA
ATOM     17  H   UNL     1       6.543   3.747  13.068  0.00  0.00    +0.000 HD
ENDBRANCH  10  16
ENDBRANCH   1  14
BRANCH   5  18
ATOM     18  O   UNL     1       1.150   2.543  22.354  0.00  0.00    +0.000 OA
ATOM     19  H   UNL     1       0.884   3.278  22.934  0.00  0.00    +0.000 HD
ENDBRANCH   5  18
TORSDOF 3
ENDMDL
MODEL 7
REMARK VINA RESULT:      -7.0      3.667      5.227
REMARK  Name = 
REMARK  3 active torsions:
REMARK  status: ('A' for Active; 'I' for Inactive)
REMARK    1  A    between atoms: O_1  and  C_2
REMARK    2  A    between atoms: C_6  and  C_7
REMARK    3  A    between atoms: C_11  and  O_12
REMARK                            x       y       z     vdW  Elec       q    Type
REMARK                         _______ _______ _______ _____ _____    ______ ____
ROOT
ATOM      1  C   UNL     1       2.899   5.988  18.946  0.00  0.00    +0.000 A 
ATOM      2  C   UNL     1       2.529   6.569  20.143  0.00  0.00    +0.000 A 
ATOM      3  C   UNL     1       1.908   7.780  19.799  0.00  0.00    +0.000 A 
ATOM      4  C   UNL     1       1.025   8.640  20.462  0.00  0.00    +0.000 A 
ATOM      5  C   UNL     1       0.581   9.761  19.767  0.00  0.00    +0.000 A 
ATOM      6  C   UNL     1       1.089  10.100  18.517  0.00  0.00    +0.000 A 
ATOM      7  C   UNL     1       1.954   9.232  17.832  0.00  0.00    +0.000 A 
ATOM      8  C   UNL     1       2.271   8.040  18.484  0.00  0.00    +0.000 A 
ATOM      9  O   UNL     1       2.882   6.932  17.950  0.00  0.00    +0.000 OA
ENDROOT
BRANCH   1  14
ATOM     10  C   UNL     1       4.128   2.473  19.229  0.00  0.00    +0.000 A 
ATOM     11  C   UNL     1       3.243   1.768  18.424  0.00  0.00    +0.000 A 
ATOM     12  C   UNL     1       2.287   2.470  17.693  0.00  0.00    +0.000 A 
ATOM     13  C   UNL     1       2.192   3.867  17.787  0.00  0.00    +0.000 A 
ATOM     14  C   UNL     1       3.073   4.576  18.609  0.00  0.00    +0.000 A 
ATOM     15  C   UNL     1       4.061   3.855  19.306  0.00  0.00    +0.000 A 
BRANCH  10  16
ATOM     16  O   UNL     1       5.066   1.854  19.998  0.00  0.00    +0.000 OA
ATOM     17  H   UNL     1       5.234   0.972  19.637  0.00  0.00    +0.000 HD
ENDBRANCH  10  16
ENDBRANCH   1  14
BRANCH   5  18
ATOM     18  O   UNL     1      -0.419  10.530  20.288  0.00  0.00    +0.000 OA
ATOM     19  H   UNL     1      -1.224  10.353  19.769  0.00  0.00    +0.000 HD
ENDBRANCH   5  18
TORSDOF 3
ENDMDL
MODEL 8
REMARK VINA RESULT:      -7.0      1.504      6.547
REMARK  Name = 
REMARK  3 active torsions:
REMARK  status: ('A' for Active; 'I' for Inactive)
REMARK    1  A    between atoms: O_1  and  C_2
REMARK    2  A    between atoms: C_6  and  C_7
REMARK    3  A    between atoms: C_11  and  O_12
REMARK                            x       y       z     vdW  Elec       q    Type
REMARK                         _______ _______ _______ _____ _____    ______ ____
ROOT
ATOM      1  C   UNL     1       4.281   4.076  17.720  0.00  0.00    +0.000 A 
ATOM      2  C   UNL     1       5.624   4.374  17.839  0.00  0.00    +0.000 A 
ATOM      3  C   UNL     1       6.106   4.482  16.525  0.00  0.00    +0.000 A 
ATOM      4  C   UNL     1       7.228   5.087  15.949  0.00  0.00    +0.000 A 
ATOM      5  C   UNL     1       7.355   5.017  14.565  0.00  0.00    +0.000 A 
ATOM      6  C   UNL     1       6.485   4.263  13.785  0.00  0.00    +0.000 A 
ATOM      7  C   UNL     1       5.341   3.674  14.347  0.00  0.00    +0.000 A 
ATOM      8  C   UNL     1       5.152   3.881  15.714  0.00  0.00    +0.000 A 
ATOM      9  O   UNL     1       4.018   3.631  16.448  0.00  0.00    +0.000 OA
ENDROOT
BRANCH   1  14
ATOM     10  C   UNL     1       1.075   3.566  19.565  0.00  0.00    +0.000 A 
ATOM     11  C   UNL     1       1.168   4.477  20.609  0.00  0.00    +0.000 A 
ATOM     12  C   UNL     1       2.256   5.348  20.652  0.00  0.00    +0.000 A 
ATOM     13  C   UNL     1       3.262   5.290  19.677  0.00  0.00    +0.000 A 
ATOM     14  C   UNL     1       3.177   4.363  18.634  0.00  0.00    +0.000 A 
ATOM     15  C   UNL     1       2.049   3.521  18.581  0.00  0.00    +0.000 A 
BRANCH  10  16
ATOM     16  O   UNL     1       0.060   2.662  19.474  0.00  0.00    +0.000 OA
ATOM     17  H   UNL     1       0.388   1.869  19.026  0.00  0.00    +0.000 HD
ENDBRANCH  10  16
ENDBRANCH   1  14
BRANCH   5  18
ATOM     18  O   UNL     1       8.322   5.744  13.935  0.00  0.00    +0.000 OA
ATOM     19  H   UNL     1       9.183   5.445  14.278  0.00  0.00    +0.000 HD
ENDBRANCH   5  18
TORSDOF 3
ENDMDL
MODEL 9
REMARK VINA RESULT:      -7.0      1.558      6.524
REMARK  Name = 
REMARK  3 active torsions:
REMARK  status: ('A' for Active; 'I' for Inactive)
REMARK    1  A    between atoms: O_1  and  C_2
REMARK    2  A    between atoms: C_6  and  C_7
REMARK    3  A    between atoms: C_11  and  O_12
REMARK                            x       y       z     vdW  Elec       q    Type
REMARK                         _______ _______ _______ _____ _____    ______ ____
ROOT
ATOM      1  C   UNL     1       3.978   4.640  18.410  0.00  0.00    +0.000 A 
ATOM      2  C   UNL     1       3.853   5.432  17.286  0.00  0.00    +0.000 A 
ATOM      3  C   UNL     1       5.055   5.277  16.579  0.00  0.00    +0.000 A 
ATOM      4  C   UNL     1       5.434   5.495  15.249  0.00  0.00    +0.000 A 
ATOM      5  C   UNL     1       6.744   5.181  14.897  0.00  0.00    +0.000 A 
ATOM      6  C   UNL     1       7.688   4.797  15.844  0.00  0.00    +0.000 A 
ATOM      7  C   UNL     1       7.313   4.549  17.174  0.00  0.00    +0.000 A 
ATOM      8  C   UNL     1       5.963   4.726  17.475  0.00  0.00    +0.000 A 
ATOM      9  O   UNL     1       5.300   4.327  18.610  0.00  0.00    +0.000 OA
ENDROOT
BRANCH   1  14
ATOM     10  C   UNL     1       2.461   2.714  21.226  0.00  0.00    +0.000 A 
ATOM     11  C   UNL     1       1.108   3.003  21.109  0.00  0.00    +0.000 A 
ATOM     12  C   UNL     1       0.670   3.762  20.024  0.00  0.00    +0.000 A 
ATOM     13  C   UNL     1       1.581   4.256  19.078  0.00  0.00    +0.000 A 
ATOM     14  C   UNL     1       2.945   3.978  19.205  0.00  0.00    +0.000 A 
ATOM     15  C   UNL     1       3.364   3.173  20.282  0.00  0.00    +0.000 A 
BRANCH  10  16
ATOM     16  O   UNL     1       2.967   2.007  22.275  0.00  0.00    +0.000 OA
ATOM     17  H   UNL     1       3.077   1.084  22.007  0.00  0.00    +0.000 HD
ENDBRANCH  10  16
ENDBRANCH   1  14
BRANCH   5  18
ATOM     18  O   UNL     1       7.114   5.194  13.584  0.00  0.00    +0.000 OA
ATOM     19  H   UNL     1       7.493   4.321  13.378  0.00  0.00    +0.000 HD
ENDBRANCH   5  18
TORSDOF 3
ENDMDL
