MODEL 1
REMARK VINA RESULT:      -7.4      0.000      0.000
REMARK  Name = 
REMARK  16 active torsions:
REMARK  status: ('A' for Active; 'I' for Inactive)
REMARK    1  A    between atoms: C_1  and  O_2
REMARK    2  A    between atoms: O_2  and  C_3
REMARK    3  A    between atoms: C_3  and  C_5
REMARK    4  A    between atoms: C_6  and  C_7
REMARK    5  A    between atoms: C_9  and  C_10
REMARK    6  A    between atoms: C_10  and  O_12
REMARK    7  A    between atoms: O_12  and  C_13
REMARK    8  A    between atoms: C_13  and  C_14
REMARK    9  A    between atoms: C_14  and  C_16
REMARK   10  A    between atoms: C_17  and  N_18
REMARK   11  A    between atoms: N_19  and  C_20
REMARK   12  A    between atoms: C_20  and  C_21
REMARK   13  A    between atoms: C_21  and  C_22
REMARK   14  A    between atoms: C_21  and  C_23
REMARK   15  A    between atoms: N_26  and  C_27
REMARK   16  A    between atoms: C_30  and  C_31
REMARK                            x       y       z     vdW  Elec       q    Type
REMARK                         _______ _______ _______ _____ _____    ______ ____
ROOT
ATOM      1  C   UNL     1       4.141   3.622  19.338  0.00  0.00    +0.000 C 
ATOM      2  O   UNL     1       4.234   2.391  19.426  0.00  0.00    +0.000 OA
ENDROOT
BRANCH   1   3
ATOM      3  C   UNL     1       5.135   4.396  18.498  0.00  0.00    +0.000 A 
ATOM      4  C   UNL     1       4.950   4.517  17.157  0.00  0.00    +0.000 A 
ATOM      5  N   UNL     1       5.851   5.268  16.392  0.00  0.00    +0.000 N 
ATOM      6  C   UNL     1       6.842   6.062  16.979  0.00  0.00    +0.000 A 
ATOM      7  O   UNL     1       7.432   6.949  16.359  0.00  0.00    +0.000 OA
ATOM      8  N   UNL     1       7.132   5.787  18.303  0.00  0.00    +0.000 N 
ATOM      9  C   UNL     1       8.300   6.406  18.906  0.00  0.00    +0.000 C 
ATOM     10  C   UNL     1       6.327   5.025  19.114  0.00  0.00    +0.000 A 
ATOM     11  O   UNL     1       6.562   4.879  20.316  0.00  0.00    +0.000 OA
BRANCH   4  12
ATOM     12  N   UNL     1       3.839   3.962  16.534  0.00  0.00    +0.000 N 
ATOM     13  H   UNL     1       3.092   4.650  16.363  0.00  0.00    +0.000 HD
ATOM     14  H   UNL     1       3.468   3.131  16.975  0.00  0.00    +0.000 HD
ENDBRANCH   4  12
BRANCH   5  15
ATOM     15  C   UNL     1       5.723   5.356  14.915  0.00  0.00    +0.000 C 
BRANCH  15  16
ATOM     16  C   UNL     1       6.651   4.393  14.119  0.00  0.00    +0.000 C 
ATOM     17  C   UNL     1       5.824   3.495  13.182  0.00  0.00    +0.000 C 
ATOM     18  C   UNL     1       7.706   5.120  13.282  0.00  0.00    +0.000 C 
ENDBRANCH  15  16
ENDBRANCH   5  15
ENDBRANCH   1   3
BRANCH   1  19
ATOM     19  C   UNL     1       2.977   4.364  20.016  0.00  0.00    +0.000 C 
BRANCH  19  20
ATOM     20  O   UNL     1       3.203   5.786  20.102  0.00  0.00    +0.000 OA
BRANCH  20  21
ATOM     21  C   UNL     1       2.412   6.490  19.225  0.00  0.00    +0.000 C 
ATOM     22  O   UNL     1       2.213   6.135  18.074  0.00  0.00    +0.000 OA
BRANCH  21  27
ATOM     23  C   UNL     1       0.943   9.732  20.296  0.00  0.00    +0.000 A 
ATOM     24  C   UNL     1       1.005   9.014  21.486  0.00  0.00    +0.000 A 
ATOM     25  C   UNL     1       0.565   9.354  22.866  0.00  0.00    +0.000 C 
ATOM     26  N   UNL     1       1.559   7.783  21.201  0.00  0.00    +0.000 N 
ATOM     27  C   UNL     1       1.838   7.659  19.861  0.00  0.00    +0.000 A 
ATOM     28  C   UNL     1       1.460   8.868  19.265  0.00  0.00    +0.000 A 
ATOM     29  C   UNL     1       1.574   9.248  17.826  0.00  0.00    +0.000 C 
ATOM     30  H   UNL     1       1.716   7.046  21.879  0.00  0.00    +0.000 HD
BRANCH  23  31
ATOM     31  C   UNL     1       0.437  11.094  20.082  0.00  0.00    +0.000 C 
ATOM     32  O   UNL     1      -0.756  11.377  20.112  0.00  0.00    +0.000 OA
BRANCH  31  34
ATOM     33  C   UNL     1       1.047  12.964  18.814  0.00  0.00    +0.000 C 
ATOM     34  O   UNL     1       1.418  12.001  19.801  0.00  0.00    +0.000 OA
ENDBRANCH  31  34
ENDBRANCH  23  31
ENDBRANCH  21  27
ENDBRANCH  20  21
ENDBRANCH  19  20
ENDBRANCH   1  19
TORSDOF 10
ENDMDL
MODEL 2
REMARK VINA RESULT:      -6.9      1.737      7.976
REMARK  Name = 
REMARK  16 active torsions:
REMARK  status: ('A' for Active; 'I' for Inactive)
REMARK    1  A    between atoms: C_1  and  O_2
REMARK    2  A    between atoms: O_2  and  C_3
REMARK    3  A    between atoms: C_3  and  C_5
REMARK    4  A    between atoms: C_6  and  C_7
REMARK    5  A    between atoms: C_9  and  C_10
REMARK    6  A    between atoms: C_10  and  O_12
REMARK    7  A    between atoms: O_12  and  C_13
REMARK    8  A    between atoms: C_13  and  C_14
REMARK    9  A    between atoms: C_14  and  C_16
REMARK   10  A    between atoms: C_17  and  N_18
REMARK   11  A    between atoms: N_19  and  C_20
REMARK   12  A    between atoms: C_20  and  C_21
REMARK   13  A    between atoms: C_21  and  C_22
REMARK   14  A    between atoms: C_21  and  C_23
REMARK   15  A    between atoms: N_26  and  C_27
REMARK   16  A    between atoms: C_30  and  C_31
REMARK                            x       y       z     vdW  Elec       q    Type
REMARK                         _______ _______ _______ _____ _____    ______ ____
ROOT
ATOM      1  C   UNL     1       2.467   7.471  18.559  0.00  0.00    +0.000 C 
ATOM      2  O   UNL     1       3.618   7.684  18.157  0.00  0.00    +0.000 OA
ENDROOT
BRANCH   1   3
ATOM      3  C   UNL     1       1.712   8.558  19.296  0.00  0.00    +0.000 A 
ATOM      4  C   UNL     1       1.437   9.738  18.683  0.00  0.00    +0.000 A 
ATOM      5  N   UNL     1       0.704  10.722  19.356  0.00  0.00    +0.000 N 
ATOM      6  C   UNL     1       0.075  10.473  20.580  0.00  0.00    +0.000 A 
ATOM      7  O   UNL     1      -0.808  11.205  21.031  0.00  0.00    +0.000 OA
ATOM      8  N   UNL     1       0.512   9.355  21.267  0.00  0.00    +0.000 N 
ATOM      9  C   UNL     1       0.075   9.163  22.640  0.00  0.00    +0.000 C 
ATOM     10  C   UNL     1       1.269   8.361  20.698  0.00  0.00    +0.000 A 
ATOM     11  O   UNL     1       1.560   7.329  21.308  0.00  0.00    +0.000 OA
BRANCH   4  12
ATOM     12  N   UNL     1       1.814   9.964  17.365  0.00  0.00    +0.000 N 
ATOM     13  H   UNL     1       2.142   9.111  16.890  0.00  0.00    +0.000 HD
ATOM     14  H   UNL     1       2.467  10.724  17.227  0.00  0.00    +0.000 HD
ENDBRANCH   4  12
BRANCH   5  15
ATOM     15  C   UNL     1       0.454  12.052  18.743  0.00  0.00    +0.000 C 
BRANCH  15  16
ATOM     16  C   UNL     1       1.397  13.188  19.235  0.00  0.00    +0.000 C 
ATOM     17  C   UNL     1       2.674  13.240  18.379  0.00  0.00    +0.000 C 
ATOM     18  C   UNL     1       0.745  14.572  19.213  0.00  0.00    +0.000 C 
ENDBRANCH  15  16
ENDBRANCH   5  15
ENDBRANCH   1   3
BRANCH   1  19
ATOM     19  C   UNL     1       1.770   6.136  18.250  0.00  0.00    +0.000 C 
BRANCH  19  20
ATOM     20  O   UNL     1       2.239   5.060  19.089  0.00  0.00    +0.000 OA
BRANCH  20  21
ATOM     21  C   UNL     1       2.568   3.942  18.361  0.00  0.00    +0.000 C 
ATOM     22  O   UNL     1       1.898   2.922  18.367  0.00  0.00    +0.000 OA
BRANCH  21  27
ATOM     23  C   UNL     1       5.918   4.629  16.904  0.00  0.00    +0.000 A 
ATOM     24  C   UNL     1       5.158   4.294  15.787  0.00  0.00    +0.000 A 
ATOM     25  C   UNL     1       5.524   4.160  14.352  0.00  0.00    +0.000 C 
ATOM     26  N   UNL     1       3.875   4.032  16.220  0.00  0.00    +0.000 N 
ATOM     27  C   UNL     1       3.772   4.159  17.584  0.00  0.00    +0.000 A 
ATOM     28  C   UNL     1       5.041   4.533  18.044  0.00  0.00    +0.000 A 
ATOM     29  C   UNL     1       5.454   4.811  19.450  0.00  0.00    +0.000 C 
ATOM     30  H   UNL     1       3.107   3.752  15.621  0.00  0.00    +0.000 HD
BRANCH  23  31
ATOM     31  C   UNL     1       7.339   4.994  16.961  0.00  0.00    +0.000 C 
ATOM     32  O   UNL     1       8.203   4.249  17.412  0.00  0.00    +0.000 OA
BRANCH  31  34
ATOM     33  C   UNL     1       7.354   7.276  17.475  0.00  0.00    +0.000 C 
ATOM     34  O   UNL     1       7.595   6.255  16.506  0.00  0.00    +0.000 OA
ENDBRANCH  31  34
ENDBRANCH  23  31
ENDBRANCH  21  27
ENDBRANCH  20  21
ENDBRANCH  19  20
ENDBRANCH   1  19
TORSDOF 10
ENDMDL
MODEL 3
REMARK VINA RESULT:      -6.8      3.343      9.171
REMARK  Name = 
REMARK  16 active torsions:
REMARK  status: ('A' for Active; 'I' for Inactive)
REMARK    1  A    between atoms: C_1  and  O_2
REMARK    2  A    between atoms: O_2  and  C_3
REMARK    3  A    between atoms: C_3  and  C_5
REMARK    4  A    between atoms: C_6  and  C_7
REMARK    5  A    between atoms: C_9  and  C_10
REMARK    6  A    between atoms: C_10  and  O_12
REMARK    7  A    between atoms: O_12  and  C_13
REMARK    8  A    between atoms: C_13  and  C_14
REMARK    9  A    between atoms: C_14  and  C_16
REMARK   10  A    between atoms: C_17  and  N_18
REMARK   11  A    between atoms: N_19  and  C_20
REMARK   12  A    between atoms: C_20  and  C_21
REMARK   13  A    between atoms: C_21  and  C_22
REMARK   14  A    between atoms: C_21  and  C_23
REMARK   15  A    between atoms: N_26  and  C_27
REMARK   16  A    between atoms: C_30  and  C_31
REMARK                            x       y       z     vdW  Elec       q    Type
REMARK                         _______ _______ _______ _____ _____    ______ ____
ROOT
ATOM      1  C   UNL     1       0.582  10.583  21.265  0.00  0.00    +0.000 C 
ATOM      2  O   UNL     1       1.628  11.235  21.375  0.00  0.00    +0.000 OA
ENDROOT
BRANCH   1   3
ATOM      3  C   UNL     1      -0.687  11.263  20.798  0.00  0.00    +0.000 A 
ATOM      4  C   UNL     1      -1.035  11.238  19.485  0.00  0.00    +0.000 A 
ATOM      5  N   UNL     1      -2.231  11.835  19.067  0.00  0.00    +0.000 N 
ATOM      6  C   UNL     1      -3.186  12.302  19.975  0.00  0.00    +0.000 A 
ATOM      7  O   UNL     1      -4.349  12.542  19.647  0.00  0.00    +0.000 OA
ATOM      8  N   UNL     1      -2.744  12.490  21.272  0.00  0.00    +0.000 N 
ATOM      9  C   UNL     1      -3.607  13.188  22.211  0.00  0.00    +0.000 C 
ATOM     10  C   UNL     1      -1.566  11.977  21.756  0.00  0.00    +0.000 A 
ATOM     11  O   UNL     1      -1.246  12.078  22.943  0.00  0.00    +0.000 OA
BRANCH   4  12
ATOM     12  N   UNL     1      -0.256  10.567  18.551  0.00  0.00    +0.000 N 
ATOM     13  H   UNL     1       0.156   9.699  18.923  0.00  0.00    +0.000 HD
ATOM     14  H   UNL     1       0.447  11.129  18.092  0.00  0.00    +0.000 HD
ENDBRANCH   4  12
BRANCH   5  15
ATOM     15  C   UNL     1      -2.602  11.892  17.630  0.00  0.00    +0.000 C 
BRANCH  15  16
ATOM     16  C   UNL     1      -3.498  10.718  17.137  0.00  0.00    +0.000 C 
ATOM     17  C   UNL     1      -4.844  11.248  16.612  0.00  0.00    +0.000 C 
ATOM     18  C   UNL     1      -2.848   9.879  16.036  0.00  0.00    +0.000 C 
ENDBRANCH  15  16
ENDBRANCH   5  15
ENDBRANCH   1   3
BRANCH   1  19
ATOM     19  C   UNL     1       0.581   9.068  21.527  0.00  0.00    +0.000 C 
BRANCH  19  20
ATOM     20  O   UNL     1       1.853   8.454  21.230  0.00  0.00    +0.000 OA
BRANCH  20  21
ATOM     21  C   UNL     1       1.871   7.876  19.983  0.00  0.00    +0.000 C 
ATOM     22  O   UNL     1       1.580   8.481  18.964  0.00  0.00    +0.000 OA
BRANCH  21  27
ATOM     23  C   UNL     1       3.352   4.479  19.695  0.00  0.00    +0.000 A 
ATOM     24  C   UNL     1       2.466   4.340  20.758  0.00  0.00    +0.000 A 
ATOM     25  C   UNL     1       2.167   3.184  21.646  0.00  0.00    +0.000 C 
ATOM     26  N   UNL     1       1.841   5.555  20.942  0.00  0.00    +0.000 N 
ATOM     27  C   UNL     1       2.306   6.495  20.053  0.00  0.00    +0.000 A 
ATOM     28  C   UNL     1       3.258   5.848  19.256  0.00  0.00    +0.000 A 
ATOM     29  C   UNL     1       4.046   6.427  18.128  0.00  0.00    +0.000 C 
ATOM     30  H   UNL     1       1.150   5.750  21.657  0.00  0.00    +0.000 HD
BRANCH  23  31
ATOM     31  C   UNL     1       4.244   3.465  19.115  0.00  0.00    +0.000 C 
ATOM     32  O   UNL     1       5.327   3.168  19.608  0.00  0.00    +0.000 OA
BRANCH  31  34
ATOM     33  C   UNL     1       3.102   1.674  18.135  0.00  0.00    +0.000 C 
ATOM     34  O   UNL     1       3.769   2.924  17.956  0.00  0.00    +0.000 OA
ENDBRANCH  31  34
ENDBRANCH  23  31
ENDBRANCH  21  27
ENDBRANCH  20  21
ENDBRANCH  19  20
ENDBRANCH   1  19
TORSDOF 10
ENDMDL
MODEL 4
REMARK VINA RESULT:      -6.8      3.330      9.280
REMARK  Name = 
REMARK  16 active torsions:
REMARK  status: ('A' for Active; 'I' for Inactive)
REMARK    1  A    between atoms: C_1  and  O_2
REMARK    2  A    between atoms: O_2  and  C_3
REMARK    3  A    between atoms: C_3  and  C_5
REMARK    4  A    between atoms: C_6  and  C_7
REMARK    5  A    between atoms: C_9  and  C_10
REMARK    6  A    between atoms: C_10  and  O_12
REMARK    7  A    between atoms: O_12  and  C_13
REMARK    8  A    between atoms: C_13  and  C_14
REMARK    9  A    between atoms: C_14  and  C_16
REMARK   10  A    between atoms: C_17  and  N_18
REMARK   11  A    between atoms: N_19  and  C_20
REMARK   12  A    between atoms: C_20  and  C_21
REMARK   13  A    between atoms: C_21  and  C_22
REMARK   14  A    between atoms: C_21  and  C_23
REMARK   15  A    between atoms: N_26  and  C_27
REMARK   16  A    between atoms: C_30  and  C_31
REMARK                            x       y       z     vdW  Elec       q    Type
REMARK                         _______ _______ _______ _____ _____    ______ ____
ROOT
ATOM      1  C   UNL     1       1.329  10.438  18.246  0.00  0.00    +0.000 C 
ATOM      2  O   UNL     1       2.241  11.197  17.890  0.00  0.00    +0.000 OA
ENDROOT
BRANCH   1   3
ATOM      3  C   UNL     1       0.070  11.008  18.863  0.00  0.00    +0.000 A 
ATOM      4  C   UNL     1       0.134  11.717  20.020  0.00  0.00    +0.000 A 
ATOM      5  N   UNL     1      -1.030  12.275  20.564  0.00  0.00    +0.000 N 
ATOM      6  C   UNL     1      -2.242  12.294  19.865  0.00  0.00    +0.000 A 
ATOM      7  O   UNL     1      -3.176  13.032  20.182  0.00  0.00    +0.000 OA
ATOM      8  N   UNL     1      -2.335  11.421  18.796  0.00  0.00    +0.000 N 
ATOM      9  C   UNL     1      -3.633  11.216  18.173  0.00  0.00    +0.000 C 
ATOM     10  C   UNL     1      -1.253  10.797  18.227  0.00  0.00    +0.000 A 
ATOM     11  O   UNL     1      -1.357  10.101  17.214  0.00  0.00    +0.000 OA
BRANCH   4  12
ATOM     12  N   UNL     1       1.351  11.959  20.645  0.00  0.00    +0.000 N 
ATOM     13  H   UNL     1       1.909  11.104  20.777  0.00  0.00    +0.000 HD
ATOM     14  H   UNL     1       1.296  12.488  21.505  0.00  0.00    +0.000 HD
ENDBRANCH   4  12
BRANCH   5  15
ATOM     15  C   UNL     1      -1.007  12.989  21.866  0.00  0.00    +0.000 C 
BRANCH  15  16
ATOM     16  C   UNL     1      -1.382  12.116  23.098  0.00  0.00    +0.000 C 
ATOM     17  C   UNL     1      -2.894  12.193  23.376  0.00  0.00    +0.000 C 
ATOM     18  C   UNL     1      -0.996  10.644  22.941  0.00  0.00    +0.000 C 
ENDBRANCH  15  16
ENDBRANCH   5  15
ENDBRANCH   1   3
BRANCH   1  19
ATOM     19  C   UNL     1       1.437   8.925  17.997  0.00  0.00    +0.000 C 
BRANCH  19  20
ATOM     20  O   UNL     1       2.470   8.305  18.791  0.00  0.00    +0.000 OA
BRANCH  20  21
ATOM     21  C   UNL     1       1.971   7.736  19.938  0.00  0.00    +0.000 C 
ATOM     22  O   UNL     1       1.280   8.345  20.739  0.00  0.00    +0.000 OA
BRANCH  21  27
ATOM     23  C   UNL     1       3.297   4.271  19.712  0.00  0.00    +0.000 A 
ATOM     24  C   UNL     1       2.414   4.194  20.784  0.00  0.00    +0.000 A 
ATOM     25  C   UNL     1       2.072   3.071  21.698  0.00  0.00    +0.000 C 
ATOM     26  N   UNL     1       1.846   5.439  20.946  0.00  0.00    +0.000 N 
ATOM     27  C   UNL     1       2.345   6.339  20.034  0.00  0.00    +0.000 A 
ATOM     28  C   UNL     1       3.261   5.634  19.244  0.00  0.00    +0.000 A 
ATOM     29  C   UNL     1       4.064   6.153  18.099  0.00  0.00    +0.000 C 
ATOM     30  H   UNL     1       1.169   5.680  21.661  0.00  0.00    +0.000 HD
BRANCH  23  31
ATOM     31  C   UNL     1       4.138   3.207  19.147  0.00  0.00    +0.000 C 
ATOM     32  O   UNL     1       5.073   2.699  19.757  0.00  0.00    +0.000 OA
BRANCH  31  34
ATOM     33  C   UNL     1       2.577   2.151  17.760  0.00  0.00    +0.000 C 
ATOM     34  O   UNL     1       3.805   2.873  17.866  0.00  0.00    +0.000 OA
ENDBRANCH  31  34
ENDBRANCH  23  31
ENDBRANCH  21  27
ENDBRANCH  20  21
ENDBRANCH  19  20
ENDBRANCH   1  19
TORSDOF 10
ENDMDL
MODEL 5
REMARK VINA RESULT:      -6.8      2.567      8.302
REMARK  Name = 
REMARK  16 active torsions:
REMARK  status: ('A' for Active; 'I' for Inactive)
REMARK    1  A    between atoms: C_1  and  O_2
REMARK    2  A    between atoms: O_2  and  C_3
REMARK    3  A    between atoms: C_3  and  C_5
REMARK    4  A    between atoms: C_6  and  C_7
REMARK    5  A    between atoms: C_9  and  C_10
REMARK    6  A    between atoms: C_10  and  O_12
REMARK    7  A    between atoms: O_12  and  C_13
REMARK    8  A    between atoms: C_13  and  C_14
REMARK    9  A    between atoms: C_14  and  C_16
REMARK   10  A    between atoms: C_17  and  N_18
REMARK   11  A    between atoms: N_19  and  C_20
REMARK   12  A    between atoms: C_20  and  C_21
REMARK   13  A    between atoms: C_21  and  C_22
REMARK   14  A    between atoms: C_21  and  C_23
REMARK   15  A    between atoms: N_26  and  C_27
REMARK   16  A    between atoms: C_30  and  C_31
REMARK                            x       y       z     vdW  Elec       q    Type
REMARK                         _______ _______ _______ _____ _____    ______ ____
ROOT
ATOM      1  C   UNL     1       5.031   6.987  16.937  0.00  0.00    +0.000 C 
ATOM      2  O   UNL     1       4.766   6.830  15.738  0.00  0.00    +0.000 OA
ENDROOT
BRANCH   1   3
ATOM      3  C   UNL     1       3.919   6.973  17.964  0.00  0.00    +0.000 A 
ATOM      4  C   UNL     1       3.822   5.954  18.856  0.00  0.00    +0.000 A 
ATOM      5  N   UNL     1       2.815   5.968  19.829  0.00  0.00    +0.000 N 
ATOM      6  C   UNL     1       2.006   7.089  20.044  0.00  0.00    +0.000 A 
ATOM      7  O   UNL     1       1.340   7.236  21.070  0.00  0.00    +0.000 OA
ATOM      8  N   UNL     1       1.990   8.026  19.027  0.00  0.00    +0.000 N 
ATOM      9  C   UNL     1       1.003   9.092  19.075  0.00  0.00    +0.000 C 
ATOM     10  C   UNL     1       2.912   8.061  18.011  0.00  0.00    +0.000 A 
ATOM     11  O   UNL     1       2.929   8.967  17.173  0.00  0.00    +0.000 OA
BRANCH   4  12
ATOM     12  N   UNL     1       4.752   4.921  18.867  0.00  0.00    +0.000 N 
ATOM     13  H   UNL     1       5.587   5.141  19.428  0.00  0.00    +0.000 HD
ATOM     14  H   UNL     1       5.014   4.568  17.957  0.00  0.00    +0.000 HD
ENDBRANCH   4  12
BRANCH   5  15
ATOM     15  C   UNL     1       2.634   4.832  20.769  0.00  0.00    +0.000 C 
BRANCH  15  16
ATOM     16  C   UNL     1       2.109   3.520  20.117  0.00  0.00    +0.000 C 
ATOM     17  C   UNL     1       1.445   2.619  21.174  0.00  0.00    +0.000 C 
ATOM     18  C   UNL     1       1.104   3.761  18.989  0.00  0.00    +0.000 C 
ENDBRANCH  15  16
ENDBRANCH   5  15
ENDBRANCH   1   3
BRANCH   1  19
ATOM     19  C   UNL     1       6.492   7.119  17.399  0.00  0.00    +0.000 C 
BRANCH  19  20
ATOM     20  O   UNL     1       7.431   6.674  16.398  0.00  0.00    +0.000 OA
BRANCH  20  21
ATOM     21  C   UNL     1       7.442   5.305  16.270  0.00  0.00    +0.000 C 
ATOM     22  O   UNL     1       7.642   4.550  17.208  0.00  0.00    +0.000 OA
BRANCH  21  27
ATOM     23  C   UNL     1       6.304   3.892  13.026  0.00  0.00    +0.000 A 
ATOM     24  C   UNL     1       7.254   4.831  12.637  0.00  0.00    +0.000 A 
ATOM     25  C   UNL     1       7.714   5.267  11.291  0.00  0.00    +0.000 C 
ATOM     26  N   UNL     1       7.758   5.411  13.782  0.00  0.00    +0.000 N 
ATOM     27  C   UNL     1       7.155   4.904  14.907  0.00  0.00    +0.000 A 
ATOM     28  C   UNL     1       6.235   3.946  14.465  0.00  0.00    +0.000 A 
ATOM     29  C   UNL     1       5.335   3.095  15.297  0.00  0.00    +0.000 C 
ATOM     30  H   UNL     1       8.462   6.141  13.801  0.00  0.00    +0.000 HD
BRANCH  23  31
ATOM     31  C   UNL     1       5.493   3.012  12.174  0.00  0.00    +0.000 C 
ATOM     32  O   UNL     1       5.948   2.022  11.611  0.00  0.00    +0.000 OA
BRANCH  31  34
ATOM     33  C   UNL     1       3.751   3.473  10.681  0.00  0.00    +0.000 C 
ATOM     34  O   UNL     1       4.201   3.430  12.036  0.00  0.00    +0.000 OA
ENDBRANCH  31  34
ENDBRANCH  23  31
ENDBRANCH  21  27
ENDBRANCH  20  21
ENDBRANCH  19  20
ENDBRANCH   1  19
TORSDOF 10
ENDMDL
MODEL 6
REMARK VINA RESULT:      -6.7      2.717      9.208
REMARK  Name = 
REMARK  16 active torsions:
REMARK  status: ('A' for Active; 'I' for Inactive)
REMARK    1  A    between atoms: C_1  and  O_2
REMARK    2  A    between atoms: O_2  and  C_3
REMARK    3  A    between atoms: C_3  and  C_5
REMARK    4  A    between atoms: C_6  and  C_7
REMARK    5  A    between atoms: C_9  and  C_10
REMARK    6  A    between atoms: C_10  and  O_12
REMARK    7  A    between atoms: O_12  and  C_13
REMARK    8  A    between atoms: C_13  and  C_14
REMARK    9  A    between atoms: C_14  and  C_16
REMARK   10  A    between atoms: C_17  and  N_18
REMARK   11  A    between atoms: N_19  and  C_20
REMARK   12  A    between atoms: C_20  and  C_21
REMARK   13  A    between atoms: C_21  and  C_22
REMARK   14  A    between atoms: C_21  and  C_23
REMARK   15  A    between atoms: N_26  and  C_27
REMARK   16  A    between atoms: C_30  and  C_31
REMARK                            x       y       z     vdW  Elec       q    Type
REMARK                         _______ _______ _______ _____ _____    ______ ____
ROOT
ATOM      1  C   UNL     1       0.921  10.103  18.274  0.00  0.00    +0.000 C 
ATOM      2  O   UNL     1      -0.127   9.793  17.693  0.00  0.00    +0.000 OA
ENDROOT
BRANCH   1   3
ATOM      3  C   UNL     1       0.938  11.282  19.225  0.00  0.00    +0.000 A 
ATOM      4  C   UNL     1       0.201  11.252  20.365  0.00  0.00    +0.000 A 
ATOM      5  N   UNL     1       0.253  12.328  21.259  0.00  0.00    +0.000 N 
ATOM      6  C   UNL     1       1.181  13.366  21.121  0.00  0.00    +0.000 A 
ATOM      7  O   UNL     1       1.446  14.142  22.040  0.00  0.00    +0.000 OA
ATOM      8  N   UNL     1       1.781  13.477  19.880  0.00  0.00    +0.000 N 
ATOM      9  C   UNL     1       2.574  14.660  19.591  0.00  0.00    +0.000 C 
ATOM     10  C   UNL     1       1.746  12.489  18.927  0.00  0.00    +0.000 A 
ATOM     11  O   UNL     1       2.373  12.578  17.869  0.00  0.00    +0.000 OA
BRANCH   4  12
ATOM     12  N   UNL     1      -0.558  10.137  20.699  0.00  0.00    +0.000 N 
ATOM     13  H   UNL     1      -1.422  10.378  21.204  0.00  0.00    +0.000 HD
ATOM     14  H   UNL     1      -0.055   9.402  21.178  0.00  0.00    +0.000 HD
ENDBRANCH   4  12
BRANCH   5  15
ATOM     15  C   UNL     1      -0.599  12.362  22.476  0.00  0.00    +0.000 C 
BRANCH  15  16
ATOM     16  C   UNL     1      -1.816  13.329  22.396  0.00  0.00    +0.000 C 
ATOM     17  C   UNL     1      -3.082  12.571  21.957  0.00  0.00    +0.000 C 
ATOM     18  C   UNL     1      -2.115  14.040  23.718  0.00  0.00    +0.000 C 
ENDBRANCH  15  16
ENDBRANCH   5  15
ENDBRANCH   1   3
BRANCH   1  19
ATOM     19  C   UNL     1       2.189   9.253  18.093  0.00  0.00    +0.000 C 
BRANCH  19  20
ATOM     20  O   UNL     1       1.924   7.837  18.184  0.00  0.00    +0.000 OA
BRANCH  20  21
ATOM     21  C   UNL     1       2.221   7.333  19.427  0.00  0.00    +0.000 C 
ATOM     22  O   UNL     1       1.801   7.823  20.463  0.00  0.00    +0.000 OA
BRANCH  21  27
ATOM     23  C   UNL     1       3.899   4.016  19.470  0.00  0.00    +0.000 A 
ATOM     24  C   UNL     1       4.813   4.816  18.791  0.00  0.00    +0.000 A 
ATOM     25  C   UNL     1       6.121   4.496  18.158  0.00  0.00    +0.000 C 
ATOM     26  N   UNL     1       4.289   6.090  18.733  0.00  0.00    +0.000 N 
ATOM     27  C   UNL     1       3.051   6.149  19.327  0.00  0.00    +0.000 A 
ATOM     28  C   UNL     1       2.778   4.860  19.800  0.00  0.00    +0.000 A 
ATOM     29  C   UNL     1       1.564   4.399  20.536  0.00  0.00    +0.000 C 
ATOM     30  H   UNL     1       4.737   6.882  18.285  0.00  0.00    +0.000 HD
BRANCH  23  31
ATOM     31  C   UNL     1       4.003   2.587  19.790  0.00  0.00    +0.000 C 
ATOM     32  O   UNL     1       4.888   2.124  20.502  0.00  0.00    +0.000 OA
BRANCH  31  34
ATOM     33  C   UNL     1       3.050   1.925  17.758  0.00  0.00    +0.000 C 
ATOM     34  O   UNL     1       3.049   1.823  19.182  0.00  0.00    +0.000 OA
ENDBRANCH  31  34
ENDBRANCH  23  31
ENDBRANCH  21  27
ENDBRANCH  20  21
ENDBRANCH  19  20
ENDBRANCH   1  19
TORSDOF 10
ENDMDL
MODEL 7
REMARK VINA RESULT:      -6.7      4.258     10.221
REMARK  Name = 
REMARK  16 active torsions:
REMARK  status: ('A' for Active; 'I' for Inactive)
REMARK    1  A    between atoms: C_1  and  O_2
REMARK    2  A    between atoms: O_2  and  C_3
REMARK    3  A    between atoms: C_3  and  C_5
REMARK    4  A    between atoms: C_6  and  C_7
REMARK    5  A    between atoms: C_9  and  C_10
REMARK    6  A    between atoms: C_10  and  O_12
REMARK    7  A    between atoms: O_12  and  C_13
REMARK    8  A    between atoms: C_13  and  C_14
REMARK    9  A    between atoms: C_14  and  C_16
REMARK   10  A    between atoms: C_17  and  N_18
REMARK   11  A    between atoms: N_19  and  C_20
REMARK   12  A    between atoms: C_20  and  C_21
REMARK   13  A    between atoms: C_21  and  C_22
REMARK   14  A    between atoms: C_21  and  C_23
REMARK   15  A    between atoms: N_26  and  C_27
REMARK   16  A    between atoms: C_30  and  C_31
REMARK                            x       y       z     vdW  Elec       q    Type
REMARK                         _______ _______ _______ _____ _____    ______ ____
ROOT
ATOM      1  C   UNL     1      -0.645  11.153  19.387  0.00  0.00    +0.000 C 
ATOM      2  O   UNL     1       0.155  12.096  19.312  0.00  0.00    +0.000 OA
ENDROOT
BRANCH   1   3
ATOM      3  C   UNL     1      -2.014  11.273  18.752  0.00  0.00    +0.000 A 
ATOM      4  C   UNL     1      -3.003  11.958  19.382  0.00  0.00    +0.000 A 
ATOM      5  N   UNL     1      -4.256  12.098  18.771  0.00  0.00    +0.000 N 
ATOM      6  C   UNL     1      -4.482  11.718  17.444  0.00  0.00    +0.000 A 
ATOM      7  O   UNL     1      -5.460  12.105  16.803  0.00  0.00    +0.000 OA
ATOM      8  N   UNL     1      -3.541  10.869  16.891  0.00  0.00    +0.000 N 
ATOM      9  C   UNL     1      -3.827  10.250  15.607  0.00  0.00    +0.000 C 
ATOM     10  C   UNL     1      -2.305  10.639  17.444  0.00  0.00    +0.000 A 
ATOM     11  O   UNL     1      -1.452   9.953  16.876  0.00  0.00    +0.000 OA
BRANCH   4  12
ATOM     12  N   UNL     1      -2.776  12.585  20.601  0.00  0.00    +0.000 N 
ATOM     13  H   UNL     1      -3.457  13.332  20.799  0.00  0.00    +0.000 HD
ATOM     14  H   UNL     1      -1.832  12.913  20.747  0.00  0.00    +0.000 HD
ENDBRANCH   4  12
BRANCH   5  15
ATOM     15  C   UNL     1      -5.382  12.774  19.466  0.00  0.00    +0.000 C 
BRANCH  15  16
ATOM     16  C   UNL     1      -6.205  11.860  20.420  0.00  0.00    +0.000 C 
ATOM     17  C   UNL     1      -7.232  12.690  21.210  0.00  0.00    +0.000 C 
ATOM     18  C   UNL     1      -6.948  10.737  19.694  0.00  0.00    +0.000 C 
ENDBRANCH  15  16
ENDBRANCH   5  15
ENDBRANCH   1   3
BRANCH   1  19
ATOM     19  C   UNL     1      -0.228   9.833  20.054  0.00  0.00    +0.000 C 
BRANCH  19  20
ATOM     20  O   UNL     1       0.977   9.280  19.483  0.00  0.00    +0.000 OA
BRANCH  20  21
ATOM     21  C   UNL     1       1.518   8.293  20.270  0.00  0.00    +0.000 C 
ATOM     22  O   UNL     1       1.337   8.227  21.476  0.00  0.00    +0.000 OA
BRANCH  21  27
ATOM     23  C   UNL     1       3.246   5.453  18.606  0.00  0.00    +0.000 A 
ATOM     24  C   UNL     1       3.671   6.551  17.864  0.00  0.00    +0.000 A 
ATOM     25  C   UNL     1       4.542   6.649  16.662  0.00  0.00    +0.000 C 
ATOM     26  N   UNL     1       3.094   7.675  18.415  0.00  0.00    +0.000 N 
ATOM     27  C   UNL     1       2.283   7.351  19.477  0.00  0.00    +0.000 A 
ATOM     28  C   UNL     1       2.358   5.961  19.622  0.00  0.00    +0.000 A 
ATOM     29  C   UNL     1       1.674   5.114  20.642  0.00  0.00    +0.000 C 
ATOM     30  H   UNL     1       3.219   8.620  18.071  0.00  0.00    +0.000 HD
BRANCH  23  31
ATOM     31  C   UNL     1       3.590   4.038  18.416  0.00  0.00    +0.000 C 
ATOM     32  O   UNL     1       2.980   3.299  17.650  0.00  0.00    +0.000 OA
BRANCH  31  34
ATOM     33  C   UNL     1       4.359   2.395  19.894  0.00  0.00    +0.000 C 
ATOM     34  O   UNL     1       4.622   3.619  19.205  0.00  0.00    +0.000 OA
ENDBRANCH  31  34
ENDBRANCH  23  31
ENDBRANCH  21  27
ENDBRANCH  20  21
ENDBRANCH  19  20
ENDBRANCH   1  19
TORSDOF 10
ENDMDL
MODEL 8
REMARK VINA RESULT:      -6.7      1.232      2.738
REMARK  Name = 
REMARK  16 active torsions:
REMARK  status: ('A' for Active; 'I' for Inactive)
REMARK    1  A    between atoms: C_1  and  O_2
REMARK    2  A    between atoms: O_2  and  C_3
REMARK    3  A    between atoms: C_3  and  C_5
REMARK    4  A    between atoms: C_6  and  C_7
REMARK    5  A    between atoms: C_9  and  C_10
REMARK    6  A    between atoms: C_10  and  O_12
REMARK    7  A    between atoms: O_12  and  C_13
REMARK    8  A    between atoms: C_13  and  C_14
REMARK    9  A    between atoms: C_14  and  C_16
REMARK   10  A    between atoms: C_17  and  N_18
REMARK   11  A    between atoms: N_19  and  C_20
REMARK   12  A    between atoms: C_20  and  C_21
REMARK   13  A    between atoms: C_21  and  C_22
REMARK   14  A    between atoms: C_21  and  C_23
REMARK   15  A    between atoms: N_26  and  C_27
REMARK   16  A    between atoms: C_30  and  C_31
REMARK                            x       y       z     vdW  Elec       q    Type
REMARK                         _______ _______ _______ _____ _____    ______ ____
ROOT
ATOM      1  C   UNL     1       3.750   3.598  19.223  0.00  0.00    +0.000 C 
ATOM      2  O   UNL     1       3.922   2.489  19.746  0.00  0.00    +0.000 OA
ENDROOT
BRANCH   1   3
ATOM      3  C   UNL     1       4.738   4.111  18.196  0.00  0.00    +0.000 A 
ATOM      4  C   UNL     1       5.793   4.873  18.583  0.00  0.00    +0.000 A 
ATOM      5  N   UNL     1       6.725   5.310  17.633  0.00  0.00    +0.000 N 
ATOM      6  C   UNL     1       6.721   4.839  16.316  0.00  0.00    +0.000 A 
ATOM      7  O   UNL     1       7.689   4.967  15.565  0.00  0.00    +0.000 OA
ATOM      8  N   UNL     1       5.554   4.225  15.899  0.00  0.00    +0.000 N 
ATOM      9  C   UNL     1       5.390   3.922  14.486  0.00  0.00    +0.000 C 
ATOM     10  C   UNL     1       4.568   3.802  16.756  0.00  0.00    +0.000 A 
ATOM     11  O   UNL     1       3.585   3.171  16.362  0.00  0.00    +0.000 OA
BRANCH   4  12
ATOM     12  N   UNL     1       6.007   5.175  19.922  0.00  0.00    +0.000 N 
ATOM     13  H   UNL     1       6.971   5.482  20.113  0.00  0.00    +0.000 HD
ATOM     14  H   UNL     1       5.723   4.458  20.576  0.00  0.00    +0.000 HD
ENDBRANCH   4  12
BRANCH   5  15
ATOM     15  C   UNL     1       7.846   6.209  18.009  0.00  0.00    +0.000 C 
BRANCH  15  16
ATOM     16  C   UNL     1       7.728   7.664  17.472  0.00  0.00    +0.000 C 
ATOM     17  C   UNL     1       6.253   8.094  17.395  0.00  0.00    +0.000 C 
ATOM     18  C   UNL     1       8.485   8.689  18.320  0.00  0.00    +0.000 C 
ENDBRANCH  15  16
ENDBRANCH   5  15
ENDBRANCH   1   3
BRANCH   1  19
ATOM     19  C   UNL     1       2.497   4.427  19.554  0.00  0.00    +0.000 C 
BRANCH  19  20
ATOM     20  O   UNL     1       2.820   5.727  20.089  0.00  0.00    +0.000 OA
BRANCH  20  21
ATOM     21  C   UNL     1       2.514   6.739  19.210  0.00  0.00    +0.000 C 
ATOM     22  O   UNL     1       2.753   6.679  18.015  0.00  0.00    +0.000 OA
BRANCH  21  27
ATOM     23  C   UNL     1       0.825   9.829  20.399  0.00  0.00    +0.000 A 
ATOM     24  C   UNL     1       0.902   9.056  21.553  0.00  0.00    +0.000 A 
ATOM     25  C   UNL     1       0.408   9.299  22.936  0.00  0.00    +0.000 C 
ATOM     26  N   UNL     1       1.536   7.877  21.223  0.00  0.00    +0.000 N 
ATOM     27  C   UNL     1       1.855   7.838  19.887  0.00  0.00    +0.000 A 
ATOM     28  C   UNL     1       1.419   9.052  19.341  0.00  0.00    +0.000 A 
ATOM     29  C   UNL     1       1.544   9.511  17.927  0.00  0.00    +0.000 C 
ATOM     30  H   UNL     1       1.721   7.117  21.868  0.00  0.00    +0.000 HD
BRANCH  23  31
ATOM     31  C   UNL     1       0.242  11.168  20.238  0.00  0.00    +0.000 C 
ATOM     32  O   UNL     1      -0.846  11.364  19.707  0.00  0.00    +0.000 OA
BRANCH  31  34
ATOM     33  C   UNL     1       1.798  12.820  19.669  0.00  0.00    +0.000 C 
ATOM     34  O   UNL     1       1.048  12.170  20.696  0.00  0.00    +0.000 OA
ENDBRANCH  31  34
ENDBRANCH  23  31
ENDBRANCH  21  27
ENDBRANCH  20  21
ENDBRANCH  19  20
ENDBRANCH   1  19
TORSDOF 10
ENDMDL
MODEL 9
REMARK VINA RESULT:      -6.6      2.895      7.975
REMARK  Name = 
REMARK  16 active torsions:
REMARK  status: ('A' for Active; 'I' for Inactive)
REMARK    1  A    between atoms: C_1  and  O_2
REMARK    2  A    between atoms: O_2  and  C_3
REMARK    3  A    between atoms: C_3  and  C_5
REMARK    4  A    between atoms: C_6  and  C_7
REMARK    5  A    between atoms: C_9  and  C_10
REMARK    6  A    between atoms: C_10  and  O_12
REMARK    7  A    between atoms: O_12  and  C_13
REMARK    8  A    between atoms: C_13  and  C_14
REMARK    9  A    between atoms: C_14  and  C_16
REMARK   10  A    between atoms: C_17  and  N_18
REMARK   11  A    between atoms: N_19  and  C_20
REMARK   12  A    between atoms: C_20  and  C_21
REMARK   13  A    between atoms: C_21  and  C_22
REMARK   14  A    between atoms: C_21  and  C_23
REMARK   15  A    between atoms: N_26  and  C_27
REMARK   16  A    between atoms: C_30  and  C_31
REMARK                            x       y       z     vdW  Elec       q    Type
REMARK                         _______ _______ _______ _____ _____    ______ ____
ROOT
ATOM      1  C   UNL     1       6.786   5.113  19.117  0.00  0.00    +0.000 C 
ATOM      2  O   UNL     1       7.144   5.727  20.131  0.00  0.00    +0.000 OA
ENDROOT
BRANCH   1   3
ATOM      3  C   UNL     1       5.311   4.922  18.832  0.00  0.00    +0.000 A 
ATOM      4  C   UNL     1       4.597   5.906  18.228  0.00  0.00    +0.000 A 
ATOM      5  N   UNL     1       3.242   5.707  17.931  0.00  0.00    +0.000 N 
ATOM      6  C   UNL     1       2.629   4.457  18.064  0.00  0.00    +0.000 A 
ATOM      7  O   UNL     1       1.551   4.189  17.531  0.00  0.00    +0.000 OA
ATOM      8  N   UNL     1       3.303   3.533  18.842  0.00  0.00    +0.000 N 
ATOM      9  C   UNL     1       2.623   2.304  19.215  0.00  0.00    +0.000 C 
ATOM     10  C   UNL     1       4.618   3.668  19.215  0.00  0.00    +0.000 A 
ATOM     11  O   UNL     1       5.218   2.781  19.827  0.00  0.00    +0.000 OA
BRANCH   4  12
ATOM     12  N   UNL     1       5.203   7.092  17.832  0.00  0.00    +0.000 N 
ATOM     13  H   UNL     1       4.524   7.816  17.557  0.00  0.00    +0.000 HD
ATOM     14  H   UNL     1       5.926   6.993  17.132  0.00  0.00    +0.000 HD
ENDBRANCH   4  12
BRANCH   5  15
ATOM     15  C   UNL     1       2.414   6.789  17.341  0.00  0.00    +0.000 C 
BRANCH  15  16
ATOM     16  C   UNL     1       1.758   7.750  18.376  0.00  0.00    +0.000 C 
ATOM     17  C   UNL     1       2.177   7.371  19.807  0.00  0.00    +0.000 C 
ATOM     18  C   UNL     1       2.107   9.221  18.145  0.00  0.00    +0.000 C 
ENDBRANCH  15  16
ENDBRANCH   5  15
ENDBRANCH   1   3
BRANCH   1  19
ATOM     19  C   UNL     1       7.828   4.610  18.105  0.00  0.00    +0.000 C 
BRANCH  19  20
ATOM     20  O   UNL     1       7.243   4.276  16.829  0.00  0.00    +0.000 OA
BRANCH  20  21
ATOM     21  C   UNL     1       7.325   5.315  15.933  0.00  0.00    +0.000 C 
ATOM     22  O   UNL     1       7.659   6.444  16.252  0.00  0.00    +0.000 OA
BRANCH  21  27
ATOM     23  C   UNL     1       6.075   3.837  12.760  0.00  0.00    +0.000 A 
ATOM     24  C   UNL     1       7.074   4.702  12.324  0.00  0.00    +0.000 A 
ATOM     25  C   UNL     1       7.545   5.053  10.958  0.00  0.00    +0.000 C 
ATOM     26  N   UNL     1       7.623   5.299  13.440  0.00  0.00    +0.000 N 
ATOM     27  C   UNL     1       7.002   4.875  14.590  0.00  0.00    +0.000 A 
ATOM     28  C   UNL     1       6.023   3.955  14.195  0.00  0.00    +0.000 A 
ATOM     29  C   UNL     1       5.083   3.194  15.070  0.00  0.00    +0.000 C 
ATOM     30  H   UNL     1       8.368   5.986  13.423  0.00  0.00    +0.000 HD
BRANCH  23  31
ATOM     31  C   UNL     1       5.205   2.972  11.952  0.00  0.00    +0.000 C 
ATOM     32  O   UNL     1       5.581   1.908  11.471  0.00  0.00    +0.000 OA
BRANCH  31  34
ATOM     33  C   UNL     1       3.566   3.534  10.380  0.00  0.00    +0.000 C 
ATOM     34  O   UNL     1       3.958   3.490  11.752  0.00  0.00    +0.000 OA
ENDBRANCH  31  34
ENDBRANCH  23  31
ENDBRANCH  21  27
ENDBRANCH  20  21
ENDBRANCH  19  20
ENDBRANCH   1  19
TORSDOF 10
ENDMDL
