MODEL 1
REMARK VINA RESULT:      -6.8      0.000      0.000
REMARK  Name = 
REMARK  2 active torsions:
REMARK  status: ('A' for Active; 'I' for Inactive)
REMARK    1  A    between atoms: C_1  and  O_2
REMARK    2  A    between atoms: O_2  and  C_3
REMARK                            x       y       z     vdW  Elec       q    Type
REMARK                         _______ _______ _______ _____ _____    ______ ____
ROOT
ATOM      1  C   UNL     1       6.725   6.172  17.009  0.00  0.00    +0.000 A 
ATOM      2  C   UNL     1       5.475   6.607  17.233  0.00  0.00    +0.000 A 
ATOM      3  C   UNL     1       4.384   5.683  17.543  0.00  0.00    +0.000 A 
ATOM      4  C   UNL     1       3.080   6.125  17.775  0.00  0.00    +0.000 A 
ATOM      5  C   UNL     1       2.068   5.203  18.061  0.00  0.00    +0.000 A 
ATOM      6  C   UNL     1       2.354   3.837  18.117  0.00  0.00    +0.000 A 
ATOM      7  C   UNL     1       3.653   3.387  17.890  0.00  0.00    +0.000 A 
ATOM      8  C   UNL     1       4.657   4.312  17.607  0.00  0.00    +0.000 A 
ATOM      9  N   UNL     1       5.961   3.864  17.388  0.00  0.00    +0.000 N 
ATOM     10  C   UNL     1       7.018   4.688  17.115  0.00  0.00    +0.000 A 
ATOM     11  O   UNL     1       8.138   4.206  16.973  0.00  0.00    +0.000 OA
ATOM     12  H   UNL     1       6.183   2.881  17.452  0.00  0.00    +0.000 HD
ENDROOT
BRANCH   1  14
ATOM     13  C   UNL     1       7.825   8.178  17.668  0.00  0.00    +0.000 C 
ATOM     14  O   UNL     1       7.712   7.111  16.730  0.00  0.00    +0.000 OA
ENDBRANCH   1  14
TORSDOF 1
ENDMDL
MODEL 2
REMARK VINA RESULT:      -6.4      1.785      2.158
REMARK  Name = 
REMARK  2 active torsions:
REMARK  status: ('A' for Active; 'I' for Inactive)
REMARK    1  A    between atoms: C_1  and  O_2
REMARK    2  A    between atoms: O_2  and  C_3
REMARK                            x       y       z     vdW  Elec       q    Type
REMARK                         _______ _______ _______ _____ _____    ______ ____
ROOT
ATOM      1  C   UNL     1       5.820   4.953  16.740  0.00  0.00    +0.000 A 
ATOM      2  C   UNL     1       4.499   4.764  16.593  0.00  0.00    +0.000 A 
ATOM      3  C   UNL     1       3.711   4.040  17.591  0.00  0.00    +0.000 A 
ATOM      4  C   UNL     1       2.337   3.837  17.446  0.00  0.00    +0.000 A 
ATOM      5  C   UNL     1       1.627   3.132  18.424  0.00  0.00    +0.000 A 
ATOM      6  C   UNL     1       2.284   2.630  19.549  0.00  0.00    +0.000 A 
ATOM      7  C   UNL     1       3.654   2.832  19.703  0.00  0.00    +0.000 A 
ATOM      8  C   UNL     1       4.357   3.536  18.725  0.00  0.00    +0.000 A 
ATOM      9  N   UNL     1       5.727   3.746  18.882  0.00  0.00    +0.000 N 
ATOM     10  C   UNL     1       6.503   4.433  17.989  0.00  0.00    +0.000 A 
ATOM     11  O   UNL     1       7.695   4.600  18.230  0.00  0.00    +0.000 OA
ATOM     12  H   UNL     1       6.206   3.411  19.705  0.00  0.00    +0.000 HD
ENDROOT
BRANCH   1  14
ATOM     13  C   UNL     1       6.927   4.889  14.633  0.00  0.00    +0.000 C 
ATOM     14  O   UNL     1       6.501   5.659  15.754  0.00  0.00    +0.000 OA
ENDBRANCH   1  14
TORSDOF 1
ENDMDL
MODEL 3
REMARK VINA RESULT:      -6.4      1.524      1.848
REMARK  Name = 
REMARK  2 active torsions:
REMARK  status: ('A' for Active; 'I' for Inactive)
REMARK    1  A    between atoms: C_1  and  O_2
REMARK    2  A    between atoms: O_2  and  C_3
REMARK                            x       y       z     vdW  Elec       q    Type
REMARK                         _______ _______ _______ _____ _____    ______ ____
ROOT
ATOM      1  C   UNL     1       6.572   5.383  16.327  0.00  0.00    +0.000 A 
ATOM      2  C   UNL     1       5.315   5.840  16.436  0.00  0.00    +0.000 A 
ATOM      3  C   UNL     1       4.480   5.523  17.595  0.00  0.00    +0.000 A 
ATOM      4  C   UNL     1       3.170   5.991  17.717  0.00  0.00    +0.000 A 
ATOM      5  C   UNL     1       2.408   5.655  18.842  0.00  0.00    +0.000 A 
ATOM      6  C   UNL     1       2.951   4.853  19.847  0.00  0.00    +0.000 A 
ATOM      7  C   UNL     1       4.258   4.385  19.736  0.00  0.00    +0.000 A 
ATOM      8  C   UNL     1       5.013   4.723  18.613  0.00  0.00    +0.000 A 
ATOM      9  N   UNL     1       6.325   4.262  18.503  0.00  0.00    +0.000 N 
ATOM     10  C   UNL     1       7.152   4.547  17.451  0.00  0.00    +0.000 A 
ATOM     11  O   UNL     1       8.305   4.127  17.458  0.00  0.00    +0.000 OA
ATOM     12  H   UNL     1       6.735   3.703  19.237  0.00  0.00    +0.000 HD
ENDROOT
BRANCH   1  14
ATOM     13  C   UNL     1       7.107   4.909  14.056  0.00  0.00    +0.000 C 
ATOM     14  O   UNL     1       7.308   5.734  15.200  0.00  0.00    +0.000 OA
ENDBRANCH   1  14
TORSDOF 1
ENDMDL
MODEL 4
REMARK VINA RESULT:      -6.3      2.442      4.503
REMARK  Name = 
REMARK  2 active torsions:
REMARK  status: ('A' for Active; 'I' for Inactive)
REMARK    1  A    between atoms: C_1  and  O_2
REMARK    2  A    between atoms: O_2  and  C_3
REMARK                            x       y       z     vdW  Elec       q    Type
REMARK                         _______ _______ _______ _____ _____    ______ ____
ROOT
ATOM      1  C   UNL     1       3.853   4.147  17.737  0.00  0.00    +0.000 A 
ATOM      2  C   UNL     1       4.369   5.255  17.182  0.00  0.00    +0.000 A 
ATOM      3  C   UNL     1       5.644   5.816  17.630  0.00  0.00    +0.000 A 
ATOM      4  C   UNL     1       6.188   6.969  17.061  0.00  0.00    +0.000 A 
ATOM      5  C   UNL     1       7.407   7.472  17.527  0.00  0.00    +0.000 A 
ATOM      6  C   UNL     1       8.087   6.826  18.562  0.00  0.00    +0.000 A 
ATOM      7  C   UNL     1       7.553   5.672  19.133  0.00  0.00    +0.000 A 
ATOM      8  C   UNL     1       6.338   5.176  18.663  0.00  0.00    +0.000 A 
ATOM      9  N   UNL     1       5.806   4.016  19.227  0.00  0.00    +0.000 N 
ATOM     10  C   UNL     1       4.630   3.441  18.831  0.00  0.00    +0.000 A 
ATOM     11  O   UNL     1       4.258   2.399  19.362  0.00  0.00    +0.000 OA
ATOM     12  H   UNL     1       6.303   3.527  19.957  0.00  0.00    +0.000 HD
ENDROOT
BRANCH   1  14
ATOM     13  C   UNL     1       1.485   4.079  17.977  0.00  0.00    +0.000 C 
ATOM     14  O   UNL     1       2.641   3.667  17.251  0.00  0.00    +0.000 OA
ENDBRANCH   1  14
TORSDOF 1
ENDMDL
MODEL 5
REMARK VINA RESULT:      -6.3      1.989      2.639
REMARK  Name = 
REMARK  2 active torsions:
REMARK  status: ('A' for Active; 'I' for Inactive)
REMARK    1  A    between atoms: C_1  and  O_2
REMARK    2  A    between atoms: O_2  and  C_3
REMARK                            x       y       z     vdW  Elec       q    Type
REMARK                         _______ _______ _______ _____ _____    ______ ____
ROOT
ATOM      1  C   UNL     1       4.861   5.048  17.329  0.00  0.00    +0.000 A 
ATOM      2  C   UNL     1       3.529   4.954  17.468  0.00  0.00    +0.000 A 
ATOM      3  C   UNL     1       2.922   4.148  18.528  0.00  0.00    +0.000 A 
ATOM      4  C   UNL     1       1.538   4.042  18.679  0.00  0.00    +0.000 A 
ATOM      5  C   UNL     1       1.004   3.254  19.704  0.00  0.00    +0.000 A 
ATOM      6  C   UNL     1       1.848   2.571  20.581  0.00  0.00    +0.000 A 
ATOM      7  C   UNL     1       3.230   2.675  20.441  0.00  0.00    +0.000 A 
ATOM      8  C   UNL     1       3.757   3.462  19.417  0.00  0.00    +0.000 A 
ATOM      9  N   UNL     1       5.141   3.574  19.279  0.00  0.00    +0.000 N 
ATOM     10  C   UNL     1       5.756   4.329  18.319  0.00  0.00    +0.000 A 
ATOM     11  O   UNL     1       6.982   4.397  18.298  0.00  0.00    +0.000 OA
ATOM     12  H   UNL     1       5.760   3.105  19.925  0.00  0.00    +0.000 HD
ENDROOT
BRANCH   1  14
ATOM     13  C   UNL     1       5.630   5.161  15.079  0.00  0.00    +0.000 C 
ATOM     14  O   UNL     1       5.365   5.840  16.304  0.00  0.00    +0.000 OA
ENDBRANCH   1  14
TORSDOF 1
ENDMDL
MODEL 6
REMARK VINA RESULT:      -6.1      3.040      4.878
REMARK  Name = 
REMARK  2 active torsions:
REMARK  status: ('A' for Active; 'I' for Inactive)
REMARK    1  A    between atoms: C_1  and  O_2
REMARK    2  A    between atoms: O_2  and  C_3
REMARK                            x       y       z     vdW  Elec       q    Type
REMARK                         _______ _______ _______ _____ _____    ______ ____
ROOT
ATOM      1  C   UNL     1       3.342   2.655  18.468  0.00  0.00    +0.000 A 
ATOM      2  C   UNL     1       3.554   3.291  17.306  0.00  0.00    +0.000 A 
ATOM      3  C   UNL     1       4.749   4.106  17.084  0.00  0.00    +0.000 A 
ATOM      4  C   UNL     1       4.979   4.774  15.879  0.00  0.00    +0.000 A 
ATOM      5  C   UNL     1       6.133   5.547  15.715  0.00  0.00    +0.000 A 
ATOM      6  C   UNL     1       7.062   5.655  16.752  0.00  0.00    +0.000 A 
ATOM      7  C   UNL     1       6.843   4.988  17.956  0.00  0.00    +0.000 A 
ATOM      8  C   UNL     1       5.691   4.219  18.113  0.00  0.00    +0.000 A 
ATOM      9  N   UNL     1       5.474   3.544  19.315  0.00  0.00    +0.000 N 
ATOM     10  C   UNL     1       4.385   2.755  19.564  0.00  0.00    +0.000 A 
ATOM     11  O   UNL     1       4.297   2.170  20.639  0.00  0.00    +0.000 OA
ATOM     12  H   UNL     1       6.152   3.594  20.060  0.00  0.00    +0.000 HD
ENDROOT
BRANCH   1  14
ATOM     13  C   UNL     1       0.983   2.629  18.794  0.00  0.00    +0.000 C 
ATOM     14  O   UNL     1       2.187   1.891  18.602  0.00  0.00    +0.000 OA
ENDBRANCH   1  14
TORSDOF 1
ENDMDL
MODEL 7
REMARK VINA RESULT:      -6.1      2.960      4.737
REMARK  Name = 
REMARK  2 active torsions:
REMARK  status: ('A' for Active; 'I' for Inactive)
REMARK    1  A    between atoms: C_1  and  O_2
REMARK    2  A    between atoms: O_2  and  C_3
REMARK                            x       y       z     vdW  Elec       q    Type
REMARK                         _______ _______ _______ _____ _____    ______ ____
ROOT
ATOM      1  C   UNL     1       3.056   3.099  19.722  0.00  0.00    +0.000 A 
ATOM      2  C   UNL     1       2.738   4.216  19.049  0.00  0.00    +0.000 A 
ATOM      3  C   UNL     1       3.762   5.064  18.439  0.00  0.00    +0.000 A 
ATOM      4  C   UNL     1       3.441   6.229  17.739  0.00  0.00    +0.000 A 
ATOM      5  C   UNL     1       4.457   7.012  17.179  0.00  0.00    +0.000 A 
ATOM      6  C   UNL     1       5.794   6.635  17.315  0.00  0.00    +0.000 A 
ATOM      7  C   UNL     1       6.123   5.472  18.009  0.00  0.00    +0.000 A 
ATOM      8  C   UNL     1       5.107   4.695  18.564  0.00  0.00    +0.000 A 
ATOM      9  N   UNL     1       5.433   3.526  19.252  0.00  0.00    +0.000 N 
ATOM     10  C   UNL     1       4.513   2.690  19.821  0.00  0.00    +0.000 A 
ATOM     11  O   UNL     1       4.892   1.662  20.375  0.00  0.00    +0.000 OA
ATOM     12  H   UNL     1       6.395   3.231  19.333  0.00  0.00    +0.000 HD
ENDROOT
BRANCH   1  14
ATOM     13  C   UNL     1       1.637   2.692  21.589  0.00  0.00    +0.000 C 
ATOM     14  O   UNL     1       2.027   2.338  20.265  0.00  0.00    +0.000 OA
ENDBRANCH   1  14
TORSDOF 1
ENDMDL
MODEL 8
REMARK VINA RESULT:      -6.1      1.525      2.612
REMARK  Name = 
REMARK  2 active torsions:
REMARK  status: ('A' for Active; 'I' for Inactive)
REMARK    1  A    between atoms: C_1  and  O_2
REMARK    2  A    between atoms: O_2  and  C_3
REMARK                            x       y       z     vdW  Elec       q    Type
REMARK                         _______ _______ _______ _____ _____    ______ ____
ROOT
ATOM      1  C   UNL     1       6.291   5.146  16.165  0.00  0.00    +0.000 A 
ATOM      2  C   UNL     1       5.352   4.190  16.240  0.00  0.00    +0.000 A 
ATOM      3  C   UNL     1       4.119   4.383  17.004  0.00  0.00    +0.000 A 
ATOM      4  C   UNL     1       3.137   3.394  17.091  0.00  0.00    +0.000 A 
ATOM      5  C   UNL     1       1.978   3.621  17.840  0.00  0.00    +0.000 A 
ATOM      6  C   UNL     1       1.794   4.836  18.503  0.00  0.00    +0.000 A 
ATOM      7  C   UNL     1       2.767   5.830  18.419  0.00  0.00    +0.000 A 
ATOM      8  C   UNL     1       3.920   5.597  17.671  0.00  0.00    +0.000 A 
ATOM      9  N   UNL     1       4.892   6.595  17.578  0.00  0.00    +0.000 N 
ATOM     10  C   UNL     1       6.050   6.471  16.861  0.00  0.00    +0.000 A 
ATOM     11  O   UNL     1       6.830   7.418  16.808  0.00  0.00    +0.000 OA
ATOM     12  H   UNL     1       4.756   7.486  18.033  0.00  0.00    +0.000 HD
ENDROOT
BRANCH   1  14
ATOM     13  C   UNL     1       7.232   4.819  14.003  0.00  0.00    +0.000 C 
ATOM     14  O   UNL     1       7.433   4.894  15.412  0.00  0.00    +0.000 OA
ENDBRANCH   1  14
TORSDOF 1
ENDMDL
MODEL 9
REMARK VINA RESULT:      -6.0      2.200      3.114
REMARK  Name = 
REMARK  2 active torsions:
REMARK  status: ('A' for Active; 'I' for Inactive)
REMARK    1  A    between atoms: C_1  and  O_2
REMARK    2  A    between atoms: O_2  and  C_3
REMARK                            x       y       z     vdW  Elec       q    Type
REMARK                         _______ _______ _______ _____ _____    ______ ____
ROOT
ATOM      1  C   UNL     1       4.960   4.270  17.290  0.00  0.00    +0.000 A 
ATOM      2  C   UNL     1       3.799   3.598  17.279  0.00  0.00    +0.000 A 
ATOM      3  C   UNL     1       2.856   3.676  18.394  0.00  0.00    +0.000 A 
ATOM      4  C   UNL     1       1.646   2.978  18.393  0.00  0.00    +0.000 A 
ATOM      5  C   UNL     1       0.779   3.079  19.487  0.00  0.00    +0.000 A 
ATOM      6  C   UNL     1       1.115   3.876  20.582  0.00  0.00    +0.000 A 
ATOM      7  C   UNL     1       2.318   4.579  20.590  0.00  0.00    +0.000 A 
ATOM      8  C   UNL     1       3.178   4.475  19.497  0.00  0.00    +0.000 A 
ATOM      9  N   UNL     1       4.379   5.185  19.499  0.00  0.00    +0.000 N 
ATOM     10  C   UNL     1       5.284   5.161  18.473  0.00  0.00    +0.000 A 
ATOM     11  O   UNL     1       6.299   5.848  18.548  0.00  0.00    +0.000 OA
ATOM     12  H   UNL     1       4.619   5.784  20.275  0.00  0.00    +0.000 HD
ENDROOT
BRANCH   1  14
ATOM     13  C   UNL     1       5.582   5.102  15.147  0.00  0.00    +0.000 C 
ATOM     14  O   UNL     1       5.802   4.155  16.189  0.00  0.00    +0.000 OA
ENDBRANCH   1  14
TORSDOF 1
ENDMDL
