MODEL 1
REMARK VINA RESULT:      -8.0      0.000      0.000
REMARK  Name = 
REMARK  11 active torsions:
REMARK  status: ('A' for Active; 'I' for Inactive)
REMARK    1  A    between atoms: C_1  and  O_2
REMARK    2  A    between atoms: O_2  and  C_3
REMARK    3  A    between atoms: C_5  and  C_6
REMARK    4  A    between atoms: C_6  and  N_7
REMARK    5  A    between atoms: C_8  and  C_10
REMARK    6  A    between atoms: C_12  and  C_13
REMARK    7  A    between atoms: N_16  and  C_17
REMARK    8  A    between atoms: C_17  and  C_18
REMARK    9  A    between atoms: C_21  and  C_22
REMARK   10  A    between atoms: C_22  and  O_24
REMARK   11  A    between atoms: C_29  and  C_30
REMARK                            x       y       z     vdW  Elec       q    Type
REMARK                         _______ _______ _______ _____ _____    ______ ____
ROOT
ATOM      1  C   UNL     1       4.366   4.784  18.777  0.00  0.00    +0.000 A 
ATOM      2  C   UNL     1       3.837   6.036  19.051  0.00  0.00    +0.000 A 
ATOM      3  C   UNL     1       2.546   6.055  19.527  0.00  0.00    +0.000 A 
ATOM      4  N   UNL     1       1.822   4.928  19.698  0.00  0.00    +0.000 NA
ATOM      5  C   UNL     1       2.407   3.761  19.382  0.00  0.00    +0.000 A 
ATOM      6  C   UNL     1       1.608   2.508  19.552  0.00  0.00    +0.000 C 
ATOM      7  N   UNL     1       3.658   3.644  18.929  0.00  0.00    +0.000 NA
ENDROOT
BRANCH   3   8
ATOM      8  C   UNL     1       1.887   7.314  19.890  0.00  0.00    +0.000 A 
ATOM      9  N   UNL     1       1.430   7.592  21.160  0.00  0.00    +0.000 NA
ATOM     10  N   UNL     1       0.917   8.815  21.135  0.00  0.00    +0.000 NA
ATOM     11  N   UNL     1       1.072   9.225  19.868  0.00  0.00    +0.000 N 
ATOM     12  N   UNL     1       1.657   8.337  19.037  0.00  0.00    +0.000 NA
BRANCH  11  13
ATOM     13  C   UNL     1       0.610  10.511  19.406  0.00  0.00    +0.000 C 
BRANCH  13  14
ATOM     14  C   UNL     1      -0.853  10.571  18.945  0.00  0.00    +0.000 C 
ATOM     15  C   UNL     1      -1.379  12.005  18.770  0.00  0.00    +0.000 C 
ATOM     16  O   UNL     1      -2.748  11.989  18.311  0.00  0.00    +0.000 OA
ATOM     17  C   UNL     1      -2.821  11.346  17.027  0.00  0.00    +0.000 C 
ATOM     18  C   UNL     1      -2.287   9.909  17.136  0.00  0.00    +0.000 C 
ATOM     19  O   UNL     1      -0.936   9.897  17.658  0.00  0.00    +0.000 OA
BRANCH  17  20
ATOM     20  C   UNL     1      -4.247  11.421  16.444  0.00  0.00    +0.000 C 
ATOM     21  O   UNL     1      -5.129  12.073  16.955  0.00  0.00    +0.000 OA
BRANCH  20  22
ATOM     22  O   UNL     1      -4.474  10.661  15.346  0.00  0.00    +0.000 OA
ATOM     23  H   UNL     1      -3.677  10.263  14.946  0.00  0.00    +0.000 HD
ENDBRANCH  20  22
ENDBRANCH  17  20
ENDBRANCH  13  14
ENDBRANCH  11  13
ENDBRANCH   3   8
BRANCH   1  25
ATOM     24  N   UNL     1       5.976   4.603  16.929  0.00  0.00    +0.000 N 
ATOM     25  C   UNL     1       5.789   4.610  18.294  0.00  0.00    +0.000 C 
ATOM     26  O   UNL     1       6.725   4.510  19.090  0.00  0.00    +0.000 OA
ATOM     27  H   UNL     1       5.266   5.025  16.356  0.00  0.00    +0.000 HD
BRANCH  24  28
ATOM     28  C   UNL     1       7.285   4.457  16.315  0.00  0.00    +0.000 C 
BRANCH  28  31
ATOM     29  C   UNL     1       6.232   3.868  12.668  0.00  0.00    +0.000 A 
ATOM     30  C   UNL     1       6.308   3.800  14.070  0.00  0.00    +0.000 A 
ATOM     31  C   UNL     1       7.242   4.554  14.802  0.00  0.00    +0.000 A 
ATOM     32  C   UNL     1       8.117   5.401  14.087  0.00  0.00    +0.000 A 
ATOM     33  C   UNL     1       8.036   5.476  12.695  0.00  0.00    +0.000 A 
ATOM     34  C   UNL     1       7.112   4.731  11.998  0.00  0.00    +0.000 A 
ATOM     35  F   UNL     1       7.066   4.888  10.667  0.00  0.00    +0.000 F 
BRANCH  29  37
ATOM     36  C   UNL     1       5.743   1.874  11.493  0.00  0.00    +0.000 C 
ATOM     37  O   UNL     1       5.276   3.094  12.071  0.00  0.00    +0.000 OA
ENDBRANCH  29  37
ENDBRANCH  28  31
ENDBRANCH  24  28
ENDBRANCH   1  25
TORSDOF 9
ENDMDL
MODEL 2
REMARK VINA RESULT:      -7.8      4.632     11.856
REMARK  Name = 
REMARK  11 active torsions:
REMARK  status: ('A' for Active; 'I' for Inactive)
REMARK    1  A    between atoms: C_1  and  O_2
REMARK    2  A    between atoms: O_2  and  C_3
REMARK    3  A    between atoms: C_5  and  C_6
REMARK    4  A    between atoms: C_6  and  N_7
REMARK    5  A    between atoms: C_8  and  C_10
REMARK    6  A    between atoms: C_12  and  C_13
REMARK    7  A    between atoms: N_16  and  C_17
REMARK    8  A    between atoms: C_17  and  C_18
REMARK    9  A    between atoms: C_21  and  C_22
REMARK   10  A    between atoms: C_22  and  O_24
REMARK   11  A    between atoms: C_29  and  C_30
REMARK                            x       y       z     vdW  Elec       q    Type
REMARK                         _______ _______ _______ _____ _____    ______ ____
ROOT
ATOM      1  C   UNL     1       0.468   9.635  21.085  0.00  0.00    +0.000 A 
ATOM      2  C   UNL     1       0.988   8.351  21.139  0.00  0.00    +0.000 A 
ATOM      3  C   UNL     1       1.717   7.949  20.044  0.00  0.00    +0.000 A 
ATOM      4  N   UNL     1       1.901   8.742  18.967  0.00  0.00    +0.000 NA
ATOM      5  C   UNL     1       1.339   9.962  18.991  0.00  0.00    +0.000 A 
ATOM      6  C   UNL     1       1.523  10.842  17.797  0.00  0.00    +0.000 C 
ATOM      7  N   UNL     1       0.627  10.442  20.015  0.00  0.00    +0.000 NA
ENDROOT
BRANCH   3   8
ATOM      8  C   UNL     1       2.352   6.628  19.996  0.00  0.00    +0.000 A 
ATOM      9  N   UNL     1       1.940   5.560  20.765  0.00  0.00    +0.000 NA
ATOM     10  N   UNL     1       2.711   4.528  20.451  0.00  0.00    +0.000 NA
ATOM     11  N   UNL     1       3.556   5.001  19.523  0.00  0.00    +0.000 N 
ATOM     12  N   UNL     1       3.396   6.302  19.201  0.00  0.00    +0.000 NA
BRANCH  11  13
ATOM     13  C   UNL     1       4.594   4.193  18.932  0.00  0.00    +0.000 C 
BRANCH  13  14
ATOM     14  C   UNL     1       5.200   4.731  17.628  0.00  0.00    +0.000 C 
ATOM     15  C   UNL     1       6.727   4.573  17.555  0.00  0.00    +0.000 C 
ATOM     16  O   UNL     1       7.228   5.073  16.296  0.00  0.00    +0.000 OA
ATOM     17  C   UNL     1       6.666   4.310  15.214  0.00  0.00    +0.000 C 
ATOM     18  C   UNL     1       5.133   4.415  15.248  0.00  0.00    +0.000 C 
ATOM     19  O   UNL     1       4.613   3.980  16.529  0.00  0.00    +0.000 OA
BRANCH  17  20
ATOM     20  C   UNL     1       7.273   4.731  13.860  0.00  0.00    +0.000 C 
ATOM     21  O   UNL     1       6.971   4.201  12.815  0.00  0.00    +0.000 OA
BRANCH  20  22
ATOM     22  O   UNL     1       8.216   5.702  13.915  0.00  0.00    +0.000 OA
ATOM     23  H   UNL     1       8.950   5.532  14.536  0.00  0.00    +0.000 HD
ENDBRANCH  20  22
ENDBRANCH  17  20
ENDBRANCH  13  14
ENDBRANCH  11  13
ENDBRANCH   3   8
BRANCH   1  25
ATOM     24  N   UNL     1      -0.584  11.575  22.168  0.00  0.00    +0.000 N 
ATOM     25  C   UNL     1      -0.314  10.225  22.238  0.00  0.00    +0.000 C 
ATOM     26  O   UNL     1      -0.708   9.521  23.169  0.00  0.00    +0.000 OA
ATOM     27  H   UNL     1      -0.555  12.013  21.264  0.00  0.00    +0.000 HD
BRANCH  24  28
ATOM     28  C   UNL     1      -1.333  12.281  23.193  0.00  0.00    +0.000 C 
BRANCH  28  31
ATOM     29  C   UNL     1      -5.057  12.970  22.547  0.00  0.00    +0.000 A 
ATOM     30  C   UNL     1      -3.859  12.401  23.012  0.00  0.00    +0.000 A 
ATOM     31  C   UNL     1      -2.601  12.922  22.661  0.00  0.00    +0.000 A 
ATOM     32  C   UNL     1      -2.565  14.053  21.817  0.00  0.00    +0.000 A 
ATOM     33  C   UNL     1      -3.755  14.626  21.362  0.00  0.00    +0.000 A 
ATOM     34  C   UNL     1      -4.975  14.101  21.720  0.00  0.00    +0.000 A 
ATOM     35  F   UNL     1      -6.075  14.729  21.278  0.00  0.00    +0.000 F 
BRANCH  29  37
ATOM     36  C   UNL     1      -6.893  13.038  24.037  0.00  0.00    +0.000 C 
ATOM     37  O   UNL     1      -6.216  12.379  22.966  0.00  0.00    +0.000 OA
ENDBRANCH  29  37
ENDBRANCH  28  31
ENDBRANCH  24  28
ENDBRANCH   1  25
TORSDOF 9
ENDMDL
MODEL 3
REMARK VINA RESULT:      -7.6      1.408      1.932
REMARK  Name = 
REMARK  11 active torsions:
REMARK  status: ('A' for Active; 'I' for Inactive)
REMARK    1  A    between atoms: C_1  and  O_2
REMARK    2  A    between atoms: O_2  and  C_3
REMARK    3  A    between atoms: C_5  and  C_6
REMARK    4  A    between atoms: C_6  and  N_7
REMARK    5  A    between atoms: C_8  and  C_10
REMARK    6  A    between atoms: C_12  and  C_13
REMARK    7  A    between atoms: N_16  and  C_17
REMARK    8  A    between atoms: C_17  and  C_18
REMARK    9  A    between atoms: C_21  and  C_22
REMARK   10  A    between atoms: C_22  and  O_24
REMARK   11  A    between atoms: C_29  and  C_30
REMARK                            x       y       z     vdW  Elec       q    Type
REMARK                         _______ _______ _______ _____ _____    ______ ____
ROOT
ATOM      1  C   UNL     1       3.736   4.955  19.571  0.00  0.00    +0.000 A 
ATOM      2  C   UNL     1       3.207   6.235  19.616  0.00  0.00    +0.000 A 
ATOM      3  C   UNL     1       2.008   6.369  20.278  0.00  0.00    +0.000 A 
ATOM      4  N   UNL     1       1.367   5.318  20.833  0.00  0.00    +0.000 NA
ATOM      5  C   UNL     1       1.943   4.109  20.718  0.00  0.00    +0.000 A 
ATOM      6  C   UNL     1       1.233   2.936  21.315  0.00  0.00    +0.000 C 
ATOM      7  N   UNL     1       3.109   3.886  20.107  0.00  0.00    +0.000 NA
ENDROOT
BRANCH   3   8
ATOM      8  C   UNL     1       1.363   7.677  20.428  0.00  0.00    +0.000 A 
ATOM      9  N   UNL     1       0.362   7.930  21.341  0.00  0.00    +0.000 NA
ATOM     10  N   UNL     1       0.033   9.209  21.222  0.00  0.00    +0.000 NA
ATOM     11  N   UNL     1       0.827   9.678  20.249  0.00  0.00    +0.000 N 
ATOM     12  N   UNL     1       1.671   8.776  19.703  0.00  0.00    +0.000 NA
BRANCH  11  13
ATOM     13  C   UNL     1       0.764  11.041  19.783  0.00  0.00    +0.000 C 
BRANCH  13  14
ATOM     14  C   UNL     1      -0.430  11.385  18.881  0.00  0.00    +0.000 C 
ATOM     15  C   UNL     1      -0.803  10.255  17.908  0.00  0.00    +0.000 C 
ATOM     16  O   UNL     1      -1.947  10.632  17.110  0.00  0.00    +0.000 OA
ATOM     17  C   UNL     1      -3.081  10.853  17.966  0.00  0.00    +0.000 C 
ATOM     18  C   UNL     1      -2.758  11.964  18.978  0.00  0.00    +0.000 C 
ATOM     19  O   UNL     1      -1.574  11.637  19.744  0.00  0.00    +0.000 OA
BRANCH  17  20
ATOM     20  C   UNL     1      -4.355  11.135  17.143  0.00  0.00    +0.000 C 
ATOM     21  O   UNL     1      -5.338  11.658  17.616  0.00  0.00    +0.000 OA
BRANCH  20  22
ATOM     22  O   UNL     1      -4.331  10.706  15.858  0.00  0.00    +0.000 OA
ATOM     23  H   UNL     1      -3.816  11.265  15.245  0.00  0.00    +0.000 HD
ENDBRANCH  20  22
ENDBRANCH  17  20
ENDBRANCH  13  14
ENDBRANCH  11  13
ENDBRANCH   3   8
BRANCH   1  25
ATOM     24  N   UNL     1       5.559   5.641  18.071  0.00  0.00    +0.000 N 
ATOM     25  C   UNL     1       5.071   4.669  18.918  0.00  0.00    +0.000 C 
ATOM     26  O   UNL     1       5.691   3.632  19.160  0.00  0.00    +0.000 OA
ATOM     27  H   UNL     1       5.207   6.576  18.178  0.00  0.00    +0.000 HD
BRANCH  24  28
ATOM     28  C   UNL     1       6.831   5.516  17.380  0.00  0.00    +0.000 C 
BRANCH  28  31
ATOM     29  C   UNL     1       7.463   4.971  13.630  0.00  0.00    +0.000 A 
ATOM     30  C   UNL     1       7.561   5.434  14.954  0.00  0.00    +0.000 A 
ATOM     31  C   UNL     1       6.684   4.997  15.962  0.00  0.00    +0.000 A 
ATOM     32  C   UNL     1       5.685   4.063  15.613  0.00  0.00    +0.000 A 
ATOM     33  C   UNL     1       5.593   3.595  14.300  0.00  0.00    +0.000 A 
ATOM     34  C   UNL     1       6.463   4.034  13.329  0.00  0.00    +0.000 A 
ATOM     35  F   UNL     1       6.339   3.509  12.101  0.00  0.00    +0.000 F 
BRANCH  29  37
ATOM     36  C   UNL     1       7.852   6.294  11.709  0.00  0.00    +0.000 C 
ATOM     37  O   UNL     1       8.380   5.463  12.743  0.00  0.00    +0.000 OA
ENDBRANCH  29  37
ENDBRANCH  28  31
ENDBRANCH  24  28
ENDBRANCH   1  25
TORSDOF 9
ENDMDL
MODEL 4
REMARK VINA RESULT:      -7.6      5.026     11.308
REMARK  Name = 
REMARK  11 active torsions:
REMARK  status: ('A' for Active; 'I' for Inactive)
REMARK    1  A    between atoms: C_1  and  O_2
REMARK    2  A    between atoms: O_2  and  C_3
REMARK    3  A    between atoms: C_5  and  C_6
REMARK    4  A    between atoms: C_6  and  N_7
REMARK    5  A    between atoms: C_8  and  C_10
REMARK    6  A    between atoms: C_12  and  C_13
REMARK    7  A    between atoms: N_16  and  C_17
REMARK    8  A    between atoms: C_17  and  C_18
REMARK    9  A    between atoms: C_21  and  C_22
REMARK   10  A    between atoms: C_22  and  O_24
REMARK   11  A    between atoms: C_29  and  C_30
REMARK                            x       y       z     vdW  Elec       q    Type
REMARK                         _______ _______ _______ _____ _____    ______ ____
ROOT
ATOM      1  C   UNL     1       0.699  12.965  21.253  0.00  0.00    +0.000 A 
ATOM      2  C   UNL     1       1.251  11.942  20.498  0.00  0.00    +0.000 A 
ATOM      3  C   UNL     1       0.715  10.690  20.693  0.00  0.00    +0.000 A 
ATOM      4  N   UNL     1      -0.275  10.458  21.583  0.00  0.00    +0.000 NA
ATOM      5  C   UNL     1      -0.731  11.506  22.290  0.00  0.00    +0.000 A 
ATOM      6  C   UNL     1      -1.815  11.258  23.289  0.00  0.00    +0.000 C 
ATOM      7  N   UNL     1      -0.282  12.757  22.157  0.00  0.00    +0.000 NA
ENDROOT
BRANCH   3   8
ATOM      8  C   UNL     1       1.186   9.532  19.928  0.00  0.00    +0.000 A 
ATOM      9  N   UNL     1       1.334   9.537  18.557  0.00  0.00    +0.000 NA
ATOM     10  N   UNL     1       1.798   8.346  18.206  0.00  0.00    +0.000 NA
ATOM     11  N   UNL     1       1.905   7.667  19.357  0.00  0.00    +0.000 N 
ATOM     12  N   UNL     1       1.530   8.340  20.466  0.00  0.00    +0.000 NA
BRANCH  11  13
ATOM     13  C   UNL     1       2.350   6.296  19.413  0.00  0.00    +0.000 C 
BRANCH  13  14
ATOM     14  C   UNL     1       3.857   6.075  19.215  0.00  0.00    +0.000 C 
ATOM     15  C   UNL     1       4.285   4.608  19.390  0.00  0.00    +0.000 C 
ATOM     16  O   UNL     1       5.704   4.465  19.165  0.00  0.00    +0.000 OA
ATOM     17  C   UNL     1       6.021   4.847  17.815  0.00  0.00    +0.000 C 
ATOM     18  C   UNL     1       5.596   6.304  17.576  0.00  0.00    +0.000 C 
ATOM     19  O   UNL     1       4.187   6.485  17.860  0.00  0.00    +0.000 OA
BRANCH  17  20
ATOM     20  C   UNL     1       7.508   4.589  17.497  0.00  0.00    +0.000 C 
ATOM     21  O   UNL     1       7.922   4.457  16.367  0.00  0.00    +0.000 OA
BRANCH  20  22
ATOM     22  O   UNL     1       8.326   4.461  18.570  0.00  0.00    +0.000 OA
ATOM     23  H   UNL     1       7.884   4.537  19.438  0.00  0.00    +0.000 HD
ENDBRANCH  20  22
ENDBRANCH  17  20
ENDBRANCH  13  14
ENDBRANCH  11  13
ENDBRANCH   3   8
BRANCH   1  25
ATOM     24  N   UNL     1       0.174  15.363  21.125  0.00  0.00    +0.000 N 
ATOM     25  C   UNL     1       1.159  14.399  21.106  0.00  0.00    +0.000 C 
ATOM     26  O   UNL     1       2.355  14.678  21.003  0.00  0.00    +0.000 OA
ATOM     27  H   UNL     1      -0.706  15.126  21.548  0.00  0.00    +0.000 HD
BRANCH  24  28
ATOM     28  C   UNL     1       0.461  16.782  21.005  0.00  0.00    +0.000 C 
BRANCH  28  31
ATOM     29  C   UNL     1       1.668  17.613  17.454  0.00  0.00    +0.000 A 
ATOM     30  C   UNL     1       1.630  17.182  18.792  0.00  0.00    +0.000 A 
ATOM     31  C   UNL     1       0.461  17.266  19.568  0.00  0.00    +0.000 A 
ATOM     32  C   UNL     1      -0.699  17.800  18.964  0.00  0.00    +0.000 A 
ATOM     33  C   UNL     1      -0.664  18.220  17.632  0.00  0.00    +0.000 A 
ATOM     34  C   UNL     1       0.491  18.126  16.890  0.00  0.00    +0.000 A 
ATOM     35  F   UNL     1       0.436  18.510  15.606  0.00  0.00    +0.000 F 
BRANCH  29  37
ATOM     36  C   UNL     1       3.507  16.207  16.967  0.00  0.00    +0.000 C 
ATOM     37  O   UNL     1       2.861  17.470  16.802  0.00  0.00    +0.000 OA
ENDBRANCH  29  37
ENDBRANCH  28  31
ENDBRANCH  24  28
ENDBRANCH   1  25
TORSDOF 9
ENDMDL
MODEL 5
REMARK VINA RESULT:      -7.6      2.899      9.950
REMARK  Name = 
REMARK  11 active torsions:
REMARK  status: ('A' for Active; 'I' for Inactive)
REMARK    1  A    between atoms: C_1  and  O_2
REMARK    2  A    between atoms: O_2  and  C_3
REMARK    3  A    between atoms: C_5  and  C_6
REMARK    4  A    between atoms: C_6  and  N_7
REMARK    5  A    between atoms: C_8  and  C_10
REMARK    6  A    between atoms: C_12  and  C_13
REMARK    7  A    between atoms: N_16  and  C_17
REMARK    8  A    between atoms: C_17  and  C_18
REMARK    9  A    between atoms: C_21  and  C_22
REMARK   10  A    between atoms: C_22  and  O_24
REMARK   11  A    between atoms: C_29  and  C_30
REMARK                            x       y       z     vdW  Elec       q    Type
REMARK                         _______ _______ _______ _____ _____    ______ ____
ROOT
ATOM      1  C   UNL     1       1.804   6.674  20.499  0.00  0.00    +0.000 A 
ATOM      2  C   UNL     1       2.995   6.669  19.790  0.00  0.00    +0.000 A 
ATOM      3  C   UNL     1       3.568   5.434  19.582  0.00  0.00    +0.000 A 
ATOM      4  N   UNL     1       3.020   4.294  20.057  0.00  0.00    +0.000 NA
ATOM      5  C   UNL     1       1.877   4.399  20.755  0.00  0.00    +0.000 A 
ATOM      6  C   UNL     1       1.272   3.145  21.300  0.00  0.00    +0.000 C 
ATOM      7  N   UNL     1       1.243   5.551  20.994  0.00  0.00    +0.000 NA
ENDROOT
BRANCH   3   8
ATOM      8  C   UNL     1       4.808   5.290  18.814  0.00  0.00    +0.000 A 
ATOM      9  N   UNL     1       5.836   4.449  19.184  0.00  0.00    +0.000 NA
ATOM     10  N   UNL     1       6.780   4.549  18.259  0.00  0.00    +0.000 NA
ATOM     11  N   UNL     1       6.303   5.441  17.378  0.00  0.00    +0.000 N 
ATOM     12  N   UNL     1       5.087   5.951  17.668  0.00  0.00    +0.000 NA
BRANCH  11  13
ATOM     13  C   UNL     1       7.048   5.864  16.218  0.00  0.00    +0.000 C 
BRANCH  13  14
ATOM     14  C   UNL     1       6.521   5.364  14.865  0.00  0.00    +0.000 C 
ATOM     15  C   UNL     1       7.615   4.762  13.970  0.00  0.00    +0.000 C 
ATOM     16  O   UNL     1       7.050   4.288  12.728  0.00  0.00    +0.000 OA
ATOM     17  C   UNL     1       6.094   3.248  12.998  0.00  0.00    +0.000 C 
ATOM     18  C   UNL     1       4.982   3.789  13.909  0.00  0.00    +0.000 C 
ATOM     19  O   UNL     1       5.534   4.330  15.134  0.00  0.00    +0.000 OA
BRANCH  17  20
ATOM     20  C   UNL     1       5.560   2.628  11.690  0.00  0.00    +0.000 C 
ATOM     21  O   UNL     1       6.184   1.814  11.049  0.00  0.00    +0.000 OA
BRANCH  20  22
ATOM     22  O   UNL     1       4.360   3.095  11.266  0.00  0.00    +0.000 OA
ATOM     23  H   UNL     1       3.950   3.768  11.843  0.00  0.00    +0.000 HD
ENDBRANCH  20  22
ENDBRANCH  17  20
ENDBRANCH  13  14
ENDBRANCH  11  13
ENDBRANCH   3   8
BRANCH   1  25
ATOM     24  N   UNL     1       1.402   9.048  20.002  0.00  0.00    +0.000 N 
ATOM     25  C   UNL     1       1.041   7.955  20.759  0.00  0.00    +0.000 C 
ATOM     26  O   UNL     1       0.128   7.997  21.586  0.00  0.00    +0.000 OA
ATOM     27  H   UNL     1       1.882   8.881  19.136  0.00  0.00    +0.000 HD
BRANCH  24  28
ATOM     28  C   UNL     1       0.754  10.342  20.130  0.00  0.00    +0.000 C 
BRANCH  28  31
ATOM     29  C   UNL     1      -2.670  11.462  18.797  0.00  0.00    +0.000 A 
ATOM     30  C   UNL     1      -1.539  11.291  19.614  0.00  0.00    +0.000 A 
ATOM     31  C   UNL     1      -0.451  10.492  19.221  0.00  0.00    +0.000 A 
ATOM     32  C   UNL     1      -0.517   9.853  17.964  0.00  0.00    +0.000 A 
ATOM     33  C   UNL     1      -1.637  10.029  17.148  0.00  0.00    +0.000 A 
ATOM     34  C   UNL     1      -2.690  10.818  17.550  0.00  0.00    +0.000 A 
ATOM     35  F   UNL     1      -3.711  10.973  16.695  0.00  0.00    +0.000 F 
BRANCH  29  37
ATOM     36  C   UNL     1      -3.286  13.103  20.385  0.00  0.00    +0.000 C 
ATOM     37  O   UNL     1      -3.658  12.271  19.285  0.00  0.00    +0.000 OA
ENDBRANCH  29  37
ENDBRANCH  28  31
ENDBRANCH  24  28
ENDBRANCH   1  25
TORSDOF 9
ENDMDL
MODEL 6
REMARK VINA RESULT:      -7.6      5.434      7.822
REMARK  Name = 
REMARK  11 active torsions:
REMARK  status: ('A' for Active; 'I' for Inactive)
REMARK    1  A    between atoms: C_1  and  O_2
REMARK    2  A    between atoms: O_2  and  C_3
REMARK    3  A    between atoms: C_5  and  C_6
REMARK    4  A    between atoms: C_6  and  N_7
REMARK    5  A    between atoms: C_8  and  C_10
REMARK    6  A    between atoms: C_12  and  C_13
REMARK    7  A    between atoms: N_16  and  C_17
REMARK    8  A    between atoms: C_17  and  C_18
REMARK    9  A    between atoms: C_21  and  C_22
REMARK   10  A    between atoms: C_22  and  O_24
REMARK   11  A    between atoms: C_29  and  C_30
REMARK                            x       y       z     vdW  Elec       q    Type
REMARK                         _______ _______ _______ _____ _____    ______ ____
ROOT
ATOM      1  C   UNL     1       1.281   8.818  20.403  0.00  0.00    +0.000 A 
ATOM      2  C   UNL     1       1.547  10.015  19.756  0.00  0.00    +0.000 A 
ATOM      3  C   UNL     1       1.090  11.153  20.380  0.00  0.00    +0.000 A 
ATOM      4  N   UNL     1       0.402  11.114  21.542  0.00  0.00    +0.000 NA
ATOM      5  C   UNL     1       0.169   9.907  22.084  0.00  0.00    +0.000 A 
ATOM      6  C   UNL     1      -0.606   9.851  23.362  0.00  0.00    +0.000 C 
ATOM      7  N   UNL     1       0.586   8.752  21.558  0.00  0.00    +0.000 NA
ENDROOT
BRANCH   3   8
ATOM      8  C   UNL     1       1.340  12.483  19.816  0.00  0.00    +0.000 A 
ATOM      9  N   UNL     1       0.480  13.110  18.940  0.00  0.00    +0.000 NA
ATOM     10  N   UNL     1       1.002  14.295  18.656  0.00  0.00    +0.000 NA
ATOM     11  N   UNL     1       2.147  14.342  19.353  0.00  0.00    +0.000 N 
ATOM     12  N   UNL     1       2.425  13.243  20.087  0.00  0.00    +0.000 NA
BRANCH  11  13
ATOM     13  C   UNL     1       3.046  15.468  19.297  0.00  0.00    +0.000 C 
BRANCH  13  14
ATOM     14  C   UNL     1       4.542  15.126  19.238  0.00  0.00    +0.000 C 
ATOM     15  C   UNL     1       5.026  14.752  17.828  0.00  0.00    +0.000 C 
ATOM     16  O   UNL     1       6.443  14.470  17.838  0.00  0.00    +0.000 OA
ATOM     17  C   UNL     1       7.168  15.644  18.244  0.00  0.00    +0.000 C 
ATOM     18  C   UNL     1       6.709  16.078  19.645  0.00  0.00    +0.000 C 
ATOM     19  O   UNL     1       5.278  16.303  19.674  0.00  0.00    +0.000 OA
BRANCH  17  20
ATOM     20  C   UNL     1       8.691  15.421  18.146  0.00  0.00    +0.000 C 
ATOM     21  O   UNL     1       9.337  14.915  19.035  0.00  0.00    +0.000 OA
BRANCH  20  22
ATOM     22  O   UNL     1       9.281  15.880  17.015  0.00  0.00    +0.000 OA
ATOM     23  H   UNL     1       8.665  16.205  16.330  0.00  0.00    +0.000 HD
ENDBRANCH  20  22
ENDBRANCH  17  20
ENDBRANCH  13  14
ENDBRANCH  11  13
ENDBRANCH   3   8
BRANCH   1  25
ATOM     24  N   UNL     1       2.289   7.512  18.581  0.00  0.00    +0.000 N 
ATOM     25  C   UNL     1       1.766   7.494  19.856  0.00  0.00    +0.000 C 
ATOM     26  O   UNL     1       1.715   6.466  20.534  0.00  0.00    +0.000 OA
ATOM     27  H   UNL     1       2.621   8.391  18.223  0.00  0.00    +0.000 HD
BRANCH  24  28
ATOM     28  C   UNL     1       2.805   6.323  17.925  0.00  0.00    +0.000 C 
BRANCH  28  31
ATOM     29  C   UNL     1       6.620   6.706  17.687  0.00  0.00    +0.000 A 
ATOM     30  C   UNL     1       5.239   6.872  17.479  0.00  0.00    +0.000 A 
ATOM     31  C   UNL     1       4.285   6.106  18.173  0.00  0.00    +0.000 A 
ATOM     32  C   UNL     1       4.751   5.150  19.102  0.00  0.00    +0.000 A 
ATOM     33  C   UNL     1       6.122   4.991  19.315  0.00  0.00    +0.000 A 
ATOM     34  C   UNL     1       7.038   5.753  18.627  0.00  0.00    +0.000 A 
ATOM     35  F   UNL     1       8.336   5.574  18.916  0.00  0.00    +0.000 F 
BRANCH  29  37
ATOM     36  C   UNL     1       7.926   8.678  17.639  0.00  0.00    +0.000 C 
ATOM     37  O   UNL     1       7.446   7.516  16.960  0.00  0.00    +0.000 OA
ENDBRANCH  29  37
ENDBRANCH  28  31
ENDBRANCH  24  28
ENDBRANCH   1  25
TORSDOF 9
ENDMDL
MODEL 7
REMARK VINA RESULT:      -7.5      4.320     10.454
REMARK  Name = 
REMARK  11 active torsions:
REMARK  status: ('A' for Active; 'I' for Inactive)
REMARK    1  A    between atoms: C_1  and  O_2
REMARK    2  A    between atoms: O_2  and  C_3
REMARK    3  A    between atoms: C_5  and  C_6
REMARK    4  A    between atoms: C_6  and  N_7
REMARK    5  A    between atoms: C_8  and  C_10
REMARK    6  A    between atoms: C_12  and  C_13
REMARK    7  A    between atoms: N_16  and  C_17
REMARK    8  A    between atoms: C_17  and  C_18
REMARK    9  A    between atoms: C_21  and  C_22
REMARK   10  A    between atoms: C_22  and  O_24
REMARK   11  A    between atoms: C_29  and  C_30
REMARK                            x       y       z     vdW  Elec       q    Type
REMARK                         _______ _______ _______ _____ _____    ______ ____
ROOT
ATOM      1  C   UNL     1       1.470   9.403  19.611  0.00  0.00    +0.000 A 
ATOM      2  C   UNL     1       1.913   8.099  19.460  0.00  0.00    +0.000 A 
ATOM      3  C   UNL     1       1.520   7.211  20.435  0.00  0.00    +0.000 A 
ATOM      4  N   UNL     1       0.767   7.585  21.492  0.00  0.00    +0.000 NA
ATOM      5  C   UNL     1       0.404   8.877  21.569  0.00  0.00    +0.000 A 
ATOM      6  C   UNL     1      -0.416   9.305  22.744  0.00  0.00    +0.000 C 
ATOM      7  N   UNL     1       0.726   9.805  20.664  0.00  0.00    +0.000 NA
ENDROOT
BRANCH   3   8
ATOM      8  C   UNL     1       1.891   5.794  20.370  0.00  0.00    +0.000 A 
ATOM      9  N   UNL     1       0.982   4.765  20.490  0.00  0.00    +0.000 NA
ATOM     10  N   UNL     1       1.653   3.629  20.359  0.00  0.00    +0.000 NA
ATOM     11  N   UNL     1       2.928   4.003  20.175  0.00  0.00    +0.000 N 
ATOM     12  N   UNL     1       3.149   5.335  20.182  0.00  0.00    +0.000 NA
BRANCH  11  13
ATOM     13  C   UNL     1       4.002   3.054  20.019  0.00  0.00    +0.000 C 
BRANCH  13  14
ATOM     14  C   UNL     1       4.840   3.196  18.741  0.00  0.00    +0.000 C 
ATOM     15  C   UNL     1       4.007   3.576  17.506  0.00  0.00    +0.000 C 
ATOM     16  O   UNL     1       4.857   3.720  16.347  0.00  0.00    +0.000 OA
ATOM     17  C   UNL     1       5.803   4.780  16.569  0.00  0.00    +0.000 C 
ATOM     18  C   UNL     1       6.655   4.463  17.809  0.00  0.00    +0.000 C 
ATOM     19  O   UNL     1       5.817   4.249  18.971  0.00  0.00    +0.000 OA
BRANCH  17  20
ATOM     20  C   UNL     1       6.647   5.049  15.306  0.00  0.00    +0.000 C 
ATOM     21  O   UNL     1       7.646   5.731  15.320  0.00  0.00    +0.000 OA
BRANCH  20  22
ATOM     22  O   UNL     1       6.168   4.518  14.155  0.00  0.00    +0.000 OA
ATOM     23  H   UNL     1       5.606   3.727  14.267  0.00  0.00    +0.000 HD
ENDBRANCH  20  22
ENDBRANCH  17  20
ENDBRANCH  13  14
ENDBRANCH  11  13
ENDBRANCH   3   8
BRANCH   1  25
ATOM     24  N   UNL     1       1.823  11.771  19.052  0.00  0.00    +0.000 N 
ATOM     25  C   UNL     1       1.786  10.473  18.589  0.00  0.00    +0.000 C 
ATOM     26  O   UNL     1       2.024  10.184  17.415  0.00  0.00    +0.000 OA
ATOM     27  H   UNL     1       1.968  11.914  20.035  0.00  0.00    +0.000 HD
BRANCH  24  28
ATOM     28  C   UNL     1       2.123  12.904  18.193  0.00  0.00    +0.000 C 
BRANCH  28  31
ATOM     29  C   UNL     1       1.182  16.609  18.578  0.00  0.00    +0.000 A 
ATOM     30  C   UNL     1       1.864  15.425  18.246  0.00  0.00    +0.000 A 
ATOM     31  C   UNL     1       1.359  14.156  18.578  0.00  0.00    +0.000 A 
ATOM     32  C   UNL     1       0.126  14.093  19.264  0.00  0.00    +0.000 A 
ATOM     33  C   UNL     1      -0.557  15.267  19.586  0.00  0.00    +0.000 A 
ATOM     34  C   UNL     1      -0.045  16.499  19.249  0.00  0.00    +0.000 A 
ATOM     35  F   UNL     1      -0.778  17.580  19.554  0.00  0.00    +0.000 F 
BRANCH  29  37
ATOM     36  C   UNL     1       1.280  18.346  16.976  0.00  0.00    +0.000 C 
ATOM     37  O   UNL     1       1.771  17.780  18.192  0.00  0.00    +0.000 OA
ENDBRANCH  29  37
ENDBRANCH  28  31
ENDBRANCH  24  28
ENDBRANCH   1  25
TORSDOF 9
ENDMDL
MODEL 8
REMARK VINA RESULT:      -7.5      4.507     10.117
REMARK  Name = 
REMARK  11 active torsions:
REMARK  status: ('A' for Active; 'I' for Inactive)
REMARK    1  A    between atoms: C_1  and  O_2
REMARK    2  A    between atoms: O_2  and  C_3
REMARK    3  A    between atoms: C_5  and  C_6
REMARK    4  A    between atoms: C_6  and  N_7
REMARK    5  A    between atoms: C_8  and  C_10
REMARK    6  A    between atoms: C_12  and  C_13
REMARK    7  A    between atoms: N_16  and  C_17
REMARK    8  A    between atoms: C_17  and  C_18
REMARK    9  A    between atoms: C_21  and  C_22
REMARK   10  A    between atoms: C_22  and  O_24
REMARK   11  A    between atoms: C_29  and  C_30
REMARK                            x       y       z     vdW  Elec       q    Type
REMARK                         _______ _______ _______ _____ _____    ______ ____
ROOT
ATOM      1  C   UNL     1       1.065  10.049  19.663  0.00  0.00    +0.000 A 
ATOM      2  C   UNL     1       1.747   8.915  19.249  0.00  0.00    +0.000 A 
ATOM      3  C   UNL     1       1.717   7.844  20.112  0.00  0.00    +0.000 A 
ATOM      4  N   UNL     1       1.084   7.893  21.304  0.00  0.00    +0.000 NA
ATOM      5  C   UNL     1       0.471   9.043  21.633  0.00  0.00    +0.000 A 
ATOM      6  C   UNL     1      -0.220   9.113  22.958  0.00  0.00    +0.000 C 
ATOM      7  N   UNL     1       0.434  10.127  20.854  0.00  0.00    +0.000 NA
ENDROOT
BRANCH   3   8
ATOM      8  C   UNL     1       2.368   6.575  19.773  0.00  0.00    +0.000 A 
ATOM      9  N   UNL     1       1.761   5.346  19.924  0.00  0.00    +0.000 NA
ATOM     10  N   UNL     1       2.619   4.428  19.501  0.00  0.00    +0.000 NA
ATOM     11  N   UNL     1       3.703   5.120  19.122  0.00  0.00    +0.000 N 
ATOM     12  N   UNL     1       3.620   6.459  19.275  0.00  0.00    +0.000 NA
BRANCH  11  13
ATOM     13  C   UNL     1       4.897   4.484  18.622  0.00  0.00    +0.000 C 
BRANCH  13  14
ATOM     14  C   UNL     1       5.386   4.965  17.248  0.00  0.00    +0.000 C 
ATOM     15  C   UNL     1       6.899   5.228  17.199  0.00  0.00    +0.000 C 
ATOM     16  O   UNL     1       7.296   5.652  15.876  0.00  0.00    +0.000 OA
ATOM     17  C   UNL     1       7.010   4.608  14.928  0.00  0.00    +0.000 C 
ATOM     18  C   UNL     1       5.508   4.288  14.948  0.00  0.00    +0.000 C 
ATOM     19  O   UNL     1       5.074   3.924  16.281  0.00  0.00    +0.000 OA
BRANCH  17  20
ATOM     20  C   UNL     1       7.535   4.971  13.524  0.00  0.00    +0.000 C 
ATOM     21  O   UNL     1       8.337   5.857  13.333  0.00  0.00    +0.000 OA
BRANCH  20  22
ATOM     22  O   UNL     1       6.999   4.269  12.496  0.00  0.00    +0.000 OA
ATOM     23  H   UNL     1       6.491   4.800  11.852  0.00  0.00    +0.000 HD
ENDBRANCH  20  22
ENDBRANCH  17  20
ENDBRANCH  13  14
ENDBRANCH  11  13
ENDBRANCH   3   8
BRANCH   1  25
ATOM     24  N   UNL     1       2.167  11.799  18.334  0.00  0.00    +0.000 N 
ATOM     25  C   UNL     1       0.974  11.284  18.794  0.00  0.00    +0.000 C 
ATOM     26  O   UNL     1      -0.116  11.776  18.497  0.00  0.00    +0.000 OA
ATOM     27  H   UNL     1       2.963  11.186  18.309  0.00  0.00    +0.000 HD
BRANCH  24  28
ATOM     28  C   UNL     1       2.240  12.973  17.481  0.00  0.00    +0.000 C 
BRANCH  28  31
ATOM     29  C   UNL     1       4.753  15.591  18.740  0.00  0.00    +0.000 A 
ATOM     30  C   UNL     1       4.186  14.474  18.103  0.00  0.00    +0.000 A 
ATOM     31  C   UNL     1       2.813  14.184  18.192  0.00  0.00    +0.000 A 
ATOM     32  C   UNL     1       1.999  15.056  18.947  0.00  0.00    +0.000 A 
ATOM     33  C   UNL     1       2.560  16.172  19.573  0.00  0.00    +0.000 A 
ATOM     34  C   UNL     1       3.906  16.438  19.470  0.00  0.00    +0.000 A 
ATOM     35  F   UNL     1       4.365  17.550  20.063  0.00  0.00    +0.000 F 
BRANCH  29  37
ATOM     36  C   UNL     1       6.786  14.703  17.919  0.00  0.00    +0.000 C 
ATOM     37  O   UNL     1       6.098  15.771  18.570  0.00  0.00    +0.000 OA
ENDBRANCH  29  37
ENDBRANCH  28  31
ENDBRANCH  24  28
ENDBRANCH   1  25
TORSDOF 9
ENDMDL
MODEL 9
REMARK VINA RESULT:      -7.5      6.100     10.013
REMARK  Name = 
REMARK  11 active torsions:
REMARK  status: ('A' for Active; 'I' for Inactive)
REMARK    1  A    between atoms: C_1  and  O_2
REMARK    2  A    between atoms: O_2  and  C_3
REMARK    3  A    between atoms: C_5  and  C_6
REMARK    4  A    between atoms: C_6  and  N_7
REMARK    5  A    between atoms: C_8  and  C_10
REMARK    6  A    between atoms: C_12  and  C_13
REMARK    7  A    between atoms: N_16  and  C_17
REMARK    8  A    between atoms: C_17  and  C_18
REMARK    9  A    between atoms: C_21  and  C_22
REMARK   10  A    between atoms: C_22  and  O_24
REMARK   11  A    between atoms: C_29  and  C_30
REMARK                            x       y       z     vdW  Elec       q    Type
REMARK                         _______ _______ _______ _____ _____    ______ ____
ROOT
ATOM      1  C   UNL     1       3.375  15.185  18.761  0.00  0.00    +0.000 A 
ATOM      2  C   UNL     1       3.267  13.803  18.801  0.00  0.00    +0.000 A 
ATOM      3  C   UNL     1       1.987  13.298  18.788  0.00  0.00    +0.000 A 
ATOM      4  N   UNL     1       0.895  14.093  18.761  0.00  0.00    +0.000 NA
ATOM      5  C   UNL     1       1.096  15.422  18.749  0.00  0.00    +0.000 A 
ATOM      6  C   UNL     1      -0.105  16.311  18.735  0.00  0.00    +0.000 C 
ATOM      7  N   UNL     1       2.300  16.001  18.745  0.00  0.00    +0.000 NA
ENDROOT
BRANCH   3   8
ATOM      8  C   UNL     1       1.739  11.853  18.788  0.00  0.00    +0.000 A 
ATOM      9  N   UNL     1       1.002  11.210  19.760  0.00  0.00    +0.000 NA
ATOM     10  N   UNL     1       0.960   9.924  19.437  0.00  0.00    +0.000 NA
ATOM     11  N   UNL     1       1.670   9.833  18.303  0.00  0.00    +0.000 N 
ATOM     12  N   UNL     1       2.193  10.992  17.850  0.00  0.00    +0.000 NA
BRANCH  11  13
ATOM     13  C   UNL     1       1.899   8.579  17.627  0.00  0.00    +0.000 C 
BRANCH  13  14
ATOM     14  C   UNL     1       2.965   7.668  18.252  0.00  0.00    +0.000 C 
ATOM     15  C   UNL     1       2.373   6.514  19.077  0.00  0.00    +0.000 C 
ATOM     16  O   UNL     1       3.425   5.682  19.613  0.00  0.00    +0.000 OA
ATOM     17  C   UNL     1       4.176   5.098  18.534  0.00  0.00    +0.000 C 
ATOM     18  C   UNL     1       4.779   6.210  17.661  0.00  0.00    +0.000 C 
ATOM     19  O   UNL     1       3.745   7.096  17.166  0.00  0.00    +0.000 OA
BRANCH  17  20
ATOM     20  C   UNL     1       5.230   4.104  19.063  0.00  0.00    +0.000 C 
ATOM     21  O   UNL     1       4.936   3.105  19.679  0.00  0.00    +0.000 OA
BRANCH  20  22
ATOM     22  O   UNL     1       6.523   4.446  18.844  0.00  0.00    +0.000 OA
ATOM     23  H   UNL     1       6.703   5.406  18.844  0.00  0.00    +0.000 HD
ENDBRANCH  20  22
ENDBRANCH  17  20
ENDBRANCH  13  14
ENDBRANCH  11  13
ENDBRANCH   3   8
BRANCH   1  25
ATOM     24  N   UNL     1       5.828  15.068  18.867  0.00  0.00    +0.000 N 
ATOM     25  C   UNL     1       4.720  15.875  18.723  0.00  0.00    +0.000 C 
ATOM     26  O   UNL     1       4.808  17.092  18.543  0.00  0.00    +0.000 OA
ATOM     27  H   UNL     1       5.725  14.090  18.663  0.00  0.00    +0.000 HD
BRANCH  24  28
ATOM     28  C   UNL     1       7.186  15.584  18.841  0.00  0.00    +0.000 C 
BRANCH  28  31
ATOM     29  C   UNL     1       9.834  12.801  18.873  0.00  0.00    +0.000 A 
ATOM     30  C   UNL     1       8.875  13.735  18.445  0.00  0.00    +0.000 A 
ATOM     31  C   UNL     1       8.208  14.583  19.346  0.00  0.00    +0.000 A 
ATOM     32  C   UNL     1       8.528  14.477  20.717  0.00  0.00    +0.000 A 
ATOM     33  C   UNL     1       9.487  13.555  21.143  0.00  0.00    +0.000 A 
ATOM     34  C   UNL     1      10.130  12.736  20.243  0.00  0.00    +0.000 A 
ATOM     35  F   UNL     1      11.069  11.906  20.721  0.00  0.00    +0.000 F 
BRANCH  29  37
ATOM     36  C   UNL     1      11.757  12.404  17.555  0.00  0.00    +0.000 C 
ATOM     37  O   UNL     1      10.420  12.040  17.901  0.00  0.00    +0.000 OA
ENDBRANCH  29  37
ENDBRANCH  28  31
ENDBRANCH  24  28
ENDBRANCH   1  25
TORSDOF 9
ENDMDL
