MODEL 1
REMARK VINA RESULT:      -8.0      0.000      0.000
REMARK  Name = 
REMARK  10 active torsions:
REMARK  status: ('A' for Active; 'I' for Inactive)
REMARK    1  A    between atoms: C_1  and  O_2
REMARK    2  A    between atoms: O_2  and  C_3
REMARK    3  A    between atoms: C_3  and  C_4
REMARK    4  A    between atoms: C_4  and  N_5
REMARK    5  A    between atoms: C_11  and  C_12
REMARK    6  A    between atoms: N_14  and  C_15
REMARK    7  A    between atoms: C_19  and  C_20
REMARK    8  A    between atoms: N_22  and  C_23
REMARK    9  A    between atoms: C_28  and  O_29
REMARK   10  A    between atoms: O_29  and  C_30
REMARK                            x       y       z     vdW  Elec       q    Type
REMARK                         _______ _______ _______ _____ _____    ______ ____
ROOT
ATOM      1  C   UNL     1       1.595   8.148  19.994  0.00  0.00    +0.000 C 
ATOM      2  O   UNL     1       1.506   8.619  21.125  0.00  0.00    +0.000 OA
ATOM      3  N   UNL     1       1.265   8.825  18.840  0.00  0.00    +0.000 N 
ATOM      4  H   UNL     1       1.461   8.380  17.947  0.00  0.00    +0.000 HD
ENDROOT
BRANCH   1  11
ATOM      5  N   UNL     1       4.632   5.992  17.279  0.00  0.00    +0.000 N 
ATOM      6  C   UNL     1       4.629   4.732  17.987  0.00  0.00    +0.000 C 
ATOM      7  C   UNL     1       3.586   4.962  19.035  0.00  0.00    +0.000 A 
ATOM      8  C   UNL     1       3.144   4.069  19.995  0.00  0.00    +0.000 A 
ATOM      9  C   UNL     1       2.184   4.504  20.903  0.00  0.00    +0.000 A 
ATOM     10  C   UNL     1       1.706   5.826  20.851  0.00  0.00    +0.000 A 
ATOM     11  C   UNL     1       2.157   6.756  19.882  0.00  0.00    +0.000 A 
ATOM     12  C   UNL     1       3.084   6.277  18.966  0.00  0.00    +0.000 A 
ATOM     13  C   UNL     1       3.765   6.911  17.821  0.00  0.00    +0.000 C 
ATOM     14  O   UNL     1       3.592   8.055  17.444  0.00  0.00    +0.000 OA
BRANCH   5  15
ATOM     15  C   UNL     1       5.562   6.320  16.207  0.00  0.00    +0.000 C 
BRANCH  15  16
ATOM     16  C   UNL     1       6.921   5.635  16.319  0.00  0.00    +0.000 C 
BRANCH  16  18
ATOM     17  C   UNL     1       6.676   4.407  14.326  0.00  0.00    +0.000 C 
ATOM     18  O   UNL     1       7.457   5.368  15.023  0.00  0.00    +0.000 OA
ENDBRANCH  16  18
ENDBRANCH  15  16
ENDBRANCH   5  15
ENDBRANCH   1  11
BRANCH   3  19
ATOM     19  C   UNL     1       0.701  10.115  18.731  0.00  0.00    +0.000 A 
ATOM     20  C   UNL     1       1.450  11.288  18.798  0.00  0.00    +0.000 A 
ATOM     21  C   UNL     1       0.833  12.534  18.664  0.00  0.00    +0.000 A 
ATOM     22  C   UNL     1      -0.541  12.610  18.463  0.00  0.00    +0.000 A 
ATOM     23  C   UNL     1      -1.305  11.443  18.422  0.00  0.00    +0.000 A 
ATOM     24  C   UNL     1      -0.688  10.191  18.558  0.00  0.00    +0.000 A 
BRANCH  23  25
ATOM     25  C   UNL     1      -2.759  11.562  18.161  0.00  0.00    +0.000 C 
ATOM     26  O   UNL     1      -3.184  11.239  17.055  0.00  0.00    +0.000 OA
ATOM     27  N   UNL     1      -3.516  12.125  19.176  0.00  0.00    +0.000 N 
ATOM     28  H   UNL     1      -3.039  12.696  19.860  0.00  0.00    +0.000 HD
BRANCH  27  29
ATOM     29  C   UNL     1      -4.906  12.322  19.026  0.00  0.00    +0.000 A 
ATOM     30  C   UNL     1      -5.419  12.479  17.728  0.00  0.00    +0.000 A 
ATOM     31  C   UNL     1      -6.789  12.607  17.508  0.00  0.00    +0.000 A 
ATOM     32  C   UNL     1      -7.663  12.605  18.590  0.00  0.00    +0.000 A 
ATOM     33  C   UNL     1      -7.163  12.447  19.885  0.00  0.00    +0.000 A 
ATOM     34  C   UNL     1      -5.789  12.295  20.117  0.00  0.00    +0.000 A 
BRANCH  34  35
ATOM     35  O   UNL     1      -5.457  12.110  21.433  0.00  0.00    +0.000 OA
ATOM     36  C   UNL     1      -5.289  13.285  22.221  0.00  0.00    +0.000 C 
ENDBRANCH  34  35
ENDBRANCH  27  29
ENDBRANCH  23  25
ENDBRANCH   3  19
TORSDOF 8
ENDMDL
MODEL 2
REMARK VINA RESULT:      -8.0      3.026     10.830
REMARK  Name = 
REMARK  10 active torsions:
REMARK  status: ('A' for Active; 'I' for Inactive)
REMARK    1  A    between atoms: C_1  and  O_2
REMARK    2  A    between atoms: O_2  and  C_3
REMARK    3  A    between atoms: C_3  and  C_4
REMARK    4  A    between atoms: C_4  and  N_5
REMARK    5  A    between atoms: C_11  and  C_12
REMARK    6  A    between atoms: N_14  and  C_15
REMARK    7  A    between atoms: C_19  and  C_20
REMARK    8  A    between atoms: N_22  and  C_23
REMARK    9  A    between atoms: C_28  and  O_29
REMARK   10  A    between atoms: O_29  and  C_30
REMARK                            x       y       z     vdW  Elec       q    Type
REMARK                         _______ _______ _______ _____ _____    ______ ____
ROOT
ATOM      1  C   UNL     1       1.468   9.251  18.786  0.00  0.00    +0.000 C 
ATOM      2  O   UNL     1       1.201   8.867  17.650  0.00  0.00    +0.000 OA
ATOM      3  N   UNL     1       1.934   8.437  19.795  0.00  0.00    +0.000 N 
ATOM      4  H   UNL     1       2.212   8.868  20.673  0.00  0.00    +0.000 HD
ENDROOT
BRANCH   1  11
ATOM      5  N   UNL     1      -0.693  11.871  21.903  0.00  0.00    +0.000 N 
ATOM      6  C   UNL     1      -0.166  13.139  21.453  0.00  0.00    +0.000 C 
ATOM      7  C   UNL     1       0.625  12.743  20.246  0.00  0.00    +0.000 A 
ATOM      8  C   UNL     1       1.334  13.570  19.394  0.00  0.00    +0.000 A 
ATOM      9  C   UNL     1       2.034  12.984  18.345  0.00  0.00    +0.000 A 
ATOM     10  C   UNL     1       2.034  11.587  18.183  0.00  0.00    +0.000 A 
ATOM     11  C   UNL     1       1.321  10.725  19.054  0.00  0.00    +0.000 A 
ATOM     12  C   UNL     1       0.601  11.346  20.065  0.00  0.00    +0.000 A 
ATOM     13  C   UNL     1      -0.264  10.814  21.137  0.00  0.00    +0.000 C 
ATOM     14  O   UNL     1      -0.527   9.638  21.311  0.00  0.00    +0.000 OA
BRANCH   5  15
ATOM     15  C   UNL     1      -1.464  11.699  23.126  0.00  0.00    +0.000 C 
BRANCH  15  16
ATOM     16  C   UNL     1      -2.834  12.368  23.108  0.00  0.00    +0.000 C 
BRANCH  16  18
ATOM     17  C   UNL     1      -4.455  12.624  24.796  0.00  0.00    +0.000 C 
ATOM     18  O   UNL     1      -3.732  11.699  23.995  0.00  0.00    +0.000 OA
ENDBRANCH  16  18
ENDBRANCH  15  16
ENDBRANCH   5  15
ENDBRANCH   1  11
BRANCH   3  19
ATOM     19  C   UNL     1       2.112   7.037  19.756  0.00  0.00    +0.000 A 
ATOM     20  C   UNL     1       1.462   6.156  20.619  0.00  0.00    +0.000 A 
ATOM     21  C   UNL     1       1.667   4.779  20.516  0.00  0.00    +0.000 A 
ATOM     22  C   UNL     1       2.529   4.275  19.546  0.00  0.00    +0.000 A 
ATOM     23  C   UNL     1       3.207   5.150  18.696  0.00  0.00    +0.000 A 
ATOM     24  C   UNL     1       3.003   6.533  18.798  0.00  0.00    +0.000 A 
BRANCH  23  25
ATOM     25  C   UNL     1       4.080   4.574  17.646  0.00  0.00    +0.000 C 
ATOM     26  O   UNL     1       4.415   3.397  17.743  0.00  0.00    +0.000 OA
ATOM     27  N   UNL     1       4.527   5.456  16.674  0.00  0.00    +0.000 N 
ATOM     28  H   UNL     1       4.518   6.443  16.892  0.00  0.00    +0.000 HD
BRANCH  27  29
ATOM     29  C   UNL     1       5.393   5.029  15.644  0.00  0.00    +0.000 A 
ATOM     30  C   UNL     1       4.852   4.274  14.591  0.00  0.00    +0.000 A 
ATOM     31  C   UNL     1       5.640   3.882  13.510  0.00  0.00    +0.000 A 
ATOM     32  C   UNL     1       6.988   4.221  13.483  0.00  0.00    +0.000 A 
ATOM     33  C   UNL     1       7.535   4.974  14.524  0.00  0.00    +0.000 A 
ATOM     34  C   UNL     1       6.748   5.393  15.606  0.00  0.00    +0.000 A 
BRANCH  34  35
ATOM     35  O   UNL     1       7.416   6.156  16.526  0.00  0.00    +0.000 OA
ATOM     36  C   UNL     1       7.583   5.592  17.824  0.00  0.00    +0.000 C 
ENDBRANCH  34  35
ENDBRANCH  27  29
ENDBRANCH  23  25
ENDBRANCH   3  19
TORSDOF 8
ENDMDL
MODEL 3
REMARK VINA RESULT:      -8.0      2.451     10.140
REMARK  Name = 
REMARK  10 active torsions:
REMARK  status: ('A' for Active; 'I' for Inactive)
REMARK    1  A    between atoms: C_1  and  O_2
REMARK    2  A    between atoms: O_2  and  C_3
REMARK    3  A    between atoms: C_3  and  C_4
REMARK    4  A    between atoms: C_4  and  N_5
REMARK    5  A    between atoms: C_11  and  C_12
REMARK    6  A    between atoms: N_14  and  C_15
REMARK    7  A    between atoms: C_19  and  C_20
REMARK    8  A    between atoms: N_22  and  C_23
REMARK    9  A    between atoms: C_28  and  O_29
REMARK   10  A    between atoms: O_29  and  C_30
REMARK                            x       y       z     vdW  Elec       q    Type
REMARK                         _______ _______ _______ _____ _____    ______ ____
ROOT
ATOM      1  C   UNL     1       0.890   9.122  21.514  0.00  0.00    +0.000 C 
ATOM      2  O   UNL     1       1.814   9.166  22.323  0.00  0.00    +0.000 OA
ATOM      3  N   UNL     1       0.707   8.112  20.595  0.00  0.00    +0.000 N 
ATOM      4  H   UNL     1      -0.140   8.120  20.031  0.00  0.00    +0.000 HD
ENDROOT
BRANCH   1  11
ATOM      5  N   UNL     1      -1.641  11.528  18.505  0.00  0.00    +0.000 N 
ATOM      6  C   UNL     1      -2.411  12.265  19.482  0.00  0.00    +0.000 C 
ATOM      7  C   UNL     1      -1.797  11.817  20.771  0.00  0.00    +0.000 A 
ATOM      8  C   UNL     1      -2.130  12.225  22.050  0.00  0.00    +0.000 A 
ATOM      9  C   UNL     1      -1.451  11.651  23.119  0.00  0.00    +0.000 A 
ATOM     10  C   UNL     1      -0.475  10.664  22.892  0.00  0.00    +0.000 A 
ATOM     11  C   UNL     1      -0.130  10.227  21.589  0.00  0.00    +0.000 A 
ATOM     12  C   UNL     1      -0.797  10.850  20.544  0.00  0.00    +0.000 A 
ATOM     13  C   UNL     1      -0.711  10.694  19.079  0.00  0.00    +0.000 C 
ATOM     14  O   UNL     1       0.045   9.941  18.494  0.00  0.00    +0.000 OA
BRANCH   5  15
ATOM     15  C   UNL     1      -1.918  11.539  17.076  0.00  0.00    +0.000 C 
BRANCH  15  16
ATOM     16  C   UNL     1      -2.511  10.242  16.537  0.00  0.00    +0.000 C 
BRANCH  16  18
ATOM     17  C   UNL     1      -3.592  10.151  14.448  0.00  0.00    +0.000 C 
ATOM     18  O   UNL     1      -3.718  10.501  15.819  0.00  0.00    +0.000 OA
ENDBRANCH  16  18
ENDBRANCH  15  16
ENDBRANCH   5  15
ENDBRANCH   1  11
BRANCH   3  19
ATOM     19  C   UNL     1       1.555   7.011  20.347  0.00  0.00    +0.000 A 
ATOM     20  C   UNL     1       1.580   5.867  21.142  0.00  0.00    +0.000 A 
ATOM     21  C   UNL     1       2.431   4.803  20.830  0.00  0.00    +0.000 A 
ATOM     22  C   UNL     1       3.264   4.882  19.719  0.00  0.00    +0.000 A 
ATOM     23  C   UNL     1       3.267   6.035  18.932  0.00  0.00    +0.000 A 
ATOM     24  C   UNL     1       2.416   7.104  19.244  0.00  0.00    +0.000 A 
BRANCH  23  25
ATOM     25  C   UNL     1       4.134   6.064  17.731  0.00  0.00    +0.000 C 
ATOM     26  O   UNL     1       4.247   7.119  17.114  0.00  0.00    +0.000 OA
ATOM     27  N   UNL     1       4.683   4.850  17.346  0.00  0.00    +0.000 N 
ATOM     28  H   UNL     1       4.234   4.004  17.672  0.00  0.00    +0.000 HD
BRANCH  27  29
ATOM     29  C   UNL     1       5.496   4.748  16.197  0.00  0.00    +0.000 A 
ATOM     30  C   UNL     1       4.929   4.219  15.026  0.00  0.00    +0.000 A 
ATOM     31  C   UNL     1       5.658   4.156  13.840  0.00  0.00    +0.000 A 
ATOM     32  C   UNL     1       6.975   4.600  13.818  0.00  0.00    +0.000 A 
ATOM     33  C   UNL     1       7.547   5.131  14.976  0.00  0.00    +0.000 A 
ATOM     34  C   UNL     1       6.817   5.220  16.169  0.00  0.00    +0.000 A 
BRANCH  34  35
ATOM     35  O   UNL     1       7.500   5.798  17.205  0.00  0.00    +0.000 OA
ATOM     36  C   UNL     1       7.796   4.964  18.322  0.00  0.00    +0.000 C 
ENDBRANCH  34  35
ENDBRANCH  27  29
ENDBRANCH  23  25
ENDBRANCH   3  19
TORSDOF 8
ENDMDL
MODEL 4
REMARK VINA RESULT:      -7.9      3.120      3.687
REMARK  Name = 
REMARK  10 active torsions:
REMARK  status: ('A' for Active; 'I' for Inactive)
REMARK    1  A    between atoms: C_1  and  O_2
REMARK    2  A    between atoms: O_2  and  C_3
REMARK    3  A    between atoms: C_3  and  C_4
REMARK    4  A    between atoms: C_4  and  N_5
REMARK    5  A    between atoms: C_11  and  C_12
REMARK    6  A    between atoms: N_14  and  C_15
REMARK    7  A    between atoms: C_19  and  C_20
REMARK    8  A    between atoms: N_22  and  C_23
REMARK    9  A    between atoms: C_28  and  O_29
REMARK   10  A    between atoms: O_29  and  C_30
REMARK                            x       y       z     vdW  Elec       q    Type
REMARK                         _______ _______ _______ _____ _____    ______ ____
ROOT
ATOM      1  C   UNL     1       1.786   6.995  20.126  0.00  0.00    +0.000 C 
ATOM      2  O   UNL     1       1.846   7.248  21.327  0.00  0.00    +0.000 OA
ATOM      3  N   UNL     1       1.617   7.942  19.138  0.00  0.00    +0.000 N 
ATOM      4  H   UNL     1       1.672   7.642  18.168  0.00  0.00    +0.000 HD
ENDROOT
BRANCH   1  11
ATOM      5  N   UNL     1       4.231   4.703  16.962  0.00  0.00    +0.000 N 
ATOM      6  C   UNL     1       3.880   3.374  17.406  0.00  0.00    +0.000 C 
ATOM      7  C   UNL     1       2.904   3.655  18.505  0.00  0.00    +0.000 A 
ATOM      8  C   UNL     1       2.218   2.737  19.279  0.00  0.00    +0.000 A 
ATOM      9  C   UNL     1       1.379   3.219  20.279  0.00  0.00    +0.000 A 
ATOM     10  C   UNL     1       1.264   4.603  20.502  0.00  0.00    +0.000 A 
ATOM     11  C   UNL     1       1.969   5.556  19.725  0.00  0.00    +0.000 A 
ATOM     12  C   UNL     1       2.764   5.042  18.710  0.00  0.00    +0.000 A 
ATOM     13  C   UNL     1       3.619   5.690  17.696  0.00  0.00    +0.000 C 
ATOM     14  O   UNL     1       3.761   6.891  17.558  0.00  0.00    +0.000 OA
BRANCH   5  15
ATOM     15  C   UNL     1       5.245   4.982  15.953  0.00  0.00    +0.000 C 
BRANCH  15  16
ATOM     16  C   UNL     1       6.483   4.096  16.041  0.00  0.00    +0.000 C 
BRANCH  16  18
ATOM     17  C   UNL     1       7.245   6.121  16.969  0.00  0.00    +0.000 C 
ATOM     18  O   UNL     1       7.624   4.864  16.425  0.00  0.00    +0.000 OA
ENDBRANCH  16  18
ENDBRANCH  15  16
ENDBRANCH   5  15
ENDBRANCH   1  11
BRANCH   3  19
ATOM     19  C   UNL     1       1.401   9.327  19.303  0.00  0.00    +0.000 A 
ATOM     20  C   UNL     1       1.809  10.284  18.375  0.00  0.00    +0.000 A 
ATOM     21  C   UNL     1       1.548  11.639  18.589  0.00  0.00    +0.000 A 
ATOM     22  C   UNL     1       0.876  12.044  19.738  0.00  0.00    +0.000 A 
ATOM     23  C   UNL     1       0.487  11.097  20.687  0.00  0.00    +0.000 A 
ATOM     24  C   UNL     1       0.750   9.737  20.475  0.00  0.00    +0.000 A 
BRANCH  23  25
ATOM     25  C   UNL     1      -0.267  11.562  21.876  0.00  0.00    +0.000 C 
ATOM     26  O   UNL     1      -0.132  10.950  22.931  0.00  0.00    +0.000 OA
ATOM     27  N   UNL     1      -1.145  12.614  21.667  0.00  0.00    +0.000 N 
ATOM     28  H   UNL     1      -1.463  12.783  20.722  0.00  0.00    +0.000 HD
BRANCH  27  29
ATOM     29  C   UNL     1      -1.943  13.117  22.716  0.00  0.00    +0.000 A 
ATOM     30  C   UNL     1      -3.160  12.472  22.995  0.00  0.00    +0.000 A 
ATOM     31  C   UNL     1      -3.959  12.878  24.062  0.00  0.00    +0.000 A 
ATOM     32  C   UNL     1      -3.562  13.952  24.850  0.00  0.00    +0.000 A 
ATOM     33  C   UNL     1      -2.353  14.599  24.583  0.00  0.00    +0.000 A 
ATOM     34  C   UNL     1      -1.529  14.186  23.526  0.00  0.00    +0.000 A 
BRANCH  34  35
ATOM     35  O   UNL     1      -0.360  14.890  23.416  0.00  0.00    +0.000 OA
ATOM     36  C   UNL     1      -0.358  16.214  23.944  0.00  0.00    +0.000 C 
ENDBRANCH  34  35
ENDBRANCH  27  29
ENDBRANCH  23  25
ENDBRANCH   3  19
TORSDOF 8
ENDMDL
MODEL 5
REMARK VINA RESULT:      -7.9      2.876      4.802
REMARK  Name = 
REMARK  10 active torsions:
REMARK  status: ('A' for Active; 'I' for Inactive)
REMARK    1  A    between atoms: C_1  and  O_2
REMARK    2  A    between atoms: O_2  and  C_3
REMARK    3  A    between atoms: C_3  and  C_4
REMARK    4  A    between atoms: C_4  and  N_5
REMARK    5  A    between atoms: C_11  and  C_12
REMARK    6  A    between atoms: N_14  and  C_15
REMARK    7  A    between atoms: C_19  and  C_20
REMARK    8  A    between atoms: N_22  and  C_23
REMARK    9  A    between atoms: C_28  and  O_29
REMARK   10  A    between atoms: O_29  and  C_30
REMARK                            x       y       z     vdW  Elec       q    Type
REMARK                         _______ _______ _______ _____ _____    ______ ____
ROOT
ATOM      1  C   UNL     1       2.270   8.823  18.004  0.00  0.00    +0.000 C 
ATOM      2  O   UNL     1       2.738   9.885  17.602  0.00  0.00    +0.000 OA
ATOM      3  N   UNL     1       0.995   8.674  18.505  0.00  0.00    +0.000 N 
ATOM      4  H   UNL     1       0.670   7.736  18.726  0.00  0.00    +0.000 HD
ENDROOT
BRANCH   1  11
ATOM      5  N   UNL     1       2.827   4.869  20.306  0.00  0.00    +0.000 N 
ATOM      6  C   UNL     1       3.779   4.275  19.395  0.00  0.00    +0.000 C 
ATOM      7  C   UNL     1       3.997   5.374  18.404  0.00  0.00    +0.000 A 
ATOM      8  C   UNL     1       4.841   5.368  17.308  0.00  0.00    +0.000 A 
ATOM      9  C   UNL     1       4.863   6.492  16.490  0.00  0.00    +0.000 A 
ATOM     10  C   UNL     1       4.025   7.587  16.766  0.00  0.00    +0.000 A 
ATOM     11  C   UNL     1       3.145   7.605  17.878  0.00  0.00    +0.000 A 
ATOM     12  C   UNL     1       3.179   6.484  18.696  0.00  0.00    +0.000 A 
ATOM     13  C   UNL     1       2.449   6.135  19.930  0.00  0.00    +0.000 C 
ATOM     14  O   UNL     1       1.641   6.848  20.496  0.00  0.00    +0.000 OA
BRANCH   5  15
ATOM     15  C   UNL     1       2.209   4.155  21.415  0.00  0.00    +0.000 C 
BRANCH  15  16
ATOM     16  C   UNL     1       1.432   2.907  21.008  0.00  0.00    +0.000 C 
BRANCH  16  18
ATOM     17  C   UNL     1       0.821   2.318  18.812  0.00  0.00    +0.000 C 
ATOM     18  O   UNL     1       0.569   3.190  19.905  0.00  0.00    +0.000 OA
ENDBRANCH  16  18
ENDBRANCH  15  16
ENDBRANCH   5  15
ENDBRANCH   1  11
BRANCH   3  19
ATOM     19  C   UNL     1       0.036   9.685  18.730  0.00  0.00    +0.000 A 
ATOM     20  C   UNL     1      -0.878  10.104  17.765  0.00  0.00    +0.000 A 
ATOM     21  C   UNL     1      -1.816  11.098  18.058  0.00  0.00    +0.000 A 
ATOM     22  C   UNL     1      -1.840  11.678  19.322  0.00  0.00    +0.000 A 
ATOM     23  C   UNL     1      -0.911  11.286  20.287  0.00  0.00    +0.000 A 
ATOM     24  C   UNL     1       0.031  10.290  19.994  0.00  0.00    +0.000 A 
BRANCH  23  25
ATOM     25  C   UNL     1      -0.999  11.895  21.635  0.00  0.00    +0.000 C 
ATOM     26  O   UNL     1      -0.399  11.356  22.561  0.00  0.00    +0.000 OA
ATOM     27  N   UNL     1      -1.840  12.990  21.755  0.00  0.00    +0.000 N 
ATOM     28  H   UNL     1      -2.561  13.111  21.057  0.00  0.00    +0.000 HD
BRANCH  27  29
ATOM     29  C   UNL     1      -2.030  13.631  22.999  0.00  0.00    +0.000 A 
ATOM     30  C   UNL     1      -1.101  14.607  23.393  0.00  0.00    +0.000 A 
ATOM     31  C   UNL     1      -1.271  15.324  24.576  0.00  0.00    +0.000 A 
ATOM     32  C   UNL     1      -2.364  15.055  25.393  0.00  0.00    +0.000 A 
ATOM     33  C   UNL     1      -3.296  14.088  25.008  0.00  0.00    +0.000 A 
ATOM     34  C   UNL     1      -3.147  13.375  23.810  0.00  0.00    +0.000 A 
BRANCH  34  35
ATOM     35  O   UNL     1      -4.160  12.491  23.551  0.00  0.00    +0.000 OA
ATOM     36  C   UNL     1      -5.475  13.034  23.461  0.00  0.00    +0.000 C 
ENDBRANCH  34  35
ENDBRANCH  27  29
ENDBRANCH  23  25
ENDBRANCH   3  19
TORSDOF 8
ENDMDL
MODEL 6
REMARK VINA RESULT:      -7.8      3.681      5.037
REMARK  Name = 
REMARK  10 active torsions:
REMARK  status: ('A' for Active; 'I' for Inactive)
REMARK    1  A    between atoms: C_1  and  O_2
REMARK    2  A    between atoms: O_2  and  C_3
REMARK    3  A    between atoms: C_3  and  C_4
REMARK    4  A    between atoms: C_4  and  N_5
REMARK    5  A    between atoms: C_11  and  C_12
REMARK    6  A    between atoms: N_14  and  C_15
REMARK    7  A    between atoms: C_19  and  C_20
REMARK    8  A    between atoms: N_22  and  C_23
REMARK    9  A    between atoms: C_28  and  O_29
REMARK   10  A    between atoms: O_29  and  C_30
REMARK                            x       y       z     vdW  Elec       q    Type
REMARK                         _______ _______ _______ _____ _____    ______ ____
ROOT
ATOM      1  C   UNL     1       1.798   5.940  20.076  0.00  0.00    +0.000 C 
ATOM      2  O   UNL     1       1.794   5.701  21.281  0.00  0.00    +0.000 OA
ATOM      3  N   UNL     1       1.608   7.190  19.530  0.00  0.00    +0.000 N 
ATOM      4  H   UNL     1       1.721   7.300  18.525  0.00  0.00    +0.000 HD
ENDROOT
BRANCH   1  11
ATOM      5  N   UNL     1       5.045   4.882  16.981  0.00  0.00    +0.000 N 
ATOM      6  C   UNL     1       4.583   3.541  16.701  0.00  0.00    +0.000 C 
ATOM      7  C   UNL     1       3.335   3.460  17.522  0.00  0.00    +0.000 A 
ATOM      8  C   UNL     1       2.457   2.395  17.619  0.00  0.00    +0.000 A 
ATOM      9  C   UNL     1       1.368   2.519  18.476  0.00  0.00    +0.000 A 
ATOM     10  C   UNL     1       1.192   3.689  19.236  0.00  0.00    +0.000 A 
ATOM     11  C   UNL     1       2.089   4.784  19.156  0.00  0.00    +0.000 A 
ATOM     12  C   UNL     1       3.140   4.644  18.262  0.00  0.00    +0.000 A 
ATOM     13  C   UNL     1       4.248   5.543  17.884  0.00  0.00    +0.000 C 
ATOM     14  O   UNL     1       4.422   6.666  18.319  0.00  0.00    +0.000 OA
BRANCH   5  15
ATOM     15  C   UNL     1       6.303   5.427  16.489  0.00  0.00    +0.000 C 
BRANCH  15  16
ATOM     16  C   UNL     1       7.541   4.651  16.928  0.00  0.00    +0.000 C 
BRANCH  16  18
ATOM     17  C   UNL     1       7.854   5.882  18.909  0.00  0.00    +0.000 C 
ATOM     18  O   UNL     1       7.622   4.596  18.352  0.00  0.00    +0.000 OA
ENDBRANCH  16  18
ENDBRANCH  15  16
ENDBRANCH   5  15
ENDBRANCH   1  11
BRANCH   3  19
ATOM     19  C   UNL     1       1.298   8.388  20.210  0.00  0.00    +0.000 A 
ATOM     20  C   UNL     1       0.948   8.436  21.559  0.00  0.00    +0.000 A 
ATOM     21  C   UNL     1       0.671   9.657  22.178  0.00  0.00    +0.000 A 
ATOM     22  C   UNL     1       0.742  10.838  21.447  0.00  0.00    +0.000 A 
ATOM     23  C   UNL     1       1.063  10.799  20.089  0.00  0.00    +0.000 A 
ATOM     24  C   UNL     1       1.340   9.575  19.465  0.00  0.00    +0.000 A 
BRANCH  23  25
ATOM     25  C   UNL     1       1.174  12.082  19.356  0.00  0.00    +0.000 C 
ATOM     26  O   UNL     1       0.465  12.255  18.368  0.00  0.00    +0.000 OA
ATOM     27  N   UNL     1       2.151  12.958  19.803  0.00  0.00    +0.000 N 
ATOM     28  H   UNL     1       2.912  12.577  20.349  0.00  0.00    +0.000 HD
BRANCH  27  29
ATOM     29  C   UNL     1       2.372  14.195  19.160  0.00  0.00    +0.000 A 
ATOM     30  C   UNL     1       3.366  14.260  18.169  0.00  0.00    +0.000 A 
ATOM     31  C   UNL     1       3.586  15.433  17.449  0.00  0.00    +0.000 A 
ATOM     32  C   UNL     1       2.828  16.565  17.729  0.00  0.00    +0.000 A 
ATOM     33  C   UNL     1       1.834  16.509  18.710  0.00  0.00    +0.000 A 
ATOM     34  C   UNL     1       1.589  15.328  19.426  0.00  0.00    +0.000 A 
BRANCH  34  35
ATOM     35  O   UNL     1       0.559  15.418  20.324  0.00  0.00    +0.000 OA
ATOM     36  C   UNL     1      -0.760  15.304  19.798  0.00  0.00    +0.000 C 
ENDBRANCH  34  35
ENDBRANCH  27  29
ENDBRANCH  23  25
ENDBRANCH   3  19
TORSDOF 8
ENDMDL
MODEL 7
REMARK VINA RESULT:      -7.7      2.188      3.400
REMARK  Name = 
REMARK  10 active torsions:
REMARK  status: ('A' for Active; 'I' for Inactive)
REMARK    1  A    between atoms: C_1  and  O_2
REMARK    2  A    between atoms: O_2  and  C_3
REMARK    3  A    between atoms: C_3  and  C_4
REMARK    4  A    between atoms: C_4  and  N_5
REMARK    5  A    between atoms: C_11  and  C_12
REMARK    6  A    between atoms: N_14  and  C_15
REMARK    7  A    between atoms: C_19  and  C_20
REMARK    8  A    between atoms: N_22  and  C_23
REMARK    9  A    between atoms: C_28  and  O_29
REMARK   10  A    between atoms: O_29  and  C_30
REMARK                            x       y       z     vdW  Elec       q    Type
REMARK                         _______ _______ _______ _____ _____    ______ ____
ROOT
ATOM      1  C   UNL     1       1.828   7.613  20.115  0.00  0.00    +0.000 C 
ATOM      2  O   UNL     1       1.966   7.893  21.304  0.00  0.00    +0.000 OA
ATOM      3  N   UNL     1       1.553   8.530  19.125  0.00  0.00    +0.000 N 
ATOM      4  H   UNL     1       1.549   8.211  18.160  0.00  0.00    +0.000 HD
ENDROOT
BRANCH   1  11
ATOM      5  N   UNL     1       4.333   5.325  16.995  0.00  0.00    +0.000 N 
ATOM      6  C   UNL     1       3.997   3.995  17.449  0.00  0.00    +0.000 C 
ATOM      7  C   UNL     1       3.008   4.273  18.537  0.00  0.00    +0.000 A 
ATOM      8  C   UNL     1       2.328   3.353  19.314  0.00  0.00    +0.000 A 
ATOM      9  C   UNL     1       1.474   3.832  20.302  0.00  0.00    +0.000 A 
ATOM     10  C   UNL     1       1.337   5.217  20.511  0.00  0.00    +0.000 A 
ATOM     11  C   UNL     1       2.035   6.172  19.731  0.00  0.00    +0.000 A 
ATOM     12  C   UNL     1       2.846   5.660  18.728  0.00  0.00    +0.000 A 
ATOM     13  C   UNL     1       3.700   6.310  17.714  0.00  0.00    +0.000 C 
ATOM     14  O   UNL     1       3.826   7.511  17.566  0.00  0.00    +0.000 OA
BRANCH   5  15
ATOM     15  C   UNL     1       5.351   5.609  15.992  0.00  0.00    +0.000 C 
BRANCH  15  16
ATOM     16  C   UNL     1       6.781   5.348  16.453  0.00  0.00    +0.000 C 
BRANCH  16  18
ATOM     17  C   UNL     1       7.438   7.338  17.526  0.00  0.00    +0.000 C 
ATOM     18  O   UNL     1       7.564   6.538  16.358  0.00  0.00    +0.000 OA
ENDBRANCH  16  18
ENDBRANCH  15  16
ENDBRANCH   5  15
ENDBRANCH   1  11
BRANCH   3  19
ATOM     19  C   UNL     1       1.298   9.910  19.278  0.00  0.00    +0.000 A 
ATOM     20  C   UNL     1       1.798  10.884  18.415  0.00  0.00    +0.000 A 
ATOM     21  C   UNL     1       1.493  12.233  18.612  0.00  0.00    +0.000 A 
ATOM     22  C   UNL     1       0.685  12.614  19.678  0.00  0.00    +0.000 A 
ATOM     23  C   UNL     1       0.202  11.650  20.564  0.00  0.00    +0.000 A 
ATOM     24  C   UNL     1       0.508  10.296  20.370  0.00  0.00    +0.000 A 
BRANCH  23  25
ATOM     25  C   UNL     1      -0.694  12.090  21.661  0.00  0.00    +0.000 C 
ATOM     26  O   UNL     1      -1.198  11.235  22.383  0.00  0.00    +0.000 OA
ATOM     27  N   UNL     1      -0.962  13.448  21.720  0.00  0.00    +0.000 N 
ATOM     28  H   UNL     1      -0.823  13.995  20.881  0.00  0.00    +0.000 HD
BRANCH  27  29
ATOM     29  C   UNL     1      -1.830  13.979  22.699  0.00  0.00    +0.000 A 
ATOM     30  C   UNL     1      -1.279  14.383  23.927  0.00  0.00    +0.000 A 
ATOM     31  C   UNL     1      -2.071  14.978  24.908  0.00  0.00    +0.000 A 
ATOM     32  C   UNL     1      -3.431  15.153  24.681  0.00  0.00    +0.000 A 
ATOM     33  C   UNL     1      -3.988  14.758  23.462  0.00  0.00    +0.000 A 
ATOM     34  C   UNL     1      -3.198  14.178  22.460  0.00  0.00    +0.000 A 
BRANCH  34  35
ATOM     35  O   UNL     1      -3.878  13.880  21.309  0.00  0.00    +0.000 OA
ATOM     36  C   UNL     1      -4.645  12.680  21.312  0.00  0.00    +0.000 C 
ENDBRANCH  34  35
ENDBRANCH  27  29
ENDBRANCH  23  25
ENDBRANCH   3  19
TORSDOF 8
ENDMDL
MODEL 8
REMARK VINA RESULT:      -7.7      3.703      4.922
REMARK  Name = 
REMARK  10 active torsions:
REMARK  status: ('A' for Active; 'I' for Inactive)
REMARK    1  A    between atoms: C_1  and  O_2
REMARK    2  A    between atoms: O_2  and  C_3
REMARK    3  A    between atoms: C_3  and  C_4
REMARK    4  A    between atoms: C_4  and  N_5
REMARK    5  A    between atoms: C_11  and  C_12
REMARK    6  A    between atoms: N_14  and  C_15
REMARK    7  A    between atoms: C_19  and  C_20
REMARK    8  A    between atoms: N_22  and  C_23
REMARK    9  A    between atoms: C_28  and  O_29
REMARK   10  A    between atoms: O_29  and  C_30
REMARK                            x       y       z     vdW  Elec       q    Type
REMARK                         _______ _______ _______ _____ _____    ______ ____
ROOT
ATOM      1  C   UNL     1       1.880   6.080  20.029  0.00  0.00    +0.000 C 
ATOM      2  O   UNL     1       1.961   5.862  21.236  0.00  0.00    +0.000 OA
ATOM      3  N   UNL     1       1.590   7.308  19.477  0.00  0.00    +0.000 N 
ATOM      4  H   UNL     1       1.636   7.405  18.466  0.00  0.00    +0.000 HD
ENDROOT
BRANCH   1  11
ATOM      5  N   UNL     1       4.848   5.226  16.607  0.00  0.00    +0.000 N 
ATOM      6  C   UNL     1       4.491   3.838  16.416  0.00  0.00    +0.000 C 
ATOM      7  C   UNL     1       3.357   3.668  17.377  0.00  0.00    +0.000 A 
ATOM      8  C   UNL     1       2.605   2.528  17.601  0.00  0.00    +0.000 A 
ATOM      9  C   UNL     1       1.613   2.578  18.574  0.00  0.00    +0.000 A 
ATOM     10  C   UNL     1       1.409   3.753  19.321  0.00  0.00    +0.000 A 
ATOM     11  C   UNL     1       2.178   4.925  19.111  0.00  0.00    +0.000 A 
ATOM     12  C   UNL     1       3.131   4.853  18.105  0.00  0.00    +0.000 A 
ATOM     13  C   UNL     1       4.095   5.840  17.580  0.00  0.00    +0.000 C 
ATOM     14  O   UNL     1       4.205   6.989  17.964  0.00  0.00    +0.000 OA
BRANCH   5  15
ATOM     15  C   UNL     1       5.982   5.870  15.961  0.00  0.00    +0.000 C 
BRANCH  15  16
ATOM     16  C   UNL     1       7.018   4.905  15.395  0.00  0.00    +0.000 C 
BRANCH  16  18
ATOM     17  C   UNL     1       6.490   4.011  13.282  0.00  0.00    +0.000 C 
ATOM     18  O   UNL     1       7.136   5.066  13.981  0.00  0.00    +0.000 OA
ENDBRANCH  16  18
ENDBRANCH  15  16
ENDBRANCH   5  15
ENDBRANCH   1  11
BRANCH   3  19
ATOM     19  C   UNL     1       1.255   8.499  20.157  0.00  0.00    +0.000 A 
ATOM     20  C   UNL     1       0.876   8.537  21.498  0.00  0.00    +0.000 A 
ATOM     21  C   UNL     1       0.576   9.753  22.118  0.00  0.00    +0.000 A 
ATOM     22  C   UNL     1       0.653  10.939  21.395  0.00  0.00    +0.000 A 
ATOM     23  C   UNL     1       1.005  10.909  20.044  0.00  0.00    +0.000 A 
ATOM     24  C   UNL     1       1.304   9.691  19.420  0.00  0.00    +0.000 A 
BRANCH  23  25
ATOM     25  C   UNL     1       1.120  12.197  19.320  0.00  0.00    +0.000 C 
ATOM     26  O   UNL     1       0.377  12.401  18.365  0.00  0.00    +0.000 OA
ATOM     27  N   UNL     1       2.140  13.040  19.735  0.00  0.00    +0.000 N 
ATOM     28  H   UNL     1       2.912  12.632  20.244  0.00  0.00    +0.000 HD
BRANCH  27  29
ATOM     29  C   UNL     1       2.370  14.277  19.096  0.00  0.00    +0.000 A 
ATOM     30  C   UNL     1       3.403  14.355  18.148  0.00  0.00    +0.000 A 
ATOM     31  C   UNL     1       3.636  15.528  17.433  0.00  0.00    +0.000 A 
ATOM     32  C   UNL     1       2.849  16.648  17.675  0.00  0.00    +0.000 A 
ATOM     33  C   UNL     1       1.816  16.581  18.613  0.00  0.00    +0.000 A 
ATOM     34  C   UNL     1       1.559  15.400  19.323  0.00  0.00    +0.000 A 
BRANCH  34  35
ATOM     35  O   UNL     1       0.491  15.477  20.177  0.00  0.00    +0.000 OA
ATOM     36  C   UNL     1      -0.742  15.926  19.619  0.00  0.00    +0.000 C 
ENDBRANCH  34  35
ENDBRANCH  27  29
ENDBRANCH  23  25
ENDBRANCH   3  19
TORSDOF 8
ENDMDL
MODEL 9
REMARK VINA RESULT:      -7.7      1.899      3.051
REMARK  Name = 
REMARK  10 active torsions:
REMARK  status: ('A' for Active; 'I' for Inactive)
REMARK    1  A    between atoms: C_1  and  O_2
REMARK    2  A    between atoms: O_2  and  C_3
REMARK    3  A    between atoms: C_3  and  C_4
REMARK    4  A    between atoms: C_4  and  N_5
REMARK    5  A    between atoms: C_11  and  C_12
REMARK    6  A    between atoms: N_14  and  C_15
REMARK    7  A    between atoms: C_19  and  C_20
REMARK    8  A    between atoms: N_22  and  C_23
REMARK    9  A    between atoms: C_28  and  O_29
REMARK   10  A    between atoms: O_29  and  C_30
REMARK                            x       y       z     vdW  Elec       q    Type
REMARK                         _______ _______ _______ _____ _____    ______ ____
ROOT
ATOM      1  C   UNL     1       2.255   7.008  18.996  0.00  0.00    +0.000 C 
ATOM      2  O   UNL     1       2.384   7.104  20.214  0.00  0.00    +0.000 OA
ATOM      3  N   UNL     1       1.980   8.064  18.155  0.00  0.00    +0.000 N 
ATOM      4  H   UNL     1       1.984   7.896  17.152  0.00  0.00    +0.000 HD
ENDROOT
BRANCH   1  11
ATOM      5  N   UNL     1       5.480   4.991  16.392  0.00  0.00    +0.000 N 
ATOM      6  C   UNL     1       4.918   3.660  16.426  0.00  0.00    +0.000 C 
ATOM      7  C   UNL     1       3.648   3.873  17.188  0.00  0.00    +0.000 A 
ATOM      8  C   UNL     1       2.685   2.931  17.503  0.00  0.00    +0.000 A 
ATOM      9  C   UNL     1       1.590   3.339  18.256  0.00  0.00    +0.000 A 
ATOM     10  C   UNL     1       1.491   4.670  18.702  0.00  0.00    +0.000 A 
ATOM     11  C   UNL     1       2.474   5.644  18.397  0.00  0.00    +0.000 A 
ATOM     12  C   UNL     1       3.532   5.212  17.609  0.00  0.00    +0.000 A 
ATOM     13  C   UNL     1       4.717   5.909  17.072  0.00  0.00    +0.000 C 
ATOM     14  O   UNL     1       4.971   7.089  17.229  0.00  0.00    +0.000 OA
BRANCH   5  15
ATOM     15  C   UNL     1       6.789   5.306  15.837  0.00  0.00    +0.000 C 
BRANCH  15  16
ATOM     16  C   UNL     1       7.149   4.519  14.582  0.00  0.00    +0.000 C 
BRANCH  16  18
ATOM     17  C   UNL     1       6.215   3.535  12.658  0.00  0.00    +0.000 C 
ATOM     18  O   UNL     1       6.072   4.548  13.645  0.00  0.00    +0.000 OA
ENDBRANCH  16  18
ENDBRANCH  15  16
ENDBRANCH   5  15
ENDBRANCH   1  11
BRANCH   3  19
ATOM     19  C   UNL     1       1.716   9.403  18.516  0.00  0.00    +0.000 A 
ATOM     20  C   UNL     1       2.342  10.497  17.920  0.00  0.00    +0.000 A 
ATOM     21  C   UNL     1       2.021  11.799  18.310  0.00  0.00    +0.000 A 
ATOM     22  C   UNL     1       1.070  12.012  19.302  0.00  0.00    +0.000 A 
ATOM     23  C   UNL     1       0.457  10.924  19.925  0.00  0.00    +0.000 A 
ATOM     24  C   UNL     1       0.779   9.616  19.537  0.00  0.00    +0.000 A 
BRANCH  23  25
ATOM     25  C   UNL     1      -0.584  11.193  20.946  0.00  0.00    +0.000 C 
ATOM     26  O   UNL     1      -0.863  10.305  21.746  0.00  0.00    +0.000 OA
ATOM     27  N   UNL     1      -1.229  12.416  20.850  0.00  0.00    +0.000 N 
ATOM     28  H   UNL     1      -1.205  12.894  19.960  0.00  0.00    +0.000 HD
BRANCH  27  29
ATOM     29  C   UNL     1      -2.263  12.767  21.745  0.00  0.00    +0.000 A 
ATOM     30  C   UNL     1      -1.910  13.170  23.043  0.00  0.00    +0.000 A 
ATOM     31  C   UNL     1      -2.878  13.596  23.951  0.00  0.00    +0.000 A 
ATOM     32  C   UNL     1      -4.217  13.600  23.577  0.00  0.00    +0.000 A 
ATOM     33  C   UNL     1      -4.578  13.204  22.287  0.00  0.00    +0.000 A 
ATOM     34  C   UNL     1      -3.611  12.795  21.358  0.00  0.00    +0.000 A 
BRANCH  34  35
ATOM     35  O   UNL     1      -4.115  12.476  20.126  0.00  0.00    +0.000 OA
ATOM     36  C   UNL     1      -5.500  12.145  20.066  0.00  0.00    +0.000 C 
ENDBRANCH  34  35
ENDBRANCH  27  29
ENDBRANCH  23  25
ENDBRANCH   3  19
TORSDOF 8
ENDMDL
