MODEL 1
REMARK VINA RESULT:      -8.5      0.000      0.000
REMARK  Name = 
REMARK  8 active torsions:
REMARK  status: ('A' for Active; 'I' for Inactive)
REMARK    1  A    between atoms: C_1  and  C_2
REMARK    2  A    between atoms: C_5  and  O_6
REMARK    3  A    between atoms: C_7  and  C_8
REMARK    4  A    between atoms: N_10  and  C_11
REMARK    5  A    between atoms: C_11  and  N_13
REMARK    6  A    between atoms: N_13  and  C_14
REMARK    7  A    between atoms: C_20  and  C_21
REMARK    8  A    between atoms: C_24  and  N_25
REMARK                            x       y       z     vdW  Elec       q    Type
REMARK                         _______ _______ _______ _____ _____    ______ ____
ROOT
ATOM      1  C   UNL     1       5.496   4.523  15.733  0.00  0.00    +0.000 C 
ATOM      2  N   UNL     1       6.257   4.443  16.787  0.00  0.00    +0.000 NA
ATOM      3  N   UNL     1       5.425   4.576  17.894  0.00  0.00    +0.000 N 
ATOM      4  C   UNL     1       4.005   4.780  17.527  0.00  0.00    +0.000 C 
ATOM      5  C   UNL     1       4.041   4.746  16.004  0.00  0.00    +0.000 C 
ENDROOT
BRANCH   1  11
ATOM      6  C   UNL     1       4.659   2.687  11.170  0.00  0.00    +0.000 C 
ATOM      7  C   UNL     1       5.547   3.443  12.111  0.00  0.00    +0.000 A 
ATOM      8  C   UNL     1       6.743   4.012  11.659  0.00  0.00    +0.000 A 
ATOM      9  C   UNL     1       7.549   4.745  12.526  0.00  0.00    +0.000 A 
ATOM     10  C   UNL     1       7.159   4.921  13.855  0.00  0.00    +0.000 A 
ATOM     11  C   UNL     1       5.976   4.341  14.338  0.00  0.00    +0.000 A 
ATOM     12  C   UNL     1       5.178   3.603  13.457  0.00  0.00    +0.000 A 
BRANCH  10  13
ATOM     13  O   UNL     1       7.970   5.666  14.666  0.00  0.00    +0.000 OA
ATOM     14  H   UNL     1       8.667   5.100  15.040  0.00  0.00    +0.000 HD
ENDBRANCH  10  13
ENDBRANCH   1  11
BRANCH   4  15
ATOM     15  C   UNL     1       3.369   6.078  18.045  0.00  0.00    +0.000 A 
ATOM     16  C   UNL     1       3.310   7.224  17.237  0.00  0.00    +0.000 A 
ATOM     17  C   UNL     1       2.680   8.397  17.673  0.00  0.00    +0.000 A 
ATOM     18  C   UNL     1       2.016   8.463  18.899  0.00  0.00    +0.000 A 
ATOM     19  C   UNL     1       2.071   7.324  19.701  0.00  0.00    +0.000 A 
ATOM     20  C   UNL     1       2.748   6.169  19.294  0.00  0.00    +0.000 A 
BRANCH  18  21
ATOM     21  N   UNL     1       1.280   9.570  19.253  0.00  0.00    +0.000 N 
ATOM     22  C   UNL     1       0.913  10.609  18.282  0.00  0.00    +0.000 C 
ATOM     23  C   UNL     1       1.016  11.983  18.969  0.00  0.00    +0.000 C 
ATOM     24  O   UNL     1       0.243  12.044  20.181  0.00  0.00    +0.000 OA
ATOM     25  C   UNL     1       0.679  11.029  21.105  0.00  0.00    +0.000 C 
ATOM     26  C   UNL     1       0.517   9.625  20.504  0.00  0.00    +0.000 C 
ENDBRANCH  18  21
ENDBRANCH   4  15
BRANCH   3  27
ATOM     27  C   UNL     1       5.933   4.258  19.165  0.00  0.00    +0.000 C 
ATOM     28  S   UNL     1       7.105   5.167  19.967  0.00  0.00    +0.000 S 
BRANCH  27  29
ATOM     29  N   UNL     1       5.336   3.116  19.680  0.00  0.00    +0.000 N 
ATOM     30  H   UNL     1       6.012   2.444  20.028  0.00  0.00    +0.000 HD
BRANCH  29  31
ATOM     31  C   UNL     1       3.965   2.832  19.845  0.00  0.00    +0.000 A 
ATOM     32  C   UNL     1       3.328   3.301  20.996  0.00  0.00    +0.000 A 
ATOM     33  C   UNL     1       1.964   3.064  21.199  0.00  0.00    +0.000 A 
ATOM     34  C   UNL     1       1.213   2.406  20.227  0.00  0.00    +0.000 A 
ATOM     35  C   UNL     1       1.827   1.978  19.054  0.00  0.00    +0.000 A 
ATOM     36  C   UNL     1       3.200   2.182  18.871  0.00  0.00    +0.000 A 
ENDBRANCH  29  31
ENDBRANCH  27  29
ENDBRANCH   3  27
TORSDOF 7
ENDMDL
MODEL 2
REMARK VINA RESULT:      -8.4      4.468     10.595
REMARK  Name = 
REMARK  8 active torsions:
REMARK  status: ('A' for Active; 'I' for Inactive)
REMARK    1  A    between atoms: C_1  and  C_2
REMARK    2  A    between atoms: C_5  and  O_6
REMARK    3  A    between atoms: C_7  and  C_8
REMARK    4  A    between atoms: N_10  and  C_11
REMARK    5  A    between atoms: C_11  and  N_13
REMARK    6  A    between atoms: N_13  and  C_14
REMARK    7  A    between atoms: C_20  and  C_21
REMARK    8  A    between atoms: C_24  and  N_25
REMARK                            x       y       z     vdW  Elec       q    Type
REMARK                         _______ _______ _______ _____ _____    ______ ____
ROOT
ATOM      1  C   UNL     1       0.219  13.547  18.894  0.00  0.00    +0.000 C 
ATOM      2  N   UNL     1      -0.720  13.154  18.082  0.00  0.00    +0.000 NA
ATOM      3  N   UNL     1      -1.071  11.864  18.468  0.00  0.00    +0.000 N 
ATOM      4  C   UNL     1      -0.278  11.370  19.617  0.00  0.00    +0.000 C 
ATOM      5  C   UNL     1       0.637  12.548  19.927  0.00  0.00    +0.000 C 
ENDROOT
BRANCH   1  11
ATOM      6  C   UNL     1       4.296  16.378  18.389  0.00  0.00    +0.000 C 
ATOM      7  C   UNL     1       2.821  16.277  18.629  0.00  0.00    +0.000 A 
ATOM      8  C   UNL     1       2.041  17.430  18.764  0.00  0.00    +0.000 A 
ATOM      9  C   UNL     1       0.664  17.335  18.951  0.00  0.00    +0.000 A 
ATOM     10  C   UNL     1       0.055  16.080  18.996  0.00  0.00    +0.000 A 
ATOM     11  C   UNL     1       0.818  14.907  18.886  0.00  0.00    +0.000 A 
ATOM     12  C   UNL     1       2.201  15.018  18.704  0.00  0.00    +0.000 A 
BRANCH  10  13
ATOM     13  O   UNL     1      -1.302  16.033  19.160  0.00  0.00    +0.000 OA
ATOM     14  H   UNL     1      -1.696  15.479  18.465  0.00  0.00    +0.000 HD
ENDBRANCH  10  13
ENDBRANCH   1  11
BRANCH   4  15
ATOM     15  C   UNL     1       0.524  10.087  19.362  0.00  0.00    +0.000 A 
ATOM     16  C   UNL     1       1.130   9.851  18.118  0.00  0.00    +0.000 A 
ATOM     17  C   UNL     1       1.915   8.713  17.889  0.00  0.00    +0.000 A 
ATOM     18  C   UNL     1       2.194   7.795  18.904  0.00  0.00    +0.000 A 
ATOM     19  C   UNL     1       1.595   8.031  20.141  0.00  0.00    +0.000 A 
ATOM     20  C   UNL     1       0.765   9.135  20.358  0.00  0.00    +0.000 A 
BRANCH  18  21
ATOM     21  N   UNL     1       3.080   6.762  18.707  0.00  0.00    +0.000 N 
ATOM     22  C   UNL     1       4.118   6.808  17.669  0.00  0.00    +0.000 C 
ATOM     23  C   UNL     1       4.251   5.407  17.044  0.00  0.00    +0.000 C 
ATOM     24  O   UNL     1       4.487   4.391  18.034  0.00  0.00    +0.000 OA
ATOM     25  C   UNL     1       3.416   4.370  18.996  0.00  0.00    +0.000 C 
ATOM     26  C   UNL     1       3.292   5.719  19.717  0.00  0.00    +0.000 C 
ENDBRANCH  18  21
ENDBRANCH   4  15
BRANCH   3  27
ATOM     27  C   UNL     1      -2.244  11.297  17.942  0.00  0.00    +0.000 C 
ATOM     28  S   UNL     1      -2.314   9.775  17.220  0.00  0.00    +0.000 S 
BRANCH  27  29
ATOM     29  N   UNL     1      -3.335  12.138  18.110  0.00  0.00    +0.000 N 
ATOM     30  H   UNL     1      -3.204  13.042  17.669  0.00  0.00    +0.000 HD
BRANCH  29  31
ATOM     31  C   UNL     1      -4.577  11.865  18.719  0.00  0.00    +0.000 A 
ATOM     32  C   UNL     1      -5.472  11.030  18.047  0.00  0.00    +0.000 A 
ATOM     33  C   UNL     1      -6.710  10.711  18.616  0.00  0.00    +0.000 A 
ATOM     34  C   UNL     1      -7.040  11.178  19.887  0.00  0.00    +0.000 A 
ATOM     35  C   UNL     1      -6.135  11.970  20.586  0.00  0.00    +0.000 A 
ATOM     36  C   UNL     1      -4.914  12.319  19.998  0.00  0.00    +0.000 A 
ENDBRANCH  29  31
ENDBRANCH  27  29
ENDBRANCH   3  27
TORSDOF 7
ENDMDL
MODEL 3
REMARK VINA RESULT:      -8.3      4.474     10.716
REMARK  Name = 
REMARK  8 active torsions:
REMARK  status: ('A' for Active; 'I' for Inactive)
REMARK    1  A    between atoms: C_1  and  C_2
REMARK    2  A    between atoms: C_5  and  O_6
REMARK    3  A    between atoms: C_7  and  C_8
REMARK    4  A    between atoms: N_10  and  C_11
REMARK    5  A    between atoms: C_11  and  N_13
REMARK    6  A    between atoms: N_13  and  C_14
REMARK    7  A    between atoms: C_20  and  C_21
REMARK    8  A    between atoms: C_24  and  N_25
REMARK                            x       y       z     vdW  Elec       q    Type
REMARK                         _______ _______ _______ _____ _____    ______ ____
ROOT
ATOM      1  C   UNL     1       0.203  13.682  18.903  0.00  0.00    +0.000 C 
ATOM      2  N   UNL     1      -0.652  13.234  18.029  0.00  0.00    +0.000 NA
ATOM      3  N   UNL     1      -0.957  11.927  18.397  0.00  0.00    +0.000 N 
ATOM      4  C   UNL     1      -0.222  11.482  19.602  0.00  0.00    +0.000 C 
ATOM      5  C   UNL     1       0.601  12.711  19.970  0.00  0.00    +0.000 C 
ENDROOT
BRANCH   1  11
ATOM      6  C   UNL     1       4.120  16.748  18.520  0.00  0.00    +0.000 C 
ATOM      7  C   UNL     1       2.649  16.558  18.732  0.00  0.00    +0.000 A 
ATOM      8  C   UNL     1       1.802  17.663  18.872  0.00  0.00    +0.000 A 
ATOM      9  C   UNL     1       0.430  17.487  19.032  0.00  0.00    +0.000 A 
ATOM     10  C   UNL     1      -0.107  16.199  19.045  0.00  0.00    +0.000 A 
ATOM     11  C   UNL     1       0.723  15.073  18.929  0.00  0.00    +0.000 A 
ATOM     12  C   UNL     1       2.101  15.266  18.774  0.00  0.00    +0.000 A 
BRANCH  10  13
ATOM     13  O   UNL     1      -1.462  16.072  19.183  0.00  0.00    +0.000 OA
ATOM     14  H   UNL     1      -1.911  16.706  18.599  0.00  0.00    +0.000 HD
ENDBRANCH  10  13
ENDBRANCH   1  11
BRANCH   4  15
ATOM     15  C   UNL     1       0.667  10.245  19.414  0.00  0.00    +0.000 A 
ATOM     16  C   UNL     1       0.742   9.254  20.407  0.00  0.00    +0.000 A 
ATOM     17  C   UNL     1       1.502   8.091  20.225  0.00  0.00    +0.000 A 
ATOM     18  C   UNL     1       2.162   7.823  19.024  0.00  0.00    +0.000 A 
ATOM     19  C   UNL     1       2.083   8.805  18.037  0.00  0.00    +0.000 A 
ATOM     20  C   UNL     1       1.374   9.993  18.235  0.00  0.00    +0.000 A 
BRANCH  18  21
ATOM     21  N   UNL     1       2.783   6.616  18.806  0.00  0.00    +0.000 N 
ATOM     22  C   UNL     1       2.251   5.354  19.335  0.00  0.00    +0.000 C 
ATOM     23  C   UNL     1       3.429   4.479  19.800  0.00  0.00    +0.000 C 
ATOM     24  O   UNL     1       4.407   4.288  18.762  0.00  0.00    +0.000 OA
ATOM     25  C   UNL     1       4.919   5.558  18.317  0.00  0.00    +0.000 C 
ATOM     26  C   UNL     1       3.796   6.444  17.759  0.00  0.00    +0.000 C 
ENDBRANCH  18  21
ENDBRANCH   4  15
BRANCH   3  27
ATOM     27  C   UNL     1      -2.055  11.293  17.793  0.00  0.00    +0.000 C 
ATOM     28  S   UNL     1      -2.007   9.738  17.144  0.00  0.00    +0.000 S 
BRANCH  27  29
ATOM     29  N   UNL     1      -3.185  12.100  17.816  0.00  0.00    +0.000 N 
ATOM     30  H   UNL     1      -3.102  12.907  17.206  0.00  0.00    +0.000 HD
BRANCH  29  31
ATOM     31  C   UNL     1      -4.406  11.895  18.490  0.00  0.00    +0.000 A 
ATOM     32  C   UNL     1      -5.382  11.117  17.865  0.00  0.00    +0.000 A 
ATOM     33  C   UNL     1      -6.604  10.865  18.499  0.00  0.00    +0.000 A 
ATOM     34  C   UNL     1      -6.837  11.341  19.788  0.00  0.00    +0.000 A 
ATOM     35  C   UNL     1      -5.851  12.075  20.440  0.00  0.00    +0.000 A 
ATOM     36  C   UNL     1      -4.646  12.358  19.788  0.00  0.00    +0.000 A 
ENDBRANCH  29  31
ENDBRANCH  27  29
ENDBRANCH   3  27
TORSDOF 7
ENDMDL
MODEL 4
REMARK VINA RESULT:      -8.3      3.598      9.521
REMARK  Name = 
REMARK  8 active torsions:
REMARK  status: ('A' for Active; 'I' for Inactive)
REMARK    1  A    between atoms: C_1  and  C_2
REMARK    2  A    between atoms: C_5  and  O_6
REMARK    3  A    between atoms: C_7  and  C_8
REMARK    4  A    between atoms: N_10  and  C_11
REMARK    5  A    between atoms: C_11  and  N_13
REMARK    6  A    between atoms: N_13  and  C_14
REMARK    7  A    between atoms: C_20  and  C_21
REMARK    8  A    between atoms: C_24  and  N_25
REMARK                            x       y       z     vdW  Elec       q    Type
REMARK                         _______ _______ _______ _____ _____    ______ ____
ROOT
ATOM      1  C   UNL     1      -0.984  10.320  18.422  0.00  0.00    +0.000 C 
ATOM      2  N   UNL     1      -0.959  10.327  19.725  0.00  0.00    +0.000 NA
ATOM      3  N   UNL     1       0.347  10.029  20.103  0.00  0.00    +0.000 N 
ATOM      4  C   UNL     1       1.241   9.788  18.948  0.00  0.00    +0.000 C 
ATOM      5  C   UNL     1       0.314   9.990  17.755  0.00  0.00    +0.000 C 
ENDROOT
BRANCH   1  11
ATOM      6  C   UNL     1      -3.445   9.886  14.105  0.00  0.00    +0.000 C 
ATOM      7  C   UNL     1      -3.366  10.449  15.491  0.00  0.00    +0.000 A 
ATOM      8  C   UNL     1      -4.414  11.219  16.007  0.00  0.00    +0.000 A 
ATOM      9  C   UNL     1      -4.355  11.711  17.308  0.00  0.00    +0.000 A 
ATOM     10  C   UNL     1      -3.247  11.428  18.108  0.00  0.00    +0.000 A 
ATOM     11  C   UNL     1      -2.173  10.678  17.606  0.00  0.00    +0.000 A 
ATOM     12  C   UNL     1      -2.243  10.195  16.295  0.00  0.00    +0.000 A 
BRANCH  10  13
ATOM     13  O   UNL     1      -3.241  11.914  19.387  0.00  0.00    +0.000 OA
ATOM     14  H   UNL     1      -3.835  12.680  19.449  0.00  0.00    +0.000 HD
ENDBRANCH  10  13
ENDBRANCH   1  11
BRANCH   4  15
ATOM     15  C   UNL     1       1.915   8.410  18.910  0.00  0.00    +0.000 A 
ATOM     16  C   UNL     1       1.597   7.426  19.861  0.00  0.00    +0.000 A 
ATOM     17  C   UNL     1       2.158   6.144  19.804  0.00  0.00    +0.000 A 
ATOM     18  C   UNL     1       3.002   5.755  18.762  0.00  0.00    +0.000 A 
ATOM     19  C   UNL     1       3.315   6.730  17.816  0.00  0.00    +0.000 A 
ATOM     20  C   UNL     1       2.803   8.029  17.900  0.00  0.00    +0.000 A 
BRANCH  18  21
ATOM     21  N   UNL     1       3.431   4.454  18.640  0.00  0.00    +0.000 N 
ATOM     22  C   UNL     1       2.991   3.585  17.541  0.00  0.00    +0.000 C 
ATOM     23  C   UNL     1       2.775   2.165  18.094  0.00  0.00    +0.000 C 
ATOM     24  O   UNL     1       3.937   1.665  18.778  0.00  0.00    +0.000 OA
ATOM     25  C   UNL     1       4.292   2.538  19.867  0.00  0.00    +0.000 C 
ATOM     26  C   UNL     1       4.605   3.954  19.363  0.00  0.00    +0.000 C 
ENDBRANCH  18  21
ENDBRANCH   4  15
BRANCH   3  27
ATOM     27  C   UNL     1       0.728  10.235  21.440  0.00  0.00    +0.000 C 
ATOM     28  S   UNL     1       1.363   9.033  22.436  0.00  0.00    +0.000 S 
BRANCH  27  29
ATOM     29  N   UNL     1       0.531  11.553  21.827  0.00  0.00    +0.000 N 
ATOM     30  H   UNL     1       1.347  12.135  21.665  0.00  0.00    +0.000 HD
BRANCH  29  31
ATOM     31  C   UNL     1      -0.640  12.168  22.315  0.00  0.00    +0.000 A 
ATOM     32  C   UNL     1      -0.863  13.509  21.999  0.00  0.00    +0.000 A 
ATOM     33  C   UNL     1      -2.019  14.161  22.441  0.00  0.00    +0.000 A 
ATOM     34  C   UNL     1      -2.990  13.461  23.155  0.00  0.00    +0.000 A 
ATOM     35  C   UNL     1      -2.802  12.111  23.432  0.00  0.00    +0.000 A 
ATOM     36  C   UNL     1      -1.626  11.472  23.022  0.00  0.00    +0.000 A 
ENDBRANCH  29  31
ENDBRANCH  27  29
ENDBRANCH   3  27
TORSDOF 7
ENDMDL
MODEL 5
REMARK VINA RESULT:      -8.3      4.177     10.121
REMARK  Name = 
REMARK  8 active torsions:
REMARK  status: ('A' for Active; 'I' for Inactive)
REMARK    1  A    between atoms: C_1  and  C_2
REMARK    2  A    between atoms: C_5  and  O_6
REMARK    3  A    between atoms: C_7  and  C_8
REMARK    4  A    between atoms: N_10  and  C_11
REMARK    5  A    between atoms: C_11  and  N_13
REMARK    6  A    between atoms: N_13  and  C_14
REMARK    7  A    between atoms: C_20  and  C_21
REMARK    8  A    between atoms: C_24  and  N_25
REMARK                            x       y       z     vdW  Elec       q    Type
REMARK                         _______ _______ _______ _____ _____    ______ ____
ROOT
ATOM      1  C   UNL     1       1.289  13.262  18.950  0.00  0.00    +0.000 C 
ATOM      2  N   UNL     1       0.208  12.984  18.279  0.00  0.00    +0.000 NA
ATOM      3  N   UNL     1      -0.383  11.889  18.903  0.00  0.00    +0.000 N 
ATOM      4  C   UNL     1       0.392  11.401  20.066  0.00  0.00    +0.000 C 
ATOM      5  C   UNL     1       1.575  12.361  20.111  0.00  0.00    +0.000 C 
ENDROOT
BRANCH   1  11
ATOM      6  C   UNL     1       5.853  14.937  17.832  0.00  0.00    +0.000 C 
ATOM      7  C   UNL     1       4.411  15.224  18.117  0.00  0.00    +0.000 A 
ATOM      8  C   UNL     1       3.917  16.531  18.045  0.00  0.00    +0.000 A 
ATOM      9  C   UNL     1       2.568  16.790  18.275  0.00  0.00    +0.000 A 
ATOM     10  C   UNL     1       1.699  15.739  18.570  0.00  0.00    +0.000 A 
ATOM     11  C   UNL     1       2.174  14.422  18.671  0.00  0.00    +0.000 A 
ATOM     12  C   UNL     1       3.533  14.177  18.443  0.00  0.00    +0.000 A 
BRANCH  10  13
ATOM     13  O   UNL     1       0.378  16.036  18.767  0.00  0.00    +0.000 OA
ATOM     14  H   UNL     1      -0.176  15.347  18.363  0.00  0.00    +0.000 HD
ENDBRANCH  10  13
ENDBRANCH   1  11
BRANCH   4  15
ATOM     15  C   UNL     1       0.856   9.940  19.985  0.00  0.00    +0.000 A 
ATOM     16  C   UNL     1       1.505   9.452  18.839  0.00  0.00    +0.000 A 
ATOM     17  C   UNL     1       1.987   8.139  18.773  0.00  0.00    +0.000 A 
ATOM     18  C   UNL     1       1.913   7.272  19.866  0.00  0.00    +0.000 A 
ATOM     19  C   UNL     1       1.272   7.757  21.005  0.00  0.00    +0.000 A 
ATOM     20  C   UNL     1       0.738   9.049  21.056  0.00  0.00    +0.000 A 
BRANCH  18  21
ATOM     21  N   UNL     1       2.516   6.036  19.837  0.00  0.00    +0.000 N 
ATOM     22  C   UNL     1       3.792   5.803  19.149  0.00  0.00    +0.000 C 
ATOM     23  C   UNL     1       3.737   4.427  18.463  0.00  0.00    +0.000 C 
ATOM     24  O   UNL     1       3.391   3.375  19.382  0.00  0.00    +0.000 OA
ATOM     25  C   UNL     1       2.114   3.642  19.991  0.00  0.00    +0.000 C 
ATOM     26  C   UNL     1       2.135   4.967  20.766  0.00  0.00    +0.000 C 
ENDBRANCH  18  21
ENDBRANCH   4  15
BRANCH   3  27
ATOM     27  C   UNL     1      -1.700  11.544  18.558  0.00  0.00    +0.000 C 
ATOM     28  S   UNL     1      -2.131  10.094  17.813  0.00  0.00    +0.000 S 
BRANCH  27  29
ATOM     29  N   UNL     1      -2.598  12.536  18.925  0.00  0.00    +0.000 N 
ATOM     30  H   UNL     1      -2.750  13.219  18.189  0.00  0.00    +0.000 HD
BRANCH  29  31
ATOM     31  C   UNL     1      -3.351  12.654  20.111  0.00  0.00    +0.000 A 
ATOM     32  C   UNL     1      -4.743  12.589  20.018  0.00  0.00    +0.000 A 
ATOM     33  C   UNL     1      -5.537  12.680  21.167  0.00  0.00    +0.000 A 
ATOM     34  C   UNL     1      -4.944  12.779  22.424  0.00  0.00    +0.000 A 
ATOM     35  C   UNL     1      -3.557  12.794  22.532  0.00  0.00    +0.000 A 
ATOM     36  C   UNL     1      -2.766  12.742  21.379  0.00  0.00    +0.000 A 
ENDBRANCH  29  31
ENDBRANCH  27  29
ENDBRANCH   3  27
TORSDOF 7
ENDMDL
MODEL 6
REMARK VINA RESULT:      -8.2      4.417      9.955
REMARK  Name = 
REMARK  8 active torsions:
REMARK  status: ('A' for Active; 'I' for Inactive)
REMARK    1  A    between atoms: C_1  and  C_2
REMARK    2  A    between atoms: C_5  and  O_6
REMARK    3  A    between atoms: C_7  and  C_8
REMARK    4  A    between atoms: N_10  and  C_11
REMARK    5  A    between atoms: C_11  and  N_13
REMARK    6  A    between atoms: N_13  and  C_14
REMARK    7  A    between atoms: C_20  and  C_21
REMARK    8  A    between atoms: C_24  and  N_25
REMARK                            x       y       z     vdW  Elec       q    Type
REMARK                         _______ _______ _______ _____ _____    ______ ____
ROOT
ATOM      1  C   UNL     1       1.148  13.604  19.363  0.00  0.00    +0.000 C 
ATOM      2  N   UNL     1      -0.101  13.394  19.061  0.00  0.00    +0.000 NA
ATOM      3  N   UNL     1      -0.519  12.302  19.816  0.00  0.00    +0.000 N 
ATOM      4  C   UNL     1       0.557  11.743  20.666  0.00  0.00    +0.000 C 
ATOM      5  C   UNL     1       1.739  12.652  20.355  0.00  0.00    +0.000 C 
ENDROOT
BRANCH   1  11
ATOM      6  C   UNL     1       5.577  15.283  17.797  0.00  0.00    +0.000 C 
ATOM      7  C   UNL     1       4.127  15.540  18.074  0.00  0.00    +0.000 A 
ATOM      8  C   UNL     1       3.556  16.783  17.778  0.00  0.00    +0.000 A 
ATOM      9  C   UNL     1       2.200  17.008  18.002  0.00  0.00    +0.000 A 
ATOM     10  C   UNL     1       1.402  15.985  18.517  0.00  0.00    +0.000 A 
ATOM     11  C   UNL     1       1.955  14.737  18.843  0.00  0.00    +0.000 A 
ATOM     12  C   UNL     1       3.321  14.527  18.618  0.00  0.00    +0.000 A 
BRANCH  10  13
ATOM     13  O   UNL     1       0.071  16.243  18.701  0.00  0.00    +0.000 OA
ATOM     14  H   UNL     1      -0.118  17.167  18.467  0.00  0.00    +0.000 HD
ENDBRANCH  10  13
ENDBRANCH   1  11
BRANCH   4  15
ATOM     15  C   UNL     1       0.900  10.268  20.413  0.00  0.00    +0.000 A 
ATOM     16  C   UNL     1       1.334   9.836  19.149  0.00  0.00    +0.000 A 
ATOM     17  C   UNL     1       1.708   8.506  18.918  0.00  0.00    +0.000 A 
ATOM     18  C   UNL     1       1.738   7.561  19.946  0.00  0.00    +0.000 A 
ATOM     19  C   UNL     1       1.311   7.991  21.202  0.00  0.00    +0.000 A 
ATOM     20  C   UNL     1       0.882   9.303  21.424  0.00  0.00    +0.000 A 
BRANCH  18  21
ATOM     21  N   UNL     1       2.242   6.298  19.739  0.00  0.00    +0.000 N 
ATOM     22  C   UNL     1       3.340   6.038  18.800  0.00  0.00    +0.000 C 
ATOM     23  C   UNL     1       3.063   4.709  18.074  0.00  0.00    +0.000 C 
ATOM     24  O   UNL     1       2.836   3.626  18.991  0.00  0.00    +0.000 OA
ATOM     25  C   UNL     1       1.724   3.924  19.855  0.00  0.00    +0.000 C 
ATOM     26  C   UNL     1       1.982   5.197  20.673  0.00  0.00    +0.000 C 
ENDBRANCH  18  21
ENDBRANCH   4  15
BRANCH   3  27
ATOM     27  C   UNL     1      -1.893  12.021  19.897  0.00  0.00    +0.000 C 
ATOM     28  S   UNL     1      -2.999  12.960  20.755  0.00  0.00    +0.000 S 
BRANCH  27  29
ATOM     29  N   UNL     1      -2.225  10.888  19.167  0.00  0.00    +0.000 N 
ATOM     30  H   UNL     1      -2.157  10.036  19.714  0.00  0.00    +0.000 HD
BRANCH  29  31
ATOM     31  C   UNL     1      -2.702  10.795  17.844  0.00  0.00    +0.000 A 
ATOM     32  C   UNL     1      -2.034   9.947  16.959  0.00  0.00    +0.000 A 
ATOM     33  C   UNL     1      -2.479   9.802  15.640  0.00  0.00    +0.000 A 
ATOM     34  C   UNL     1      -3.630  10.462  15.211  0.00  0.00    +0.000 A 
ATOM     35  C   UNL     1      -4.331  11.271  16.099  0.00  0.00    +0.000 A 
ATOM     36  C   UNL     1      -3.862  11.443  17.406  0.00  0.00    +0.000 A 
ENDBRANCH  29  31
ENDBRANCH  27  29
ENDBRANCH   3  27
TORSDOF 7
ENDMDL
MODEL 7
REMARK VINA RESULT:      -8.2      3.699      9.618
REMARK  Name = 
REMARK  8 active torsions:
REMARK  status: ('A' for Active; 'I' for Inactive)
REMARK    1  A    between atoms: C_1  and  C_2
REMARK    2  A    between atoms: C_5  and  O_6
REMARK    3  A    between atoms: C_7  and  C_8
REMARK    4  A    between atoms: N_10  and  C_11
REMARK    5  A    between atoms: C_11  and  N_13
REMARK    6  A    between atoms: N_13  and  C_14
REMARK    7  A    between atoms: C_20  and  C_21
REMARK    8  A    between atoms: C_24  and  N_25
REMARK                            x       y       z     vdW  Elec       q    Type
REMARK                         _______ _______ _______ _____ _____    ______ ____
ROOT
ATOM      1  C   UNL     1      -1.118  10.415  18.444  0.00  0.00    +0.000 C 
ATOM      2  N   UNL     1      -1.100  10.512  19.743  0.00  0.00    +0.000 NA
ATOM      3  N   UNL     1       0.196  10.208  20.151  0.00  0.00    +0.000 N 
ATOM      4  C   UNL     1       1.090   9.865  19.022  0.00  0.00    +0.000 C 
ATOM      5  C   UNL     1       0.175  10.006  17.811  0.00  0.00    +0.000 C 
ENDROOT
BRANCH   1  11
ATOM      6  C   UNL     1      -3.445   9.934  14.058  0.00  0.00    +0.000 C 
ATOM      7  C   UNL     1      -3.420  10.493  15.447  0.00  0.00    +0.000 A 
ATOM      8  C   UNL     1      -4.502  11.234  15.936  0.00  0.00    +0.000 A 
ATOM      9  C   UNL     1      -4.492  11.722  17.241  0.00  0.00    +0.000 A 
ATOM     10  C   UNL     1      -3.400  11.465  18.070  0.00  0.00    +0.000 A 
ATOM     11  C   UNL     1      -2.292  10.745  17.596  0.00  0.00    +0.000 A 
ATOM     12  C   UNL     1      -2.313  10.265  16.282  0.00  0.00    +0.000 A 
BRANCH  10  13
ATOM     13  O   UNL     1      -3.441  11.945  19.350  0.00  0.00    +0.000 OA
ATOM     14  H   UNL     1      -2.820  12.687  19.441  0.00  0.00    +0.000 HD
ENDBRANCH  10  13
ENDBRANCH   1  11
BRANCH   4  15
ATOM     15  C   UNL     1       1.728   8.470  19.085  0.00  0.00    +0.000 A 
ATOM     16  C   UNL     1       1.618   7.679  20.240  0.00  0.00    +0.000 A 
ATOM     17  C   UNL     1       2.143   6.381  20.293  0.00  0.00    +0.000 A 
ATOM     18  C   UNL     1       2.736   5.782  19.180  0.00  0.00    +0.000 A 
ATOM     19  C   UNL     1       2.841   6.565  18.031  0.00  0.00    +0.000 A 
ATOM     20  C   UNL     1       2.370   7.882  17.992  0.00  0.00    +0.000 A 
BRANCH  18  21
ATOM     21  N   UNL     1       3.117   4.461  19.200  0.00  0.00    +0.000 N 
ATOM     22  C   UNL     1       4.211   3.948  18.366  0.00  0.00    +0.000 C 
ATOM     23  C   UNL     1       3.823   2.551  17.849  0.00  0.00    +0.000 C 
ATOM     24  O   UNL     1       3.461   1.658  18.917  0.00  0.00    +0.000 OA
ATOM     25  C   UNL     1       2.359   2.197  19.669  0.00  0.00    +0.000 C 
ATOM     26  C   UNL     1       2.719   3.557  20.284  0.00  0.00    +0.000 C 
ENDBRANCH  18  21
ENDBRANCH   4  15
BRANCH   3  27
ATOM     27  C   UNL     1       0.574  10.497  21.473  0.00  0.00    +0.000 C 
ATOM     28  S   UNL     1       0.098   9.588  22.810  0.00  0.00    +0.000 S 
BRANCH  27  29
ATOM     29  N   UNL     1       1.401  11.610  21.533  0.00  0.00    +0.000 N 
ATOM     30  H   UNL     1       2.229  11.452  22.098  0.00  0.00    +0.000 HD
BRANCH  29  31
ATOM     31  C   UNL     1       1.273  12.845  20.865  0.00  0.00    +0.000 A 
ATOM     32  C   UNL     1       0.250  13.708  21.264  0.00  0.00    +0.000 A 
ATOM     33  C   UNL     1       0.092  14.955  20.648  0.00  0.00    +0.000 A 
ATOM     34  C   UNL     1       0.990  15.372  19.668  0.00  0.00    +0.000 A 
ATOM     35  C   UNL     1       2.042  14.541  19.298  0.00  0.00    +0.000 A 
ATOM     36  C   UNL     1       2.175  13.279  19.888  0.00  0.00    +0.000 A 
ENDBRANCH  29  31
ENDBRANCH  27  29
ENDBRANCH   3  27
TORSDOF 7
ENDMDL
MODEL 8
REMARK VINA RESULT:      -8.2      4.034     10.162
REMARK  Name = 
REMARK  8 active torsions:
REMARK  status: ('A' for Active; 'I' for Inactive)
REMARK    1  A    between atoms: C_1  and  C_2
REMARK    2  A    between atoms: C_5  and  O_6
REMARK    3  A    between atoms: C_7  and  C_8
REMARK    4  A    between atoms: N_10  and  C_11
REMARK    5  A    between atoms: C_11  and  N_13
REMARK    6  A    between atoms: N_13  and  C_14
REMARK    7  A    between atoms: C_20  and  C_21
REMARK    8  A    between atoms: C_24  and  N_25
REMARK                            x       y       z     vdW  Elec       q    Type
REMARK                         _______ _______ _______ _____ _____    ______ ____
ROOT
ATOM      1  C   UNL     1       1.246  13.297  18.846  0.00  0.00    +0.000 C 
ATOM      2  N   UNL     1       0.127  13.039  18.232  0.00  0.00    +0.000 NA
ATOM      3  N   UNL     1      -0.362  11.852  18.769  0.00  0.00    +0.000 N 
ATOM      4  C   UNL     1       0.525  11.280  19.806  0.00  0.00    +0.000 C 
ATOM      5  C   UNL     1       1.665  12.290  19.870  0.00  0.00    +0.000 C 
ENDROOT
BRANCH   1  11
ATOM      6  C   UNL     1       5.713  15.330  17.951  0.00  0.00    +0.000 C 
ATOM      7  C   UNL     1       4.244  15.503  18.190  0.00  0.00    +0.000 A 
ATOM      8  C   UNL     1       3.660  16.773  18.138  0.00  0.00    +0.000 A 
ATOM      9  C   UNL     1       2.288  16.928  18.325  0.00  0.00    +0.000 A 
ATOM     10  C   UNL     1       1.488  15.808  18.556  0.00  0.00    +0.000 A 
ATOM     11  C   UNL     1       2.053  14.526  18.635  0.00  0.00    +0.000 A 
ATOM     12  C   UNL     1       3.434  14.386  18.451  0.00  0.00    +0.000 A 
BRANCH  10  13
ATOM     13  O   UNL     1       0.144  16.004  18.712  0.00  0.00    +0.000 OA
ATOM     14  H   UNL     1      -0.321  15.153  18.642  0.00  0.00    +0.000 HD
ENDBRANCH  10  13
ENDBRANCH   1  11
BRANCH   4  15
ATOM     15  C   UNL     1       1.044   9.863  19.524  0.00  0.00    +0.000 A 
ATOM     16  C   UNL     1       1.576   9.528  18.268  0.00  0.00    +0.000 A 
ATOM     17  C   UNL     1       2.108   8.257  18.013  0.00  0.00    +0.000 A 
ATOM     18  C   UNL     1       2.203   7.286  19.012  0.00  0.00    +0.000 A 
ATOM     19  C   UNL     1       1.679   7.620  20.259  0.00  0.00    +0.000 A 
ATOM     20  C   UNL     1       1.095   8.867  20.503  0.00  0.00    +0.000 A 
BRANCH  18  21
ATOM     21  N   UNL     1       2.857   6.096  18.788  0.00  0.00    +0.000 N 
ATOM     22  C   UNL     1       2.259   4.799  19.128  0.00  0.00    +0.000 C 
ATOM     23  C   UNL     1       3.362   3.880  19.686  0.00  0.00    +0.000 C 
ATOM     24  O   UNL     1       4.481   3.769  18.791  0.00  0.00    +0.000 OA
ATOM     25  C   UNL     1       5.046   5.067  18.530  0.00  0.00    +0.000 C 
ATOM     26  C   UNL     1       4.012   6.004  17.890  0.00  0.00    +0.000 C 
ENDBRANCH  18  21
ENDBRANCH   4  15
BRANCH   3  27
ATOM     27  C   UNL     1      -1.687  11.478  18.489  0.00  0.00    +0.000 C 
ATOM     28  S   UNL     1      -2.124  10.014  17.776  0.00  0.00    +0.000 S 
BRANCH  27  29
ATOM     29  N   UNL     1      -2.587  12.457  18.889  0.00  0.00    +0.000 N 
ATOM     30  H   UNL     1      -2.751  13.155  18.171  0.00  0.00    +0.000 HD
BRANCH  29  31
ATOM     31  C   UNL     1      -3.327  12.542  20.086  0.00  0.00    +0.000 A 
ATOM     32  C   UNL     1      -2.627  12.626  21.290  0.00  0.00    +0.000 A 
ATOM     33  C   UNL     1      -3.312  12.734  22.505  0.00  0.00    +0.000 A 
ATOM     34  C   UNL     1      -4.704  12.816  22.521  0.00  0.00    +0.000 A 
ATOM     35  C   UNL     1      -5.409  12.783  21.323  0.00  0.00    +0.000 A 
ATOM     36  C   UNL     1      -4.723  12.636  20.112  0.00  0.00    +0.000 A 
ENDBRANCH  29  31
ENDBRANCH  27  29
ENDBRANCH   3  27
TORSDOF 7
ENDMDL
MODEL 9
REMARK VINA RESULT:      -8.2      4.120      8.182
REMARK  Name = 
REMARK  8 active torsions:
REMARK  status: ('A' for Active; 'I' for Inactive)
REMARK    1  A    between atoms: C_1  and  C_2
REMARK    2  A    between atoms: C_5  and  O_6
REMARK    3  A    between atoms: C_7  and  C_8
REMARK    4  A    between atoms: N_10  and  C_11
REMARK    5  A    between atoms: C_11  and  N_13
REMARK    6  A    between atoms: N_13  and  C_14
REMARK    7  A    between atoms: C_20  and  C_21
REMARK    8  A    between atoms: C_24  and  N_25
REMARK                            x       y       z     vdW  Elec       q    Type
REMARK                         _______ _______ _______ _____ _____    ______ ____
ROOT
ATOM      1  C   UNL     1       1.699   8.391  19.402  0.00  0.00    +0.000 C 
ATOM      2  N   UNL     1       1.380   8.623  20.643  0.00  0.00    +0.000 NA
ATOM      3  N   UNL     1       0.494   9.696  20.637  0.00  0.00    +0.000 N 
ATOM      4  C   UNL     1       0.231  10.218  19.277  0.00  0.00    +0.000 C 
ATOM      5  C   UNL     1       1.076   9.306  18.395  0.00  0.00    +0.000 C 
ENDROOT
BRANCH   1  11
ATOM      6  C   UNL     1       4.986   6.628  16.088  0.00  0.00    +0.000 C 
ATOM      7  C   UNL     1       4.171   6.422  17.329  0.00  0.00    +0.000 A 
ATOM      8  C   UNL     1       4.285   5.238  18.066  0.00  0.00    +0.000 A 
ATOM      9  C   UNL     1       3.554   5.063  19.238  0.00  0.00    +0.000 A 
ATOM     10  C   UNL     1       2.708   6.078  19.687  0.00  0.00    +0.000 A 
ATOM     11  C   UNL     1       2.559   7.265  18.954  0.00  0.00    +0.000 A 
ATOM     12  C   UNL     1       3.296   7.426  17.775  0.00  0.00    +0.000 A 
BRANCH  10  13
ATOM     13  O   UNL     1       2.026   5.872  20.855  0.00  0.00    +0.000 OA
ATOM     14  H   UNL     1       1.885   6.722  21.306  0.00  0.00    +0.000 HD
ENDBRANCH  10  13
ENDBRANCH   1  11
BRANCH   4  15
ATOM     15  C   UNL     1       0.582  11.696  19.058  0.00  0.00    +0.000 A 
ATOM     16  C   UNL     1      -0.389  12.610  18.617  0.00  0.00    +0.000 A 
ATOM     17  C   UNL     1      -0.100  13.972  18.469  0.00  0.00    +0.000 A 
ATOM     18  C   UNL     1       1.143  14.503  18.822  0.00  0.00    +0.000 A 
ATOM     19  C   UNL     1       2.105  13.597  19.264  0.00  0.00    +0.000 A 
ATOM     20  C   UNL     1       1.839  12.228  19.358  0.00  0.00    +0.000 A 
BRANCH  18  21
ATOM     21  N   UNL     1       1.367  15.860  18.809  0.00  0.00    +0.000 N 
ATOM     22  C   UNL     1       2.720  16.430  18.828  0.00  0.00    +0.000 C 
ATOM     23  C   UNL     1       2.714  17.684  19.721  0.00  0.00    +0.000 C 
ATOM     24  O   UNL     1       1.708  18.631  19.321  0.00  0.00    +0.000 OA
ATOM     25  C   UNL     1       0.403  18.024  19.363  0.00  0.00    +0.000 C 
ATOM     26  C   UNL     1       0.323  16.814  18.421  0.00  0.00    +0.000 C 
ENDBRANCH  18  21
ENDBRANCH   4  15
BRANCH   3  27
ATOM     27  C   UNL     1      -0.223   9.987  21.809  0.00  0.00    +0.000 C 
ATOM     28  S   UNL     1       0.077   9.265  23.303  0.00  0.00    +0.000 S 
BRANCH  27  29
ATOM     29  N   UNL     1      -1.192  10.955  21.585  0.00  0.00    +0.000 N 
ATOM     30  H   UNL     1      -1.774  10.748  20.779  0.00  0.00    +0.000 HD
BRANCH  29  31
ATOM     31  C   UNL     1      -1.503  12.093  22.357  0.00  0.00    +0.000 A 
ATOM     32  C   UNL     1      -0.625  13.178  22.316  0.00  0.00    +0.000 A 
ATOM     33  C   UNL     1      -0.896  14.340  23.047  0.00  0.00    +0.000 A 
ATOM     34  C   UNL     1      -2.076  14.448  23.781  0.00  0.00    +0.000 A 
ATOM     35  C   UNL     1      -2.981  13.392  23.789  0.00  0.00    +0.000 A 
ATOM     36  C   UNL     1      -2.689  12.217  23.088  0.00  0.00    +0.000 A 
ENDBRANCH  29  31
ENDBRANCH  27  29
ENDBRANCH   3  27
TORSDOF 7
ENDMDL
