MODEL 1
REMARK VINA RESULT:      -9.5      0.000      0.000
REMARK  Name = 
REMARK  6 active torsions:
REMARK  status: ('A' for Active; 'I' for Inactive)
REMARK    1  A    between atoms: C_1  and  C_2
REMARK    2  A    between atoms: C_2  and  C_4
REMARK    3  A    between atoms: C_5  and  N_6
REMARK    4  A    between atoms: N_6  and  C_7
REMARK    5  A    between atoms: C_9  and  C_10
REMARK    6  A    between atoms: C_15  and  C_16
REMARK                            x       y       z     vdW  Elec       q    Type
REMARK                         _______ _______ _______ _____ _____    ______ ____
ROOT
ATOM      1  C   UNL     1       3.990   5.994  17.316  0.00  0.00    +0.000 A 
ATOM      2  C   UNL     1       3.005   6.659  17.982  0.00  0.00    +0.000 A 
ATOM      3  N   UNL     1       2.055   5.956  18.704  0.00  0.00    +0.000 N 
ATOM      4  C   UNL     1       2.098   4.576  18.912  0.00  0.00    +0.000 A 
ATOM      5  C   UNL     1       1.217   3.929  19.784  0.00  0.00    +0.000 A 
ATOM      6  F   UNL     1       0.344   4.654  20.502  0.00  0.00    +0.000 F 
ATOM      7  C   UNL     1       1.225   2.543  19.939  0.00  0.00    +0.000 A 
ATOM      8  C   UNL     1       2.127   1.775  19.206  0.00  0.00    +0.000 A 
ATOM      9  C   UNL     1       3.017   2.405  18.337  0.00  0.00    +0.000 A 
ATOM     10  F   UNL     1       3.877   1.638  17.658  0.00  0.00    +0.000 F 
ATOM     11  C   UNL     1       3.011   3.800  18.197  0.00  0.00    +0.000 A 
ATOM     12  C   UNL     1       3.952   4.491  17.303  0.00  0.00    +0.000 A 
ATOM     13  O   UNL     1       4.671   3.846  16.555  0.00  0.00    +0.000 OA
ATOM     14  H   UNL     1       1.459   6.522  19.303  0.00  0.00    +0.000 HD
ENDROOT
BRANCH   1  16
ATOM     15  C   UNL     1       6.366   7.045  17.264  0.00  0.00    +0.000 C 
ATOM     16  C   UNL     1       5.058   6.745  16.576  0.00  0.00    +0.000 C 
ATOM     17  O   UNL     1       4.861   7.155  15.427  0.00  0.00    +0.000 OA
ENDBRANCH   1  16
BRANCH   2  18
ATOM     18  N   UNL     1       2.887   8.058  18.001  0.00  0.00    +0.000 N 
ATOM     19  H   UNL     1       2.941   8.434  17.042  0.00  0.00    +0.000 HD
BRANCH  18  20
ATOM     20  C   UNL     1       1.759   8.701  18.600  0.00  0.00    +0.000 A 
ATOM     21  C   UNL     1       0.727   9.270  17.841  0.00  0.00    +0.000 A 
ATOM     22  C   UNL     1      -0.369   9.901  18.451  0.00  0.00    +0.000 A 
ATOM     23  C   UNL     1      -0.416   9.977  19.850  0.00  0.00    +0.000 A 
ATOM     24  C   UNL     1       0.613   9.433  20.635  0.00  0.00    +0.000 A 
ATOM     25  C   UNL     1       1.708   8.824  19.996  0.00  0.00    +0.000 A 
BRANCH  22  26
ATOM     26  C   UNL     1      -1.508  10.442  17.623  0.00  0.00    +0.000 C 
ATOM     27  F   UNL     1      -1.418  11.779  17.376  0.00  0.00    +0.000 F 
ATOM     28  F   UNL     1      -1.580   9.843  16.403  0.00  0.00    +0.000 F 
ATOM     29  F   UNL     1      -2.722  10.249  18.207  0.00  0.00    +0.000 F 
ENDBRANCH  22  26
BRANCH  24  30
ATOM     30  C   UNL     1       0.524   9.453  22.143  0.00  0.00    +0.000 C 
ATOM     31  F   UNL     1       1.708   9.175  22.758  0.00  0.00    +0.000 F 
ATOM     32  F   UNL     1       0.139  10.670  22.620  0.00  0.00    +0.000 F 
ATOM     33  F   UNL     1      -0.373   8.555  22.635  0.00  0.00    +0.000 F 
ENDBRANCH  24  30
ENDBRANCH  18  20
ENDBRANCH   2  18
TORSDOF 5
ENDMDL
MODEL 2
REMARK VINA RESULT:      -9.3      0.101      3.157
REMARK  Name = 
REMARK  6 active torsions:
REMARK  status: ('A' for Active; 'I' for Inactive)
REMARK    1  A    between atoms: C_1  and  C_2
REMARK    2  A    between atoms: C_2  and  C_4
REMARK    3  A    between atoms: C_5  and  N_6
REMARK    4  A    between atoms: N_6  and  C_7
REMARK    5  A    between atoms: C_9  and  C_10
REMARK    6  A    between atoms: C_15  and  C_16
REMARK                            x       y       z     vdW  Elec       q    Type
REMARK                         _______ _______ _______ _____ _____    ______ ____
ROOT
ATOM      1  C   UNL     1       3.998   5.989  17.309  0.00  0.00    +0.000 A 
ATOM      2  C   UNL     1       3.000   6.637  17.969  0.00  0.00    +0.000 A 
ATOM      3  N   UNL     1       2.047   5.919  18.673  0.00  0.00    +0.000 N 
ATOM      4  C   UNL     1       2.101   4.538  18.868  0.00  0.00    +0.000 A 
ATOM      5  C   UNL     1       1.215   3.874  19.722  0.00  0.00    +0.000 A 
ATOM      6  F   UNL     1       0.327   4.584  20.438  0.00  0.00    +0.000 F 
ATOM      7  C   UNL     1       1.233   2.486  19.863  0.00  0.00    +0.000 A 
ATOM      8  C   UNL     1       2.151   1.734  19.132  0.00  0.00    +0.000 A 
ATOM      9  C   UNL     1       3.045   2.380  18.280  0.00  0.00    +0.000 A 
ATOM     10  F   UNL     1       3.919   1.629  17.604  0.00  0.00    +0.000 F 
ATOM     11  C   UNL     1       3.028   3.777  18.155  0.00  0.00    +0.000 A 
ATOM     12  C   UNL     1       3.973   4.486  17.279  0.00  0.00    +0.000 A 
ATOM     13  O   UNL     1       4.706   3.854  16.533  0.00  0.00    +0.000 OA
ATOM     14  H   UNL     1       1.439   6.474  19.271  0.00  0.00    +0.000 HD
ENDROOT
BRANCH   1  16
ATOM     15  C   UNL     1       6.364   7.061  17.295  0.00  0.00    +0.000 C 
ATOM     16  C   UNL     1       5.068   6.757  16.588  0.00  0.00    +0.000 C 
ATOM     17  O   UNL     1       4.881   7.176  15.441  0.00  0.00    +0.000 OA
ENDBRANCH   1  16
BRANCH   2  18
ATOM     18  N   UNL     1       2.869   8.036  18.002  0.00  0.00    +0.000 N 
ATOM     19  H   UNL     1       2.855   8.415  17.042  0.00  0.00    +0.000 HD
BRANCH  18  20
ATOM     20  C   UNL     1       1.777   8.665  18.677  0.00  0.00    +0.000 A 
ATOM     21  C   UNL     1       1.686   8.718  20.075  0.00  0.00    +0.000 A 
ATOM     22  C   UNL     1       0.602   9.338  20.716  0.00  0.00    +0.000 A 
ATOM     23  C   UNL     1      -0.419   9.897  19.935  0.00  0.00    +0.000 A 
ATOM     24  C   UNL     1      -0.364   9.842  18.532  0.00  0.00    +0.000 A 
ATOM     25  C   UNL     1       0.725   9.197  17.918  0.00  0.00    +0.000 A 
BRANCH  22  26
ATOM     26  C   UNL     1       0.555   9.452  22.219  0.00  0.00    +0.000 C 
ATOM     27  F   UNL     1       1.741   9.166  22.827  0.00  0.00    +0.000 F 
ATOM     28  F   UNL     1       0.224  10.709  22.624  0.00  0.00    +0.000 F 
ATOM     29  F   UNL     1      -0.365   8.622  22.782  0.00  0.00    +0.000 F 
ENDBRANCH  22  26
BRANCH  24  30
ATOM     30  C   UNL     1      -1.429  10.509  17.694  0.00  0.00    +0.000 C 
ATOM     31  F   UNL     1      -1.544   9.976  16.444  0.00  0.00    +0.000 F 
ATOM     32  F   UNL     1      -2.667  10.403  18.254  0.00  0.00    +0.000 F 
ATOM     33  F   UNL     1      -1.209  11.840  17.515  0.00  0.00    +0.000 F 
ENDBRANCH  24  30
ENDBRANCH  18  20
ENDBRANCH   2  18
TORSDOF 5
ENDMDL
MODEL 3
REMARK VINA RESULT:      -9.1      0.489      1.122
REMARK  Name = 
REMARK  6 active torsions:
REMARK  status: ('A' for Active; 'I' for Inactive)
REMARK    1  A    between atoms: C_1  and  C_2
REMARK    2  A    between atoms: C_2  and  C_4
REMARK    3  A    between atoms: C_5  and  N_6
REMARK    4  A    between atoms: N_6  and  C_7
REMARK    5  A    between atoms: C_9  and  C_10
REMARK    6  A    between atoms: C_15  and  C_16
REMARK                            x       y       z     vdW  Elec       q    Type
REMARK                         _______ _______ _______ _____ _____    ______ ____
ROOT
ATOM      1  C   UNL     1       3.965   5.981  17.455  0.00  0.00    +0.000 A 
ATOM      2  C   UNL     1       2.974   6.649  18.107  0.00  0.00    +0.000 A 
ATOM      3  N   UNL     1       2.010   5.950  18.814  0.00  0.00    +0.000 N 
ATOM      4  C   UNL     1       2.045   4.569  19.022  0.00  0.00    +0.000 A 
ATOM      5  C   UNL     1       1.148   3.925  19.880  0.00  0.00    +0.000 A 
ATOM      6  F   UNL     1       0.268   4.653  20.586  0.00  0.00    +0.000 F 
ATOM      7  C   UNL     1       1.148   2.539  20.034  0.00  0.00    +0.000 A 
ATOM      8  C   UNL     1       2.057   1.768  19.312  0.00  0.00    +0.000 A 
ATOM      9  C   UNL     1       2.962   2.394  18.457  0.00  0.00    +0.000 A 
ATOM     10  F   UNL     1       3.828   1.625  17.790  0.00  0.00    +0.000 F 
ATOM     11  C   UNL     1       2.964   3.790  18.319  0.00  0.00    +0.000 A 
ATOM     12  C   UNL     1       3.920   4.478  17.439  0.00  0.00    +0.000 A 
ATOM     13  O   UNL     1       4.647   3.831  16.701  0.00  0.00    +0.000 OA
ATOM     14  H   UNL     1       1.408   6.517  19.406  0.00  0.00    +0.000 HD
ENDROOT
BRANCH   1  16
ATOM     15  C   UNL     1       5.093   6.688  15.224  0.00  0.00    +0.000 C 
ATOM     16  C   UNL     1       5.047   6.728  16.730  0.00  0.00    +0.000 C 
ATOM     17  O   UNL     1       5.921   7.339  17.356  0.00  0.00    +0.000 OA
ENDBRANCH   1  16
BRANCH   2  18
ATOM     18  N   UNL     1       2.861   8.049  18.126  0.00  0.00    +0.000 N 
ATOM     19  H   UNL     1       2.947   8.427  17.170  0.00  0.00    +0.000 HD
BRANCH  18  20
ATOM     20  C   UNL     1       1.718   8.695  18.691  0.00  0.00    +0.000 A 
ATOM     21  C   UNL     1       0.702   9.253  17.903  0.00  0.00    +0.000 A 
ATOM     22  C   UNL     1      -0.409   9.887  18.480  0.00  0.00    +0.000 A 
ATOM     23  C   UNL     1      -0.488   9.980  19.876  0.00  0.00    +0.000 A 
ATOM     24  C   UNL     1       0.524   9.448  20.691  0.00  0.00    +0.000 A 
ATOM     25  C   UNL     1       1.636   8.835  20.084  0.00  0.00    +0.000 A 
BRANCH  22  26
ATOM     26  C   UNL     1      -1.531  10.415  17.620  0.00  0.00    +0.000 C 
ATOM     27  F   UNL     1      -1.575   9.861  16.377  0.00  0.00    +0.000 F 
ATOM     28  F   UNL     1      -2.751  10.179  18.175  0.00  0.00    +0.000 F 
ATOM     29  F   UNL     1      -1.460  11.761  17.429  0.00  0.00    +0.000 F 
ENDBRANCH  22  26
BRANCH  24  30
ATOM     30  C   UNL     1       0.401   9.486  22.196  0.00  0.00    +0.000 C 
ATOM     31  F   UNL     1       0.013  10.701  22.676  0.00  0.00    +0.000 F 
ATOM     32  F   UNL     1      -0.522   8.597  22.660  0.00  0.00    +0.000 F 
ATOM     33  F   UNL     1       1.565   9.185  22.833  0.00  0.00    +0.000 F 
ENDBRANCH  24  30
ENDBRANCH  18  20
ENDBRANCH   2  18
TORSDOF 5
ENDMDL
MODEL 4
REMARK VINA RESULT:      -8.8      0.753      1.010
REMARK  Name = 
REMARK  6 active torsions:
REMARK  status: ('A' for Active; 'I' for Inactive)
REMARK    1  A    between atoms: C_1  and  C_2
REMARK    2  A    between atoms: C_2  and  C_4
REMARK    3  A    between atoms: C_5  and  N_6
REMARK    4  A    between atoms: N_6  and  C_7
REMARK    5  A    between atoms: C_9  and  C_10
REMARK    6  A    between atoms: C_15  and  C_16
REMARK                            x       y       z     vdW  Elec       q    Type
REMARK                         _______ _______ _______ _____ _____    ______ ____
ROOT
ATOM      1  C   UNL     1       4.220   6.150  17.710  0.00  0.00    +0.000 A 
ATOM      2  C   UNL     1       3.075   6.761  18.122  0.00  0.00    +0.000 A 
ATOM      3  N   UNL     1       2.195   6.099  18.963  0.00  0.00    +0.000 N 
ATOM      4  C   UNL     1       2.456   4.855  19.540  0.00  0.00    +0.000 A 
ATOM      5  C   UNL     1       1.619   4.299  20.512  0.00  0.00    +0.000 A 
ATOM      6  F   UNL     1       0.568   5.002  20.965  0.00  0.00    +0.000 F 
ATOM      7  C   UNL     1       1.852   3.028  21.039  0.00  0.00    +0.000 A 
ATOM      8  C   UNL     1       2.940   2.285  20.586  0.00  0.00    +0.000 A 
ATOM      9  C   UNL     1       3.788   2.828  19.621  0.00  0.00    +0.000 A 
ATOM     10  F   UNL     1       4.829   2.093  19.217  0.00  0.00    +0.000 F 
ATOM     11  C   UNL     1       3.554   4.111  19.107  0.00  0.00    +0.000 A 
ATOM     12  C   UNL     1       4.443   4.716  18.104  0.00  0.00    +0.000 A 
ATOM     13  O   UNL     1       5.332   4.050  17.594  0.00  0.00    +0.000 OA
ATOM     14  H   UNL     1       1.455   6.675  19.357  0.00  0.00    +0.000 HD
ENDROOT
BRANCH   1  16
ATOM     15  C   UNL     1       6.512   7.340  17.439  0.00  0.00    +0.000 C 
ATOM     16  C   UNL     1       5.209   6.875  16.844  0.00  0.00    +0.000 C 
ATOM     17  O   UNL     1       4.947   7.129  15.663  0.00  0.00    +0.000 OA
ENDBRANCH   1  16
BRANCH   2  18
ATOM     18  N   UNL     1       2.715   8.068  17.755  0.00  0.00    +0.000 N 
ATOM     19  H   UNL     1       2.516   8.112  16.743  0.00  0.00    +0.000 HD
BRANCH  18  20
ATOM     20  C   UNL     1       1.627   8.746  18.388  0.00  0.00    +0.000 A 
ATOM     21  C   UNL     1       0.584   9.337  17.661  0.00  0.00    +0.000 A 
ATOM     22  C   UNL     1      -0.472  10.002  18.304  0.00  0.00    +0.000 A 
ATOM     23  C   UNL     1      -0.466  10.090  19.703  0.00  0.00    +0.000 A 
ATOM     24  C   UNL     1       0.575   9.524  20.456  0.00  0.00    +0.000 A 
ATOM     25  C   UNL     1       1.630   8.881  19.783  0.00  0.00    +0.000 A 
BRANCH  22  26
ATOM     26  C   UNL     1      -1.625  10.568  17.513  0.00  0.00    +0.000 C 
ATOM     27  F   UNL     1      -1.752  10.029  16.269  0.00  0.00    +0.000 F 
ATOM     28  F   UNL     1      -2.819  10.358  18.133  0.00  0.00    +0.000 F 
ATOM     29  F   UNL     1      -1.529  11.913  17.331  0.00  0.00    +0.000 F 
ENDBRANCH  22  26
BRANCH  24  30
ATOM     30  C   UNL     1       0.540   9.558  21.966  0.00  0.00    +0.000 C 
ATOM     31  F   UNL     1       1.735   9.242  22.541  0.00  0.00    +0.000 F 
ATOM     32  F   UNL     1       0.217  10.791  22.446  0.00  0.00    +0.000 F 
ATOM     33  F   UNL     1      -0.370   8.697  22.496  0.00  0.00    +0.000 F 
ENDBRANCH  24  30
ENDBRANCH  18  20
ENDBRANCH   2  18
TORSDOF 5
ENDMDL
MODEL 5
REMARK VINA RESULT:      -8.7      3.309      7.753
REMARK  Name = 
REMARK  6 active torsions:
REMARK  status: ('A' for Active; 'I' for Inactive)
REMARK    1  A    between atoms: C_1  and  C_2
REMARK    2  A    between atoms: C_2  and  C_4
REMARK    3  A    between atoms: C_5  and  N_6
REMARK    4  A    between atoms: N_6  and  C_7
REMARK    5  A    between atoms: C_9  and  C_10
REMARK    6  A    between atoms: C_15  and  C_16
REMARK                            x       y       z     vdW  Elec       q    Type
REMARK                         _______ _______ _______ _____ _____    ______ ____
ROOT
ATOM      1  C   UNL     1       0.116  11.181  19.415  0.00  0.00    +0.000 A 
ATOM      2  C   UNL     1       0.510  10.462  18.328  0.00  0.00    +0.000 A 
ATOM      3  N   UNL     1      -0.419  10.065  17.380  0.00  0.00    +0.000 N 
ATOM      4  C   UNL     1      -1.757  10.462  17.387  0.00  0.00    +0.000 A 
ATOM      5  C   UNL     1      -2.620  10.179  16.325  0.00  0.00    +0.000 A 
ATOM      6  F   UNL     1      -2.144   9.569  15.227  0.00  0.00    +0.000 F 
ATOM      7  C   UNL     1      -3.972  10.524  16.367  0.00  0.00    +0.000 A 
ATOM      8  C   UNL     1      -4.483  11.162  17.495  0.00  0.00    +0.000 A 
ATOM      9  C   UNL     1      -3.635  11.457  18.561  0.00  0.00    +0.000 A 
ATOM     10  F   UNL     1      -4.156  12.080  19.622  0.00  0.00    +0.000 F 
ATOM     11  C   UNL     1      -2.275  11.119  18.505  0.00  0.00    +0.000 A 
ATOM     12  C   UNL     1      -1.353  11.436  19.606  0.00  0.00    +0.000 A 
ATOM     13  O   UNL     1      -1.788  11.881  20.657  0.00  0.00    +0.000 OA
ATOM     14  H   UNL     1      -0.028   9.681  16.523  0.00  0.00    +0.000 HD
ENDROOT
BRANCH   1  16
ATOM     15  C   UNL     1       1.789  12.999  20.217  0.00  0.00    +0.000 C 
ATOM     16  C   UNL     1       1.120  11.664  20.421  0.00  0.00    +0.000 C 
ATOM     17  O   UNL     1       1.433  10.963  21.390  0.00  0.00    +0.000 OA
ENDBRANCH   1  16
BRANCH   2  18
ATOM     18  N   UNL     1       1.842  10.091  18.082  0.00  0.00    +0.000 N 
ATOM     19  H   UNL     1       2.485  10.674  18.642  0.00  0.00    +0.000 HD
BRANCH  18  20
ATOM     20  C   UNL     1       2.287   8.745  18.270  0.00  0.00    +0.000 A 
ATOM     21  C   UNL     1       1.786   7.922  19.289  0.00  0.00    +0.000 A 
ATOM     22  C   UNL     1       2.241   6.605  19.457  0.00  0.00    +0.000 A 
ATOM     23  C   UNL     1       3.233   6.115  18.597  0.00  0.00    +0.000 A 
ATOM     24  C   UNL     1       3.767   6.922  17.579  0.00  0.00    +0.000 A 
ATOM     25  C   UNL     1       3.306   8.245  17.447  0.00  0.00    +0.000 A 
BRANCH  22  26
ATOM     26  C   UNL     1       1.639   5.708  20.510  0.00  0.00    +0.000 C 
ATOM     27  F   UNL     1       2.556   5.176  21.365  0.00  0.00    +0.000 F 
ATOM     28  F   UNL     1       0.744   6.372  21.292  0.00  0.00    +0.000 F 
ATOM     29  F   UNL     1       0.963   4.653  19.980  0.00  0.00    +0.000 F 
ENDBRANCH  22  26
BRANCH  24  30
ATOM     30  C   UNL     1       4.783   6.367  16.609  0.00  0.00    +0.000 C 
ATOM     31  F   UNL     1       4.766   6.987  15.396  0.00  0.00    +0.000 F 
ATOM     32  F   UNL     1       6.059   6.496  17.069  0.00  0.00    +0.000 F 
ATOM     33  F   UNL     1       4.607   5.042  16.355  0.00  0.00    +0.000 F 
ENDBRANCH  24  30
ENDBRANCH  18  20
ENDBRANCH   2  18
TORSDOF 5
ENDMDL
MODEL 6
REMARK VINA RESULT:      -8.7      1.694      3.126
REMARK  Name = 
REMARK  6 active torsions:
REMARK  status: ('A' for Active; 'I' for Inactive)
REMARK    1  A    between atoms: C_1  and  C_2
REMARK    2  A    between atoms: C_2  and  C_4
REMARK    3  A    between atoms: C_5  and  N_6
REMARK    4  A    between atoms: N_6  and  C_7
REMARK    5  A    between atoms: C_9  and  C_10
REMARK    6  A    between atoms: C_15  and  C_16
REMARK                            x       y       z     vdW  Elec       q    Type
REMARK                         _______ _______ _______ _____ _____    ______ ____
ROOT
ATOM      1  C   UNL     1       4.324   6.139  17.710  0.00  0.00    +0.000 A 
ATOM      2  C   UNL     1       3.180   6.789  18.060  0.00  0.00    +0.000 A 
ATOM      3  N   UNL     1       2.280   6.197  18.932  0.00  0.00    +0.000 N 
ATOM      4  C   UNL     1       2.521   4.996  19.602  0.00  0.00    +0.000 A 
ATOM      5  C   UNL     1       1.665   4.518  20.598  0.00  0.00    +0.000 A 
ATOM      6  F   UNL     1       0.615   5.261  20.983  0.00  0.00    +0.000 F 
ATOM      7  C   UNL     1       1.877   3.286  21.218  0.00  0.00    +0.000 A 
ATOM      8  C   UNL     1       2.964   2.502  20.835  0.00  0.00    +0.000 A 
ATOM      9  C   UNL     1       3.831   2.967  19.847  0.00  0.00    +0.000 A 
ATOM     10  F   UNL     1       4.869   2.195  19.513  0.00  0.00    +0.000 F 
ATOM     11  C   UNL     1       3.617   4.212  19.239  0.00  0.00    +0.000 A 
ATOM     12  C   UNL     1       4.527   4.735  18.209  0.00  0.00    +0.000 A 
ATOM     13  O   UNL     1       5.416   4.026  17.762  0.00  0.00    +0.000 OA
ATOM     14  H   UNL     1       1.541   6.806  19.273  0.00  0.00    +0.000 HD
ENDROOT
BRANCH   1  16
ATOM     15  C   UNL     1       6.640   7.270  17.386  0.00  0.00    +0.000 C 
ATOM     16  C   UNL     1       5.332   6.791  16.809  0.00  0.00    +0.000 C 
ATOM     17  O   UNL     1       5.085   6.976  15.612  0.00  0.00    +0.000 OA
ENDBRANCH   1  16
BRANCH   2  18
ATOM     18  N   UNL     1       2.838   8.069  17.595  0.00  0.00    +0.000 N 
ATOM     19  H   UNL     1       2.286   7.997  16.725  0.00  0.00    +0.000 HD
BRANCH  18  20
ATOM     20  C   UNL     1       2.131   8.997  18.421  0.00  0.00    +0.000 A 
ATOM     21  C   UNL     1       1.438   8.602  19.574  0.00  0.00    +0.000 A 
ATOM     22  C   UNL     1       0.746   9.531  20.367  0.00  0.00    +0.000 A 
ATOM     23  C   UNL     1       0.735  10.878  19.981  0.00  0.00    +0.000 A 
ATOM     24  C   UNL     1       1.404  11.300  18.821  0.00  0.00    +0.000 A 
ATOM     25  C   UNL     1       2.073  10.344  18.034  0.00  0.00    +0.000 A 
BRANCH  22  26
ATOM     26  C   UNL     1       0.068   9.102  21.645  0.00  0.00    +0.000 C 
ATOM     27  F   UNL     1      -0.690   7.978  21.512  0.00  0.00    +0.000 F 
ATOM     28  F   UNL     1       0.966   8.830  22.631  0.00  0.00    +0.000 F 
ATOM     29  F   UNL     1      -0.762  10.057  22.147  0.00  0.00    +0.000 F 
ENDBRANCH  22  26
BRANCH  24  30
ATOM     30  C   UNL     1       1.451  12.763  18.448  0.00  0.00    +0.000 C 
ATOM     31  F   UNL     1       2.371  13.045  17.482  0.00  0.00    +0.000 F 
ATOM     32  F   UNL     1       0.259  13.208  17.960  0.00  0.00    +0.000 F 
ATOM     33  F   UNL     1       1.753  13.571  19.500  0.00  0.00    +0.000 F 
ENDBRANCH  24  30
ENDBRANCH  18  20
ENDBRANCH   2  18
TORSDOF 5
ENDMDL
MODEL 7
REMARK VINA RESULT:      -8.6      3.819      6.454
REMARK  Name = 
REMARK  6 active torsions:
REMARK  status: ('A' for Active; 'I' for Inactive)
REMARK    1  A    between atoms: C_1  and  C_2
REMARK    2  A    between atoms: C_2  and  C_4
REMARK    3  A    between atoms: C_5  and  N_6
REMARK    4  A    between atoms: N_6  and  C_7
REMARK    5  A    between atoms: C_9  and  C_10
REMARK    6  A    between atoms: C_15  and  C_16
REMARK                            x       y       z     vdW  Elec       q    Type
REMARK                         _______ _______ _______ _____ _____    ______ ____
ROOT
ATOM      1  C   UNL     1       6.964   4.789  16.318  0.00  0.00    +0.000 A 
ATOM      2  C   UNL     1       5.939   3.908  16.152  0.00  0.00    +0.000 A 
ATOM      3  N   UNL     1       5.545   3.526  14.880  0.00  0.00    +0.000 N 
ATOM      4  C   UNL     1       6.220   3.892  13.714  0.00  0.00    +0.000 A 
ATOM      5  C   UNL     1       5.892   3.352  12.467  0.00  0.00    +0.000 A 
ATOM      6  F   UNL     1       4.950   2.399  12.384  0.00  0.00    +0.000 F 
ATOM      7  C   UNL     1       6.528   3.770  11.297  0.00  0.00    +0.000 A 
ATOM      8  C   UNL     1       7.512   4.754  11.364  0.00  0.00    +0.000 A 
ATOM      9  C   UNL     1       7.855   5.299  12.600  0.00  0.00    +0.000 A 
ATOM     10  F   UNL     1       8.811   6.233  12.629  0.00  0.00    +0.000 F 
ATOM     11  C   UNL     1       7.220   4.864  13.772  0.00  0.00    +0.000 A 
ATOM     12  C   UNL     1       7.576   5.407  15.092  0.00  0.00    +0.000 A 
ATOM     13  O   UNL     1       8.342   6.355  15.176  0.00  0.00    +0.000 OA
ATOM     14  H   UNL     1       4.893   2.747  14.842  0.00  0.00    +0.000 HD
ENDROOT
BRANCH   1  16
ATOM     15  C   UNL     1       7.354   6.608  18.131  0.00  0.00    +0.000 C 
ATOM     16  C   UNL     1       7.436   5.168  17.691  0.00  0.00    +0.000 C 
ATOM     17  O   UNL     1       7.928   4.323  18.446  0.00  0.00    +0.000 OA
ENDBRANCH   1  16
BRANCH   2  18
ATOM     18  N   UNL     1       5.234   3.325  17.218  0.00  0.00    +0.000 N 
ATOM     19  H   UNL     1       5.874   3.131  18.005  0.00  0.00    +0.000 HD
BRANCH  18  20
ATOM     20  C   UNL     1       4.098   3.969  17.799  0.00  0.00    +0.000 A 
ATOM     21  C   UNL     1       3.921   5.359  17.764  0.00  0.00    +0.000 A 
ATOM     22  C   UNL     1       2.799   5.969  18.346  0.00  0.00    +0.000 A 
ATOM     23  C   UNL     1       1.848   5.167  18.992  0.00  0.00    +0.000 A 
ATOM     24  C   UNL     1       2.009   3.774  19.060  0.00  0.00    +0.000 A 
ATOM     25  C   UNL     1       3.154   3.192  18.485  0.00  0.00    +0.000 A 
BRANCH  22  26
ATOM     26  C   UNL     1       2.585   7.459  18.235  0.00  0.00    +0.000 C 
ATOM     27  F   UNL     1       1.532   7.803  17.442  0.00  0.00    +0.000 F 
ATOM     28  F   UNL     1       2.338   8.029  19.446  0.00  0.00    +0.000 F 
ATOM     29  F   UNL     1       3.666   8.110  17.727  0.00  0.00    +0.000 F 
ENDBRANCH  22  26
BRANCH  24  30
ATOM     30  C   UNL     1       0.948   2.906  19.694  0.00  0.00    +0.000 C 
ATOM     31  F   UNL     1       0.013   3.615  20.388  0.00  0.00    +0.000 F 
ATOM     32  F   UNL     1       0.251   2.186  18.770  0.00  0.00    +0.000 F 
ATOM     33  F   UNL     1       1.456   1.999  20.572  0.00  0.00    +0.000 F 
ENDBRANCH  24  30
ENDBRANCH  18  20
ENDBRANCH   2  18
TORSDOF 5
ENDMDL
MODEL 8
REMARK VINA RESULT:      -8.6      3.833      6.702
REMARK  Name = 
REMARK  6 active torsions:
REMARK  status: ('A' for Active; 'I' for Inactive)
REMARK    1  A    between atoms: C_1  and  C_2
REMARK    2  A    between atoms: C_2  and  C_4
REMARK    3  A    between atoms: C_5  and  N_6
REMARK    4  A    between atoms: N_6  and  C_7
REMARK    5  A    between atoms: C_9  and  C_10
REMARK    6  A    between atoms: C_15  and  C_16
REMARK                            x       y       z     vdW  Elec       q    Type
REMARK                         _______ _______ _______ _____ _____    ______ ____
ROOT
ATOM      1  C   UNL     1       6.949   4.743  16.319  0.00  0.00    +0.000 A 
ATOM      2  C   UNL     1       5.947   3.839  16.140  0.00  0.00    +0.000 A 
ATOM      3  N   UNL     1       5.567   3.462  14.862  0.00  0.00    +0.000 N 
ATOM      4  C   UNL     1       6.236   3.858  13.703  0.00  0.00    +0.000 A 
ATOM      5  C   UNL     1       5.925   3.324  12.449  0.00  0.00    +0.000 A 
ATOM      6  F   UNL     1       5.008   2.349  12.352  0.00  0.00    +0.000 F 
ATOM      7  C   UNL     1       6.554   3.771  11.285  0.00  0.00    +0.000 A 
ATOM      8  C   UNL     1       7.513   4.779  11.367  0.00  0.00    +0.000 A 
ATOM      9  C   UNL     1       7.838   5.318  12.610  0.00  0.00    +0.000 A 
ATOM     10  F   UNL     1       8.770   6.275  12.653  0.00  0.00    +0.000 F 
ATOM     11  C   UNL     1       7.211   4.854  13.776  0.00  0.00    +0.000 A 
ATOM     12  C   UNL     1       7.549   5.391  15.102  0.00  0.00    +0.000 A 
ATOM     13  O   UNL     1       8.292   6.356  15.199  0.00  0.00    +0.000 OA
ATOM     14  H   UNL     1       4.934   2.667  14.814  0.00  0.00    +0.000 HD
ENDROOT
BRANCH   1  16
ATOM     15  C   UNL     1       7.274   6.547  18.160  0.00  0.00    +0.000 C 
ATOM     16  C   UNL     1       7.408   5.119  17.698  0.00  0.00    +0.000 C 
ATOM     17  O   UNL     1       7.931   4.280  18.440  0.00  0.00    +0.000 OA
ENDBRANCH   1  16
BRANCH   2  18
ATOM     18  N   UNL     1       5.254   3.226  17.197  0.00  0.00    +0.000 N 
ATOM     19  H   UNL     1       5.899   3.026  17.978  0.00  0.00    +0.000 HD
BRANCH  18  20
ATOM     20  C   UNL     1       4.112   3.844  17.795  0.00  0.00    +0.000 A 
ATOM     21  C   UNL     1       3.152   3.116  18.513  0.00  0.00    +0.000 A 
ATOM     22  C   UNL     1       2.036   3.744  19.087  0.00  0.00    +0.000 A 
ATOM     23  C   UNL     1       1.872   5.126  18.918  0.00  0.00    +0.000 A 
ATOM     24  C   UNL     1       2.807   5.877  18.187  0.00  0.00    +0.000 A 
ATOM     25  C   UNL     1       3.906   5.218  17.606  0.00  0.00    +0.000 A 
BRANCH  22  26
ATOM     26  C   UNL     1       1.052   2.960  19.920  0.00  0.00    +0.000 C 
ATOM     27  F   UNL     1       1.608   1.901  20.571  0.00  0.00    +0.000 F 
ATOM     28  F   UNL     1       0.477   3.729  20.886  0.00  0.00    +0.000 F 
ATOM     29  F   UNL     1       0.026   2.453  19.185  0.00  0.00    +0.000 F 
ENDBRANCH  22  26
BRANCH  24  30
ATOM     30  C   UNL     1       2.666   7.376  18.067  0.00  0.00    +0.000 C 
ATOM     31  F   UNL     1       3.733   7.973  17.465  0.00  0.00    +0.000 F 
ATOM     32  F   UNL     1       1.579   7.734  17.327  0.00  0.00    +0.000 F 
ATOM     33  F   UNL     1       2.521   7.994  19.271  0.00  0.00    +0.000 F 
ENDBRANCH  24  30
ENDBRANCH  18  20
ENDBRANCH   2  18
TORSDOF 5
ENDMDL
MODEL 9
REMARK VINA RESULT:      -8.6      3.798      6.357
REMARK  Name = 
REMARK  6 active torsions:
REMARK  status: ('A' for Active; 'I' for Inactive)
REMARK    1  A    between atoms: C_1  and  C_2
REMARK    2  A    between atoms: C_2  and  C_4
REMARK    3  A    between atoms: C_5  and  N_6
REMARK    4  A    between atoms: N_6  and  C_7
REMARK    5  A    between atoms: C_9  and  C_10
REMARK    6  A    between atoms: C_15  and  C_16
REMARK                            x       y       z     vdW  Elec       q    Type
REMARK                         _______ _______ _______ _____ _____    ______ ____
ROOT
ATOM      1  C   UNL     1       6.949   4.789  16.357  0.00  0.00    +0.000 A 
ATOM      2  C   UNL     1       5.929   3.902  16.190  0.00  0.00    +0.000 A 
ATOM      3  N   UNL     1       5.536   3.522  14.917  0.00  0.00    +0.000 N 
ATOM      4  C   UNL     1       6.206   3.896  13.751  0.00  0.00    +0.000 A 
ATOM      5  C   UNL     1       5.880   3.358  12.503  0.00  0.00    +0.000 A 
ATOM      6  F   UNL     1       4.944   2.400  12.418  0.00  0.00    +0.000 F 
ATOM      7  C   UNL     1       6.512   3.784  11.333  0.00  0.00    +0.000 A 
ATOM      8  C   UNL     1       7.489   4.774  11.402  0.00  0.00    +0.000 A 
ATOM      9  C   UNL     1       7.831   5.317  12.640  0.00  0.00    +0.000 A 
ATOM     10  F   UNL     1       8.781   6.257  12.671  0.00  0.00    +0.000 F 
ATOM     11  C   UNL     1       7.200   4.874  13.812  0.00  0.00    +0.000 A 
ATOM     12  C   UNL     1       7.555   5.415  15.132  0.00  0.00    +0.000 A 
ATOM     13  O   UNL     1       8.316   6.367  15.218  0.00  0.00    +0.000 OA
ATOM     14  H   UNL     1       4.888   2.739  14.878  0.00  0.00    +0.000 HD
ENDROOT
BRANCH   1  16
ATOM     15  C   UNL     1       7.346   6.606  18.170  0.00  0.00    +0.000 C 
ATOM     16  C   UNL     1       7.421   5.166  17.731  0.00  0.00    +0.000 C 
ATOM     17  O   UNL     1       7.908   4.319  18.487  0.00  0.00    +0.000 OA
ENDBRANCH   1  16
BRANCH   2  18
ATOM     18  N   UNL     1       5.230   3.311  17.255  0.00  0.00    +0.000 N 
ATOM     19  H   UNL     1       5.878   3.084  18.026  0.00  0.00    +0.000 HD
BRANCH  18  20
ATOM     20  C   UNL     1       4.119   3.967  17.871  0.00  0.00    +0.000 A 
ATOM     21  C   UNL     1       3.916   5.351  17.777  0.00  0.00    +0.000 A 
ATOM     22  C   UNL     1       2.820   5.975  18.395  0.00  0.00    +0.000 A 
ATOM     23  C   UNL     1       1.924   5.193  19.137  0.00  0.00    +0.000 A 
ATOM     24  C   UNL     1       2.113   3.807  19.264  0.00  0.00    +0.000 A 
ATOM     25  C   UNL     1       3.231   3.213  18.651  0.00  0.00    +0.000 A 
BRANCH  22  26
ATOM     26  C   UNL     1       2.574   7.453  18.222  0.00  0.00    +0.000 C 
ATOM     27  F   UNL     1       3.622   8.121  17.665  0.00  0.00    +0.000 F 
ATOM     28  F   UNL     1       1.505   7.700  17.417  0.00  0.00    +0.000 F 
ATOM     29  F   UNL     1       2.311   8.084  19.399  0.00  0.00    +0.000 F 
ENDBRANCH  22  26
BRANCH  24  30
ATOM     30  C   UNL     1       1.106   2.958  20.004  0.00  0.00    +0.000 C 
ATOM     31  F   UNL     1       1.615   1.770  20.435  0.00  0.00    +0.000 F 
ATOM     32  F   UNL     1       0.628   3.579  21.119  0.00  0.00    +0.000 F 
ATOM     33  F   UNL     1       0.017   2.647  19.250  0.00  0.00    +0.000 F 
ENDBRANCH  24  30
ENDBRANCH  18  20
ENDBRANCH   2  18
TORSDOF 5
ENDMDL
