MODEL 1
REMARK VINA RESULT:      -8.8      0.000      0.000
REMARK  Name = 
REMARK  10 active torsions:
REMARK  status: ('A' for Active; 'I' for Inactive)
REMARK    1  A    between atoms: C_2  and  C_3
REMARK    2  A    between atoms: C_3  and  N_4
REMARK    3  A    between atoms: N_12  and  C_13
REMARK    4  A    between atoms: C_13  and  C_14
REMARK    5  A    between atoms: C_14  and  C_15
REMARK    6  A    between atoms: C_15  and  N_16
REMARK    7  A    between atoms: N_16  and  C_17
REMARK    8  A    between atoms: C_17  and  C_18
REMARK    9  A    between atoms: C_17  and  C_24
REMARK   10  A    between atoms: C_17  and  C_30
REMARK                            x       y       z     vdW  Elec       q    Type
REMARK                         _______ _______ _______ _____ _____    ______ ____
ROOT
ATOM      1  N   UNL     1       0.895  10.309  18.036  0.00  0.00    +0.000 NA
ATOM      2  H   UNL     1       0.382   9.906  17.259  0.00  0.00    +0.000 HD
ENDROOT
BRANCH   1   3
ATOM      3  C   UNL     1       1.738   9.307  18.672  0.00  0.00    +0.000 C 
BRANCH   3   4
ATOM      4  C   UNL     1       1.964   8.128  17.721  0.00  0.00    +0.000 C 
BRANCH   4   5
ATOM      5  C   UNL     1       3.204   7.301  18.064  0.00  0.00    +0.000 C 
BRANCH   5   8
ATOM      6  O   UNL     1       4.835   5.293  16.846  0.00  0.00    +0.000 OA
ATOM      7  C   UNL     1       3.818   4.976  17.458  0.00  0.00    +0.000 C 
ATOM      8  N   UNL     1       2.931   5.880  18.010  0.00  0.00    +0.000 N 
ATOM      9  H   UNL     1       2.013   5.544  18.293  0.00  0.00    +0.000 HD
BRANCH   7  10
ATOM     10  C   UNL     1       3.356   3.524  17.559  0.00  0.00    +0.000 C 
BRANCH  10  11
ATOM     11  N   UNL     1       2.754   3.308  18.873  0.00  0.00    +0.000 N 
ATOM     12  C   UNL     1       3.559   3.007  19.953  0.00  0.00    +0.000 A 
ATOM     13  C   UNL     1       3.051   2.716  21.148  0.00  0.00    +0.000 A 
ATOM     14  C   UNL     1       1.586   2.704  21.313  0.00  0.00    +0.000 A 
ATOM     15  O   UNL     1       1.071   2.378  22.375  0.00  0.00    +0.000 OA
ATOM     16  N   UNL     1       0.864   3.062  20.212  0.00  0.00    +0.000 N 
ATOM     17  C   UNL     1       1.370   3.304  18.965  0.00  0.00    +0.000 A 
ATOM     18  O   UNL     1       0.623   3.477  18.002  0.00  0.00    +0.000 OA
ATOM     19  H   UNL     1      -0.141   3.031  20.299  0.00  0.00    +0.000 HD
ENDBRANCH  10  11
ENDBRANCH   7  10
ENDBRANCH   5   8
ENDBRANCH   4   5
ENDBRANCH   3   4
ENDBRANCH   1   3
BRANCH   1  20
ATOM     20  C   UNL     1      -0.078  11.068  18.889  0.00  0.00    +0.000 C 
BRANCH  20  21
ATOM     21  C   UNL     1       0.384  12.577  18.876  0.00  0.00    +0.000 A 
ATOM     22  C   UNL     1      -0.527  13.644  18.933  0.00  0.00    +0.000 A 
ATOM     23  C   UNL     1      -0.100  14.978  18.836  0.00  0.00    +0.000 A 
ATOM     24  C   UNL     1       1.248  15.280  18.671  0.00  0.00    +0.000 A 
ATOM     25  C   UNL     1       2.175  14.250  18.593  0.00  0.00    +0.000 A 
ATOM     26  C   UNL     1       1.747  12.924  18.681  0.00  0.00    +0.000 A 
ENDBRANCH  20  21
BRANCH  20  27
ATOM     27  C   UNL     1      -1.497  10.873  18.220  0.00  0.00    +0.000 A 
ATOM     28  C   UNL     1      -1.687  10.058  17.088  0.00  0.00    +0.000 A 
ATOM     29  C   UNL     1      -2.928   9.990  16.440  0.00  0.00    +0.000 A 
ATOM     30  C   UNL     1      -4.017  10.712  16.922  0.00  0.00    +0.000 A 
ATOM     31  C   UNL     1      -3.879  11.470  18.078  0.00  0.00    +0.000 A 
ATOM     32  C   UNL     1      -2.642  11.537  18.726  0.00  0.00    +0.000 A 
ENDBRANCH  20  27
BRANCH  20  33
ATOM     33  C   UNL     1      -0.112  10.431  20.333  0.00  0.00    +0.000 A 
ATOM     34  C   UNL     1      -0.260   9.043  20.530  0.00  0.00    +0.000 A 
ATOM     35  C   UNL     1      -0.517   8.515  21.797  0.00  0.00    +0.000 A 
ATOM     36  C   UNL     1      -0.561   9.352  22.906  0.00  0.00    +0.000 A 
ATOM     37  C   UNL     1      -0.276  10.705  22.760  0.00  0.00    +0.000 A 
ATOM     38  C   UNL     1      -0.024  11.232  21.492  0.00  0.00    +0.000 A 
ENDBRANCH  20  33
ENDBRANCH   1  20
TORSDOF 10
ENDMDL
MODEL 2
REMARK VINA RESULT:      -8.8      5.181      9.536
REMARK  Name = 
REMARK  10 active torsions:
REMARK  status: ('A' for Active; 'I' for Inactive)
REMARK    1  A    between atoms: C_2  and  C_3
REMARK    2  A    between atoms: C_3  and  N_4
REMARK    3  A    between atoms: N_12  and  C_13
REMARK    4  A    between atoms: C_13  and  C_14
REMARK    5  A    between atoms: C_14  and  C_15
REMARK    6  A    between atoms: C_15  and  N_16
REMARK    7  A    between atoms: N_16  and  C_17
REMARK    8  A    between atoms: C_17  and  C_18
REMARK    9  A    between atoms: C_17  and  C_24
REMARK   10  A    between atoms: C_17  and  C_30
REMARK                            x       y       z     vdW  Elec       q    Type
REMARK                         _______ _______ _______ _____ _____    ______ ____
ROOT
ATOM      1  N   UNL     1       5.204   5.349  19.345  0.00  0.00    +0.000 NA
ATOM      2  H   UNL     1       5.256   6.251  19.808  0.00  0.00    +0.000 HD
ENDROOT
BRANCH   1   3
ATOM      3  C   UNL     1       6.501   4.973  18.803  0.00  0.00    +0.000 C 
BRANCH   3   4
ATOM      4  C   UNL     1       7.590   5.904  19.346  0.00  0.00    +0.000 C 
BRANCH   4   5
ATOM      5  C   UNL     1       7.914   7.069  18.409  0.00  0.00    +0.000 C 
BRANCH   5   8
ATOM      6  O   UNL     1       8.044   9.853  17.773  0.00  0.00    +0.000 OA
ATOM      7  C   UNL     1       8.675   9.408  18.728  0.00  0.00    +0.000 C 
ATOM      8  N   UNL     1       8.734   8.068  19.062  0.00  0.00    +0.000 N 
ATOM      9  H   UNL     1       9.452   7.765  19.716  0.00  0.00    +0.000 HD
BRANCH   7  10
ATOM     10  C   UNL     1       9.581  10.292  19.582  0.00  0.00    +0.000 C 
BRANCH  10  11
ATOM     11  N   UNL     1       9.854  11.531  18.857  0.00  0.00    +0.000 N 
ATOM     12  C   UNL     1      10.716  11.516  17.779  0.00  0.00    +0.000 A 
ATOM     13  C   UNL     1      11.064  12.633  17.142  0.00  0.00    +0.000 A 
ATOM     14  C   UNL     1      10.520  13.919  17.616  0.00  0.00    +0.000 A 
ATOM     15  O   UNL     1      10.862  14.978  17.106  0.00  0.00    +0.000 OA
ATOM     16  N   UNL     1       9.637  13.842  18.654  0.00  0.00    +0.000 N 
ATOM     17  C   UNL     1       9.318  12.710  19.353  0.00  0.00    +0.000 A 
ATOM     18  O   UNL     1       8.622  12.768  20.366  0.00  0.00    +0.000 OA
ATOM     19  H   UNL     1       9.277  14.715  19.009  0.00  0.00    +0.000 HD
ENDBRANCH  10  11
ENDBRANCH   7  10
ENDBRANCH   5   8
ENDBRANCH   4   5
ENDBRANCH   3   4
ENDBRANCH   1   3
BRANCH   1  20
ATOM     20  C   UNL     1       4.024   5.373  18.420  0.00  0.00    +0.000 C 
BRANCH  20  21
ATOM     21  C   UNL     1       4.586   5.191  16.957  0.00  0.00    +0.000 A 
ATOM     22  C   UNL     1       4.793   3.927  16.380  0.00  0.00    +0.000 A 
ATOM     23  C   UNL     1       5.373   3.787  15.109  0.00  0.00    +0.000 A 
ATOM     24  C   UNL     1       5.768   4.906  14.384  0.00  0.00    +0.000 A 
ATOM     25  C   UNL     1       5.595   6.171  14.930  0.00  0.00    +0.000 A 
ATOM     26  C   UNL     1       5.026   6.307  16.198  0.00  0.00    +0.000 A 
ENDBRANCH  20  21
BRANCH  20  27
ATOM     27  C   UNL     1       3.096   4.169  18.855  0.00  0.00    +0.000 A 
ATOM     28  C   UNL     1       1.917   3.840  18.159  0.00  0.00    +0.000 A 
ATOM     29  C   UNL     1       1.048   2.846  18.628  0.00  0.00    +0.000 A 
ATOM     30  C   UNL     1       1.347   2.136  19.788  0.00  0.00    +0.000 A 
ATOM     31  C   UNL     1       2.537   2.389  20.459  0.00  0.00    +0.000 A 
ATOM     32  C   UNL     1       3.405   3.380  19.990  0.00  0.00    +0.000 A 
ENDBRANCH  20  27
BRANCH  20  33
ATOM     33  C   UNL     1       3.227   6.720  18.626  0.00  0.00    +0.000 A 
ATOM     34  C   UNL     1       2.554   7.009  19.830  0.00  0.00    +0.000 A 
ATOM     35  C   UNL     1       1.670   8.086  19.926  0.00  0.00    +0.000 A 
ATOM     36  C   UNL     1       1.492   8.941  18.844  0.00  0.00    +0.000 A 
ATOM     37  C   UNL     1       2.252   8.763  17.693  0.00  0.00    +0.000 A 
ATOM     38  C   UNL     1       3.131   7.683  17.597  0.00  0.00    +0.000 A 
ENDBRANCH  20  33
ENDBRANCH   1  20
TORSDOF 10
ENDMDL
MODEL 3
REMARK VINA RESULT:      -8.8      1.941      3.895
REMARK  Name = 
REMARK  10 active torsions:
REMARK  status: ('A' for Active; 'I' for Inactive)
REMARK    1  A    between atoms: C_2  and  C_3
REMARK    2  A    between atoms: C_3  and  N_4
REMARK    3  A    between atoms: N_12  and  C_13
REMARK    4  A    between atoms: C_13  and  C_14
REMARK    5  A    between atoms: C_14  and  C_15
REMARK    6  A    between atoms: C_15  and  N_16
REMARK    7  A    between atoms: N_16  and  C_17
REMARK    8  A    between atoms: C_17  and  C_18
REMARK    9  A    between atoms: C_17  and  C_24
REMARK   10  A    between atoms: C_17  and  C_30
REMARK                            x       y       z     vdW  Elec       q    Type
REMARK                         _______ _______ _______ _____ _____    ______ ____
ROOT
ATOM      1  N   UNL     1       0.903  10.143  18.221  0.00  0.00    +0.000 NA
ATOM      2  H   UNL     1       0.417   9.816  17.393  0.00  0.00    +0.000 HD
ENDROOT
BRANCH   1   3
ATOM      3  C   UNL     1       1.494   9.028  18.947  0.00  0.00    +0.000 C 
BRANCH   3   4
ATOM      4  C   UNL     1       2.457   8.259  18.037  0.00  0.00    +0.000 C 
BRANCH   4   5
ATOM      5  C   UNL     1       2.478   6.754  18.311  0.00  0.00    +0.000 C 
BRANCH   5   8
ATOM      6  O   UNL     1       3.285   4.132  19.112  0.00  0.00    +0.000 OA
ATOM      7  C   UNL     1       4.113   4.925  18.670  0.00  0.00    +0.000 C 
ATOM      8  N   UNL     1       3.829   6.234  18.332  0.00  0.00    +0.000 N 
ATOM      9  H   UNL     1       4.606   6.876  18.195  0.00  0.00    +0.000 HD
BRANCH   7  10
ATOM     10  C   UNL     1       5.596   4.573  18.570  0.00  0.00    +0.000 C 
BRANCH  10  11
ATOM     11  N   UNL     1       6.043   4.792  17.197  0.00  0.00    +0.000 N 
ATOM     12  C   UNL     1       5.545   4.000  16.181  0.00  0.00    +0.000 A 
ATOM     13  C   UNL     1       5.987   4.103  14.930  0.00  0.00    +0.000 A 
ATOM     14  C   UNL     1       7.048   5.081  14.630  0.00  0.00    +0.000 A 
ATOM     15  O   UNL     1       7.533   5.166  13.509  0.00  0.00    +0.000 OA
ATOM     16  N   UNL     1       7.450   5.859  15.677  0.00  0.00    +0.000 N 
ATOM     17  C   UNL     1       7.047   5.723  16.977  0.00  0.00    +0.000 A 
ATOM     18  O   UNL     1       7.577   6.377  17.875  0.00  0.00    +0.000 OA
ATOM     19  H   UNL     1       8.196   6.514  15.496  0.00  0.00    +0.000 HD
ENDBRANCH  10  11
ENDBRANCH   7  10
ENDBRANCH   5   8
ENDBRANCH   4   5
ENDBRANCH   3   4
ENDBRANCH   1   3
BRANCH   1  20
ATOM     20  C   UNL     1      -0.016  11.069  18.961  0.00  0.00    +0.000 C 
BRANCH  20  21
ATOM     21  C   UNL     1       0.575  12.523  18.803  0.00  0.00    +0.000 A 
ATOM     22  C   UNL     1       1.955  12.771  18.715  0.00  0.00    +0.000 A 
ATOM     23  C   UNL     1       2.464  14.078  18.659  0.00  0.00    +0.000 A 
ATOM     24  C   UNL     1       1.607  15.173  18.698  0.00  0.00    +0.000 A 
ATOM     25  C   UNL     1       0.238  14.967  18.802  0.00  0.00    +0.000 A 
ATOM     26  C   UNL     1      -0.265  13.666  18.866  0.00  0.00    +0.000 A 
ENDBRANCH  20  21
BRANCH  20  27
ATOM     27  C   UNL     1      -1.434  10.925  18.277  0.00  0.00    +0.000 A 
ATOM     28  C   UNL     1      -2.565  11.623  18.742  0.00  0.00    +0.000 A 
ATOM     29  C   UNL     1      -3.836  11.393  18.197  0.00  0.00    +0.000 A 
ATOM     30  C   UNL     1      -4.005  10.484  17.157  0.00  0.00    +0.000 A 
ATOM     31  C   UNL     1      -2.897   9.832  16.629  0.00  0.00    +0.000 A 
ATOM     32  C   UNL     1      -1.629  10.061  17.171  0.00  0.00    +0.000 A 
ENDBRANCH  20  27
BRANCH  20  33
ATOM     33  C   UNL     1      -0.133  10.596  20.463  0.00  0.00    +0.000 A 
ATOM     34  C   UNL     1      -0.223   9.232  20.808  0.00  0.00    +0.000 A 
ATOM     35  C   UNL     1      -0.554   8.833  22.104  0.00  0.00    +0.000 A 
ATOM     36  C   UNL     1      -0.732   9.784  23.103  0.00  0.00    +0.000 A 
ATOM     37  C   UNL     1      -0.508  11.128  22.823  0.00  0.00    +0.000 A 
ATOM     38  C   UNL     1      -0.183  11.525  21.525  0.00  0.00    +0.000 A 
ENDBRANCH  20  33
ENDBRANCH   1  20
TORSDOF 10
ENDMDL
MODEL 4
REMARK VINA RESULT:      -8.8      1.625      3.289
REMARK  Name = 
REMARK  10 active torsions:
REMARK  status: ('A' for Active; 'I' for Inactive)
REMARK    1  A    between atoms: C_2  and  C_3
REMARK    2  A    between atoms: C_3  and  N_4
REMARK    3  A    between atoms: N_12  and  C_13
REMARK    4  A    between atoms: C_13  and  C_14
REMARK    5  A    between atoms: C_14  and  C_15
REMARK    6  A    between atoms: C_15  and  N_16
REMARK    7  A    between atoms: N_16  and  C_17
REMARK    8  A    between atoms: C_17  and  C_18
REMARK    9  A    between atoms: C_17  and  C_24
REMARK   10  A    between atoms: C_17  and  C_30
REMARK                            x       y       z     vdW  Elec       q    Type
REMARK                         _______ _______ _______ _____ _____    ______ ____
ROOT
ATOM      1  N   UNL     1       0.936   9.914  18.014  0.00  0.00    +0.000 NA
ATOM      2  H   UNL     1       0.365   9.160  17.645  0.00  0.00    +0.000 HD
ENDROOT
BRANCH   1   3
ATOM      3  C   UNL     1       2.150   9.390  18.624  0.00  0.00    +0.000 C 
BRANCH   3   4
ATOM      4  C   UNL     1       2.346   7.923  18.231  0.00  0.00    +0.000 C 
BRANCH   4   5
ATOM      5  C   UNL     1       2.350   6.970  19.427  0.00  0.00    +0.000 C 
BRANCH   5   8
ATOM      6  O   UNL     1       2.130   4.171  19.969  0.00  0.00    +0.000 OA
ATOM      7  C   UNL     1       3.182   4.636  19.538  0.00  0.00    +0.000 C 
ATOM      8  N   UNL     1       3.404   5.983  19.321  0.00  0.00    +0.000 N 
ATOM      9  H   UNL     1       4.361   6.298  19.185  0.00  0.00    +0.000 HD
BRANCH   7  10
ATOM     10  C   UNL     1       4.418   3.768  19.315  0.00  0.00    +0.000 C 
BRANCH  10  11
ATOM     11  N   UNL     1       5.205   4.334  18.222  0.00  0.00    +0.000 N 
ATOM     12  C   UNL     1       4.885   4.021  16.916  0.00  0.00    +0.000 A 
ATOM     13  C   UNL     1       5.624   4.441  15.892  0.00  0.00    +0.000 A 
ATOM     14  C   UNL     1       6.825   5.250  16.168  0.00  0.00    +0.000 A 
ATOM     15  O   UNL     1       7.573   5.602  15.264  0.00  0.00    +0.000 OA
ATOM     16  N   UNL     1       7.044   5.556  17.480  0.00  0.00    +0.000 N 
ATOM     17  C   UNL     1       6.327   5.083  18.544  0.00  0.00    +0.000 A 
ATOM     18  O   UNL     1       6.692   5.300  19.699  0.00  0.00    +0.000 OA
ATOM     19  H   UNL     1       7.877   6.085  17.689  0.00  0.00    +0.000 HD
ENDBRANCH  10  11
ENDBRANCH   7  10
ENDBRANCH   5   8
ENDBRANCH   4   5
ENDBRANCH   3   4
ENDBRANCH   1   3
BRANCH   1  20
ATOM     20  C   UNL     1       0.052  10.805  18.835  0.00  0.00    +0.000 C 
BRANCH  20  21
ATOM     21  C   UNL     1       0.661  12.257  18.749  0.00  0.00    +0.000 A 
ATOM     22  C   UNL     1      -0.125  13.414  18.883  0.00  0.00    +0.000 A 
ATOM     23  C   UNL     1       0.424  14.696  18.720  0.00  0.00    +0.000 A 
ATOM     24  C   UNL     1       1.770  14.856  18.412  0.00  0.00    +0.000 A 
ATOM     25  C   UNL     1       2.574  13.735  18.254  0.00  0.00    +0.000 A 
ATOM     26  C   UNL     1       2.024  12.460  18.408  0.00  0.00    +0.000 A 
ENDBRANCH  20  21
BRANCH  20  27
ATOM     27  C   UNL     1      -1.386  10.722  18.183  0.00  0.00    +0.000 A 
ATOM     28  C   UNL     1      -1.649   9.939  17.043  0.00  0.00    +0.000 A 
ATOM     29  C   UNL     1      -2.900   9.970  16.412  0.00  0.00    +0.000 A 
ATOM     30  C   UNL     1      -3.928  10.761  16.919  0.00  0.00    +0.000 A 
ATOM     31  C   UNL     1      -3.721  11.490  18.083  0.00  0.00    +0.000 A 
ATOM     32  C   UNL     1      -2.474  11.459  18.714  0.00  0.00    +0.000 A 
ENDBRANCH  20  27
BRANCH  20  33
ATOM     33  C   UNL     1      -0.031  10.241  20.307  0.00  0.00    +0.000 A 
ATOM     34  C   UNL     1      -0.308   8.884  20.570  0.00  0.00    +0.000 A 
ATOM     35  C   UNL     1      -0.605   8.441  21.860  0.00  0.00    +0.000 A 
ATOM     36  C   UNL     1      -0.561   9.330  22.929  0.00  0.00    +0.000 A 
ATOM     37  C   UNL     1      -0.150  10.641  22.719  0.00  0.00    +0.000 A 
ATOM     38  C   UNL     1       0.140  11.083  21.428  0.00  0.00    +0.000 A 
ENDBRANCH  20  33
ENDBRANCH   1  20
TORSDOF 10
ENDMDL
MODEL 5
REMARK VINA RESULT:      -8.8      1.879      5.083
REMARK  Name = 
REMARK  10 active torsions:
REMARK  status: ('A' for Active; 'I' for Inactive)
REMARK    1  A    between atoms: C_2  and  C_3
REMARK    2  A    between atoms: C_3  and  N_4
REMARK    3  A    between atoms: N_12  and  C_13
REMARK    4  A    between atoms: C_13  and  C_14
REMARK    5  A    between atoms: C_14  and  C_15
REMARK    6  A    between atoms: C_15  and  N_16
REMARK    7  A    between atoms: N_16  and  C_17
REMARK    8  A    between atoms: C_17  and  C_18
REMARK    9  A    between atoms: C_17  and  C_24
REMARK   10  A    between atoms: C_17  and  C_30
REMARK                            x       y       z     vdW  Elec       q    Type
REMARK                         _______ _______ _______ _____ _____    ______ ____
ROOT
ATOM      1  N   UNL     1       0.846   9.695  18.899  0.00  0.00    +0.000 NA
ATOM      2  H   UNL     1       1.278   9.334  19.744  0.00  0.00    +0.000 HD
ENDROOT
BRANCH   1   3
ATOM      3  C   UNL     1       1.838   9.877  17.850  0.00  0.00    +0.000 C 
BRANCH   3   4
ATOM      4  C   UNL     1       2.669   8.601  17.684  0.00  0.00    +0.000 C 
BRANCH   4   5
ATOM      5  C   UNL     1       2.283   7.493  18.666  0.00  0.00    +0.000 C 
BRANCH   5   8
ATOM      6  O   UNL     1       1.901   4.704  18.170  0.00  0.00    +0.000 OA
ATOM      7  C   UNL     1       3.025   5.142  18.402  0.00  0.00    +0.000 C 
ATOM      8  N   UNL     1       3.293   6.458  18.728  0.00  0.00    +0.000 N 
ATOM      9  H   UNL     1       4.203   6.681  19.123  0.00  0.00    +0.000 HD
BRANCH   7  10
ATOM     10  C   UNL     1       4.247   4.230  18.480  0.00  0.00    +0.000 C 
BRANCH  10  11
ATOM     11  N   UNL     1       5.179   4.593  17.415  0.00  0.00    +0.000 N 
ATOM     12  C   UNL     1       4.735   4.648  16.108  0.00  0.00    +0.000 A 
ATOM     13  C   UNL     1       5.565   4.887  15.095  0.00  0.00    +0.000 A 
ATOM     14  C   UNL     1       6.997   5.085  15.381  0.00  0.00    +0.000 A 
ATOM     15  O   UNL     1       7.808   5.242  14.477  0.00  0.00    +0.000 OA
ATOM     16  N   UNL     1       7.345   5.065  16.701  0.00  0.00    +0.000 N 
ATOM     17  C   UNL     1       6.515   4.762  17.744  0.00  0.00    +0.000 A 
ATOM     18  O   UNL     1       6.957   4.627  18.885  0.00  0.00    +0.000 OA
ATOM     19  H   UNL     1       8.326   5.170  16.913  0.00  0.00    +0.000 HD
ENDBRANCH  10  11
ENDBRANCH   7  10
ENDBRANCH   5   8
ENDBRANCH   4   5
ENDBRANCH   3   4
ENDBRANCH   1   3
BRANCH   1  20
ATOM     20  C   UNL     1      -0.011  10.866  19.282  0.00  0.00    +0.000 C 
BRANCH  20  21
ATOM     21  C   UNL     1      -1.302  10.801  18.379  0.00  0.00    +0.000 A 
ATOM     22  C   UNL     1      -2.459  11.546  18.662  0.00  0.00    +0.000 A 
ATOM     23  C   UNL     1      -3.626  11.410  17.893  0.00  0.00    +0.000 A 
ATOM     24  C   UNL     1      -3.670  10.520  16.825  0.00  0.00    +0.000 A 
ATOM     25  C   UNL     1      -2.552   9.753  16.527  0.00  0.00    +0.000 A 
ATOM     26  C   UNL     1      -1.395   9.884  17.299  0.00  0.00    +0.000 A 
ENDBRANCH  20  21
BRANCH  20  27
ATOM     27  C   UNL     1      -0.347  10.685  20.816  0.00  0.00    +0.000 A 
ATOM     28  C   UNL     1      -0.120   9.474  21.496  0.00  0.00    +0.000 A 
ATOM     29  C   UNL     1      -0.531   9.296  22.824  0.00  0.00    +0.000 A 
ATOM     30  C   UNL     1      -1.154  10.332  23.515  0.00  0.00    +0.000 A 
ATOM     31  C   UNL     1      -1.328  11.563  22.894  0.00  0.00    +0.000 A 
ATOM     32  C   UNL     1      -0.917  11.741  21.570  0.00  0.00    +0.000 A 
ENDBRANCH  20  27
BRANCH  20  33
ATOM     33  C   UNL     1       0.818  12.198  19.102  0.00  0.00    +0.000 A 
ATOM     34  C   UNL     1       2.091  12.365  19.684  0.00  0.00    +0.000 A 
ATOM     35  C   UNL     1       2.715  13.614  19.716  0.00  0.00    +0.000 A 
ATOM     36  C   UNL     1       2.114  14.709  19.104  0.00  0.00    +0.000 A 
ATOM     37  C   UNL     1       0.928  14.540  18.399  0.00  0.00    +0.000 A 
ATOM     38  C   UNL     1       0.303  13.292  18.373  0.00  0.00    +0.000 A 
ENDBRANCH  20  33
ENDBRANCH   1  20
TORSDOF 10
ENDMDL
MODEL 6
REMARK VINA RESULT:      -8.7      1.548      4.827
REMARK  Name = 
REMARK  10 active torsions:
REMARK  status: ('A' for Active; 'I' for Inactive)
REMARK    1  A    between atoms: C_2  and  C_3
REMARK    2  A    between atoms: C_3  and  N_4
REMARK    3  A    between atoms: N_12  and  C_13
REMARK    4  A    between atoms: C_13  and  C_14
REMARK    5  A    between atoms: C_14  and  C_15
REMARK    6  A    between atoms: C_15  and  N_16
REMARK    7  A    between atoms: N_16  and  C_17
REMARK    8  A    between atoms: C_17  and  C_18
REMARK    9  A    between atoms: C_17  and  C_24
REMARK   10  A    between atoms: C_17  and  C_30
REMARK                            x       y       z     vdW  Elec       q    Type
REMARK                         _______ _______ _______ _____ _____    ______ ____
ROOT
ATOM      1  N   UNL     1       0.570  10.111  18.004  0.00  0.00    +0.000 NA
ATOM      2  H   UNL     1       0.026   9.287  17.768  0.00  0.00    +0.000 HD
ENDROOT
BRANCH   1   3
ATOM      3  C   UNL     1       1.812   9.737  18.665  0.00  0.00    +0.000 C 
BRANCH   3   4
ATOM      4  C   UNL     1       2.348   8.428  18.076  0.00  0.00    +0.000 C 
BRANCH   4   5
ATOM      5  C   UNL     1       2.169   7.227  19.006  0.00  0.00    +0.000 C 
BRANCH   5   8
ATOM      6  O   UNL     1       1.500   4.555  19.774  0.00  0.00    +0.000 OA
ATOM      7  C   UNL     1       2.220   4.756  18.799  0.00  0.00    +0.000 C 
ATOM      8  N   UNL     1       2.657   6.005  18.402  0.00  0.00    +0.000 N 
ATOM      9  H   UNL     1       3.422   6.058  17.733  0.00  0.00    +0.000 HD
BRANCH   7  10
ATOM     10  C   UNL     1       2.820   3.610  17.988  0.00  0.00    +0.000 C 
BRANCH  10  11
ATOM     11  N   UNL     1       4.197   3.947  17.636  0.00  0.00    +0.000 N 
ATOM     12  C   UNL     1       4.510   4.267  16.330  0.00  0.00    +0.000 A 
ATOM     13  C   UNL     1       5.763   4.496  15.944  0.00  0.00    +0.000 A 
ATOM     14  C   UNL     1       6.844   4.390  16.941  0.00  0.00    +0.000 A 
ATOM     15  O   UNL     1       8.017   4.526  16.620  0.00  0.00    +0.000 OA
ATOM     16  N   UNL     1       6.446   4.119  18.218  0.00  0.00    +0.000 N 
ATOM     17  C   UNL     1       5.171   3.824  18.615  0.00  0.00    +0.000 A 
ATOM     18  O   UNL     1       4.937   3.451  19.765  0.00  0.00    +0.000 OA
ATOM     19  H   UNL     1       7.175   4.015  18.908  0.00  0.00    +0.000 HD
ENDBRANCH  10  11
ENDBRANCH   7  10
ENDBRANCH   5   8
ENDBRANCH   4   5
ENDBRANCH   3   4
ENDBRANCH   1   3
BRANCH   1  20
ATOM     20  C   UNL     1      -0.340  11.085  18.693  0.00  0.00    +0.000 C 
BRANCH  20  21
ATOM     21  C   UNL     1      -1.733  11.006  17.958  0.00  0.00    +0.000 A 
ATOM     22  C   UNL     1      -2.896  11.595  18.481  0.00  0.00    +0.000 A 
ATOM     23  C   UNL     1      -4.142  11.442  17.854  0.00  0.00    +0.000 A 
ATOM     24  C   UNL     1      -4.261  10.688  16.691  0.00  0.00    +0.000 A 
ATOM     25  C   UNL     1      -3.137  10.076  16.154  0.00  0.00    +0.000 A 
ATOM     26  C   UNL     1      -1.900  10.223  16.785  0.00  0.00    +0.000 A 
ENDBRANCH  20  21
BRANCH  20  27
ATOM     27  C   UNL     1      -0.432  10.614  20.199  0.00  0.00    +0.000 A 
ATOM     28  C   UNL     1      -0.494  11.529  21.268  0.00  0.00    +0.000 A 
ATOM     29  C   UNL     1      -0.458  11.095  22.600  0.00  0.00    +0.000 A 
ATOM     30  C   UNL     1      -0.387   9.737  22.899  0.00  0.00    +0.000 A 
ATOM     31  C   UNL     1      -0.395   8.807  21.867  0.00  0.00    +0.000 A 
ATOM     32  C   UNL     1      -0.433   9.239  20.538  0.00  0.00    +0.000 A 
ENDBRANCH  20  27
BRANCH  20  33
ATOM     33  C   UNL     1       0.313  12.522  18.655  0.00  0.00    +0.000 A 
ATOM     34  C   UNL     1       1.710  12.706  18.697  0.00  0.00    +0.000 A 
ATOM     35  C   UNL     1       2.269  13.970  18.893  0.00  0.00    +0.000 A 
ATOM     36  C   UNL     1       1.448  15.090  18.980  0.00  0.00    +0.000 A 
ATOM     37  C   UNL     1       0.076  14.955  18.798  0.00  0.00    +0.000 A 
ATOM     38  C   UNL     1      -0.481  13.689  18.607  0.00  0.00    +0.000 A 
ENDBRANCH  20  33
ENDBRANCH   1  20
TORSDOF 10
ENDMDL
MODEL 7
REMARK VINA RESULT:      -8.6      1.993      5.245
REMARK  Name = 
REMARK  10 active torsions:
REMARK  status: ('A' for Active; 'I' for Inactive)
REMARK    1  A    between atoms: C_2  and  C_3
REMARK    2  A    between atoms: C_3  and  N_4
REMARK    3  A    between atoms: N_12  and  C_13
REMARK    4  A    between atoms: C_13  and  C_14
REMARK    5  A    between atoms: C_14  and  C_15
REMARK    6  A    between atoms: C_15  and  N_16
REMARK    7  A    between atoms: N_16  and  C_17
REMARK    8  A    between atoms: C_17  and  C_18
REMARK    9  A    between atoms: C_17  and  C_24
REMARK   10  A    between atoms: C_17  and  C_30
REMARK                            x       y       z     vdW  Elec       q    Type
REMARK                         _______ _______ _______ _____ _____    ______ ____
ROOT
ATOM      1  N   UNL     1       1.329  10.365  18.694  0.00  0.00    +0.000 NA
ATOM      2  H   UNL     1       2.032  11.023  18.373  0.00  0.00    +0.000 HD
ENDROOT
BRANCH   1   3
ATOM      3  C   UNL     1       1.142   9.297  17.723  0.00  0.00    +0.000 C 
BRANCH   3   4
ATOM      4  C   UNL     1       2.331   8.332  17.765  0.00  0.00    +0.000 C 
BRANCH   4   5
ATOM      5  C   UNL     1       2.295   7.378  18.959  0.00  0.00    +0.000 C 
BRANCH   5   8
ATOM      6  O   UNL     1       2.241   4.811  17.701  0.00  0.00    +0.000 OA
ATOM      7  C   UNL     1       3.278   5.226  18.213  0.00  0.00    +0.000 C 
ATOM      8  N   UNL     1       3.377   6.416  18.908  0.00  0.00    +0.000 N 
ATOM      9  H   UNL     1       4.200   6.570  19.486  0.00  0.00    +0.000 HD
BRANCH   7  10
ATOM     10  C   UNL     1       4.555   4.390  18.243  0.00  0.00    +0.000 C 
BRANCH  10  11
ATOM     11  N   UNL     1       5.369   4.725  17.077  0.00  0.00    +0.000 N 
ATOM     12  C   UNL     1       5.165   4.058  15.886  0.00  0.00    +0.000 A 
ATOM     13  C   UNL     1       5.938   4.266  14.823  0.00  0.00    +0.000 A 
ATOM     14  C   UNL     1       7.050   5.227  14.931  0.00  0.00    +0.000 A 
ATOM     15  O   UNL     1       7.829   5.402  14.002  0.00  0.00    +0.000 OA
ATOM     16  N   UNL     1       7.153   5.881  16.124  0.00  0.00    +0.000 N 
ATOM     17  C   UNL     1       6.403   5.634  17.241  0.00  0.00    +0.000 A 
ATOM     18  O   UNL     1       6.670   6.176  18.314  0.00  0.00    +0.000 OA
ATOM     19  H   UNL     1       7.926   6.522  16.225  0.00  0.00    +0.000 HD
ENDBRANCH  10  11
ENDBRANCH   7  10
ENDBRANCH   5   8
ENDBRANCH   4   5
ENDBRANCH   3   4
ENDBRANCH   1   3
BRANCH   1  20
ATOM     20  C   UNL     1       0.128  11.148  19.134  0.00  0.00    +0.000 C 
BRANCH  20  21
ATOM     21  C   UNL     1      -0.123  10.787  20.649  0.00  0.00    +0.000 A 
ATOM     22  C   UNL     1       0.360   9.604  21.233  0.00  0.00    +0.000 A 
ATOM     23  C   UNL     1       0.054   9.263  22.560  0.00  0.00    +0.000 A 
ATOM     24  C   UNL     1      -0.749  10.091  23.336  0.00  0.00    +0.000 A 
ATOM     25  C   UNL     1      -1.259  11.260  22.788  0.00  0.00    +0.000 A 
ATOM     26  C   UNL     1      -0.960  11.593  21.465  0.00  0.00    +0.000 A 
ENDBRANCH  20  21
BRANCH  20  27
ATOM     27  C   UNL     1       0.498  12.672  18.938  0.00  0.00    +0.000 A 
ATOM     28  C   UNL     1       1.804  13.093  18.625  0.00  0.00    +0.000 A 
ATOM     29  C   UNL     1       2.137  14.453  18.570  0.00  0.00    +0.000 A 
ATOM     30  C   UNL     1       1.170  15.427  18.800  0.00  0.00    +0.000 A 
ATOM     31  C   UNL     1      -0.144  15.045  19.042  0.00  0.00    +0.000 A 
ATOM     32  C   UNL     1      -0.477  13.688  19.095  0.00  0.00    +0.000 A 
ENDBRANCH  20  27
BRANCH  20  33
ATOM     33  C   UNL     1      -1.092  10.802  18.194  0.00  0.00    +0.000 A 
ATOM     34  C   UNL     1      -1.381  11.562  17.042  0.00  0.00    +0.000 A 
ATOM     35  C   UNL     1      -2.581  11.397  16.347  0.00  0.00    +0.000 A 
ATOM     36  C   UNL     1      -3.488  10.419  16.744  0.00  0.00    +0.000 A 
ATOM     37  C   UNL     1      -3.162   9.560  17.788  0.00  0.00    +0.000 A 
ATOM     38  C   UNL     1      -1.964   9.731  18.484  0.00  0.00    +0.000 A 
ENDBRANCH  20  33
ENDBRANCH   1  20
TORSDOF 10
ENDMDL
MODEL 8
REMARK VINA RESULT:      -8.6      1.574      4.817
REMARK  Name = 
REMARK  10 active torsions:
REMARK  status: ('A' for Active; 'I' for Inactive)
REMARK    1  A    between atoms: C_2  and  C_3
REMARK    2  A    between atoms: C_3  and  N_4
REMARK    3  A    between atoms: N_12  and  C_13
REMARK    4  A    between atoms: C_13  and  C_14
REMARK    5  A    between atoms: C_14  and  C_15
REMARK    6  A    between atoms: C_15  and  N_16
REMARK    7  A    between atoms: N_16  and  C_17
REMARK    8  A    between atoms: C_17  and  C_18
REMARK    9  A    between atoms: C_17  and  C_24
REMARK   10  A    between atoms: C_17  and  C_30
REMARK                            x       y       z     vdW  Elec       q    Type
REMARK                         _______ _______ _______ _____ _____    ______ ____
ROOT
ATOM      1  N   UNL     1       0.386   9.962  18.036  0.00  0.00    +0.000 NA
ATOM      2  H   UNL     1      -0.168   9.145  17.794  0.00  0.00    +0.000 HD
ENDROOT
BRANCH   1   3
ATOM      3  C   UNL     1       1.658   9.566  18.622  0.00  0.00    +0.000 C 
BRANCH   3   4
ATOM      4  C   UNL     1       2.102   8.214  18.054  0.00  0.00    +0.000 C 
BRANCH   4   5
ATOM      5  C   UNL     1       2.421   7.178  19.133  0.00  0.00    +0.000 C 
BRANCH   5   8
ATOM      6  O   UNL     1       1.215   4.605  19.450  0.00  0.00    +0.000 OA
ATOM      7  C   UNL     1       2.188   4.745  18.712  0.00  0.00    +0.000 C 
ATOM      8  N   UNL     1       2.880   5.931  18.559  0.00  0.00    +0.000 N 
ATOM      9  H   UNL     1       3.795   5.902  18.114  0.00  0.00    +0.000 HD
BRANCH   7  10
ATOM     10  C   UNL     1       2.819   3.567  17.974  0.00  0.00    +0.000 C 
BRANCH  10  11
ATOM     11  N   UNL     1       4.191   3.914  17.612  0.00  0.00    +0.000 N 
ATOM     12  C   UNL     1       4.502   4.184  16.294  0.00  0.00    +0.000 A 
ATOM     13  C   UNL     1       5.752   4.418  15.902  0.00  0.00    +0.000 A 
ATOM     14  C   UNL     1       6.831   4.373  16.905  0.00  0.00    +0.000 A 
ATOM     15  O   UNL     1       8.004   4.516  16.581  0.00  0.00    +0.000 OA
ATOM     16  N   UNL     1       6.435   4.150  18.191  0.00  0.00    +0.000 N 
ATOM     17  C   UNL     1       5.164   3.849  18.598  0.00  0.00    +0.000 A 
ATOM     18  O   UNL     1       4.933   3.521  19.761  0.00  0.00    +0.000 OA
ATOM     19  H   UNL     1       7.163   4.087  18.886  0.00  0.00    +0.000 HD
ENDBRANCH  10  11
ENDBRANCH   7  10
ENDBRANCH   5   8
ENDBRANCH   4   5
ENDBRANCH   3   4
ENDBRANCH   1   3
BRANCH   1  20
ATOM     20  C   UNL     1      -0.492  10.905  18.804  0.00  0.00    +0.000 C 
BRANCH  20  21
ATOM     21  C   UNL     1      -0.524  10.388  20.294  0.00  0.00    +0.000 A 
ATOM     22  C   UNL     1      -0.571  11.260  21.394  0.00  0.00    +0.000 A 
ATOM     23  C   UNL     1      -0.515  10.781  22.712  0.00  0.00    +0.000 A 
ATOM     24  C   UNL     1      -0.401   9.418  22.966  0.00  0.00    +0.000 A 
ATOM     25  C   UNL     1      -0.333   8.528  21.904  0.00  0.00    +0.000 A 
ATOM     26  C   UNL     1      -0.381   9.007  20.593  0.00  0.00    +0.000 A 
ENDBRANCH  20  21
BRANCH  20  27
ATOM     27  C   UNL     1       0.179  12.331  18.682  0.00  0.00    +0.000 A 
ATOM     28  C   UNL     1       1.575  12.510  18.727  0.00  0.00    +0.000 A 
ATOM     29  C   UNL     1       2.145  13.791  18.734  0.00  0.00    +0.000 A 
ATOM     30  C   UNL     1       1.338  14.923  18.670  0.00  0.00    +0.000 A 
ATOM     31  C   UNL     1      -0.039  14.778  18.554  0.00  0.00    +0.000 A 
ATOM     32  C   UNL     1      -0.608  13.501  18.545  0.00  0.00    +0.000 A 
ENDBRANCH  20  27
BRANCH  20  33
ATOM     33  C   UNL     1      -1.916  10.960  18.125  0.00  0.00    +0.000 A 
ATOM     34  C   UNL     1      -2.124  10.531  16.798  0.00  0.00    +0.000 A 
ATOM     35  C   UNL     1      -3.323  10.792  16.132  0.00  0.00    +0.000 A 
ATOM     36  C   UNL     1      -4.368  11.425  16.798  0.00  0.00    +0.000 A 
ATOM     37  C   UNL     1      -4.240  11.729  18.149  0.00  0.00    +0.000 A 
ATOM     38  C   UNL     1      -3.039  11.472  18.811  0.00  0.00    +0.000 A 
ENDBRANCH  20  33
ENDBRANCH   1  20
TORSDOF 10
ENDMDL
MODEL 9
REMARK VINA RESULT:      -8.5      0.957      4.085
REMARK  Name = 
REMARK  10 active torsions:
REMARK  status: ('A' for Active; 'I' for Inactive)
REMARK    1  A    between atoms: C_2  and  C_3
REMARK    2  A    between atoms: C_3  and  N_4
REMARK    3  A    between atoms: N_12  and  C_13
REMARK    4  A    between atoms: C_13  and  C_14
REMARK    5  A    between atoms: C_14  and  C_15
REMARK    6  A    between atoms: C_15  and  N_16
REMARK    7  A    between atoms: N_16  and  C_17
REMARK    8  A    between atoms: C_17  and  C_18
REMARK    9  A    between atoms: C_17  and  C_24
REMARK   10  A    between atoms: C_17  and  C_30
REMARK                            x       y       z     vdW  Elec       q    Type
REMARK                         _______ _______ _______ _____ _____    ______ ____
ROOT
ATOM      1  N   UNL     1       0.589  10.197  17.933  0.00  0.00    +0.000 NA
ATOM      2  H   UNL     1       0.014   9.507  17.460  0.00  0.00    +0.000 HD
ENDROOT
BRANCH   1   3
ATOM      3  C   UNL     1       1.762   9.571  18.524  0.00  0.00    +0.000 C 
BRANCH   3   4
ATOM      4  C   UNL     1       2.087   8.264  17.794  0.00  0.00    +0.000 C 
BRANCH   4   5
ATOM      5  C   UNL     1       3.078   7.377  18.549  0.00  0.00    +0.000 C 
BRANCH   5   8
ATOM      6  O   UNL     1       4.512   5.716  16.717  0.00  0.00    +0.000 OA
ATOM      7  C   UNL     1       3.638   5.234  17.434  0.00  0.00    +0.000 C 
ATOM      8  N   UNL     1       2.844   5.973  18.290  0.00  0.00    +0.000 N 
ATOM      9  H   UNL     1       2.007   5.536  18.668  0.00  0.00    +0.000 HD
BRANCH   7  10
ATOM     10  C   UNL     1       3.249   3.760  17.354  0.00  0.00    +0.000 C 
BRANCH  10  11
ATOM     11  N   UNL     1       2.744   3.331  18.656  0.00  0.00    +0.000 N 
ATOM     12  C   UNL     1       1.384   3.314  18.889  0.00  0.00    +0.000 A 
ATOM     13  C   UNL     1       0.880   3.015  20.085  0.00  0.00    +0.000 A 
ATOM     14  C   UNL     1       1.808   2.710  21.190  0.00  0.00    +0.000 A 
ATOM     15  O   UNL     1       1.395   2.495  22.322  0.00  0.00    +0.000 OA
ATOM     16  N   UNL     1       3.133   2.700  20.864  0.00  0.00    +0.000 N 
ATOM     17  C   UNL     1       3.665   3.061  19.657  0.00  0.00    +0.000 A 
ATOM     18  O   UNL     1       4.883   3.159  19.507  0.00  0.00    +0.000 OA
ATOM     19  H   UNL     1       3.783   2.521  21.615  0.00  0.00    +0.000 HD
ENDBRANCH  10  11
ENDBRANCH   7  10
ENDBRANCH   5   8
ENDBRANCH   4   5
ENDBRANCH   3   4
ENDBRANCH   1   3
BRANCH   1  20
ATOM     20  C   UNL     1      -0.305  11.016  18.817  0.00  0.00    +0.000 C 
BRANCH  20  21
ATOM     21  C   UNL     1      -0.245  10.369  20.253  0.00  0.00    +0.000 A 
ATOM     22  C   UNL     1      -0.342   8.983  20.461  0.00  0.00    +0.000 A 
ATOM     23  C   UNL     1      -0.370   8.435  21.754  0.00  0.00    +0.000 A 
ATOM     24  C   UNL     1      -0.311   9.258  22.873  0.00  0.00    +0.000 A 
ATOM     25  C   UNL     1      -0.232  10.634  22.707  0.00  0.00    +0.000 A 
ATOM     26  C   UNL     1      -0.213  11.177  21.420  0.00  0.00    +0.000 A 
ENDBRANCH  20  21
BRANCH  20  27
ATOM     27  C   UNL     1       0.282  12.484  18.800  0.00  0.00    +0.000 A 
ATOM     28  C   UNL     1      -0.537  13.621  18.946  0.00  0.00    +0.000 A 
ATOM     29  C   UNL     1      -0.016  14.915  18.812  0.00  0.00    +0.000 A 
ATOM     30  C   UNL     1       1.339  15.108  18.556  0.00  0.00    +0.000 A 
ATOM     31  C   UNL     1       2.185  14.009  18.475  0.00  0.00    +0.000 A 
ATOM     32  C   UNL     1       1.666  12.718  18.611  0.00  0.00    +0.000 A 
ENDBRANCH  20  27
BRANCH  20  33
ATOM     33  C   UNL     1      -1.758  11.049  18.200  0.00  0.00    +0.000 A 
ATOM     34  C   UNL     1      -2.005  10.691  16.859  0.00  0.00    +0.000 A 
ATOM     35  C   UNL     1      -3.241  10.939  16.258  0.00  0.00    +0.000 A 
ATOM     36  C   UNL     1      -4.281  11.483  17.003  0.00  0.00    +0.000 A 
ATOM     37  C   UNL     1      -4.109  11.711  18.364  0.00  0.00    +0.000 A 
ATOM     38  C   UNL     1      -2.871  11.469  18.961  0.00  0.00    +0.000 A 
ENDBRANCH  20  33
ENDBRANCH   1  20
TORSDOF 10
ENDMDL
