MODEL 1
REMARK VINA RESULT:      -7.0      0.000      0.000
REMARK  Name = 
REMARK  3 active torsions:
REMARK  status: ('A' for Active; 'I' for Inactive)
REMARK    1  A    between atoms: C_4  and  O_5
REMARK    2  A    between atoms: N_10  and  C_11
REMARK    3  A    between atoms: C_11  and  C_12
REMARK                            x       y       z     vdW  Elec       q    Type
REMARK                         _______ _______ _______ _____ _____    ______ ____
ROOT
ATOM      1  N   UNL     1       3.922   0.651  18.354  0.00  0.00    +0.000 N 
ATOM      2  C   UNL     1       3.346   1.895  18.517  0.00  0.00    +0.000 A 
ATOM      3  N   UNL     1       2.293   1.948  19.350  0.00  0.00    +0.000 NA
ATOM      4  C   UNL     1       1.727   3.149  19.564  0.00  0.00    +0.000 A 
ATOM      5  C   UNL     1       2.210   4.292  18.940  0.00  0.00    +0.000 A 
ATOM      6  N   UNL     1       1.878   5.623  18.996  0.00  0.00    +0.000 NA
ATOM      7  C   UNL     1       2.727   6.224  18.202  0.00  0.00    +0.000 A 
ATOM      8  N   UNL     1       2.800   7.555  18.022  0.00  0.00    +0.000 N 
ATOM      9  N   UNL     1       3.581   5.332  17.592  0.00  0.00    +0.000 N 
ATOM     10  C   UNL     1       3.275   4.086  18.081  0.00  0.00    +0.000 A 
ATOM     11  N   UNL     1       3.880   2.912  17.818  0.00  0.00    +0.000 NA
ATOM     12  H   UNL     1       3.264  -0.078  18.594  0.00  0.00    +0.000 HD
ATOM     13  H   UNL     1       4.397   0.584  17.467  0.00  0.00    +0.000 HD
ATOM     14  H   UNL     1       2.040   8.065  18.466  0.00  0.00    +0.000 HD
ATOM     15  H   UNL     1       3.006   7.924  17.100  0.00  0.00    +0.000 HD
ENDROOT
BRANCH   4  16
ATOM     16  O   UNL     1       0.682   3.145  20.443  0.00  0.00    +0.000 OA
ATOM     17  H   UNL     1       0.514   4.099  20.532  0.00  0.00    +0.000 HD
ENDBRANCH   4  16
BRANCH   9  18
ATOM     18  C   UNL     1       4.735   5.642  16.766  0.00  0.00    +0.000 C 
BRANCH  18  19
ATOM     19  C   UNL     1       5.952   6.000  17.574  0.00  0.00    +0.000 A 
ATOM     20  C   UNL     1       6.797   7.139  17.332  0.00  0.00    +0.000 A 
ATOM     21  C   UNL     1       7.895   7.180  18.165  0.00  0.00    +0.000 A 
ATOM     22  S   UNL     1       7.915   5.868  19.257  0.00  0.00    +0.000 S 
ATOM     23  C   UNL     1       6.463   5.237  18.610  0.00  0.00    +0.000 A 
ENDBRANCH  18  19
ENDBRANCH   9  18
TORSDOF 3
ENDMDL
MODEL 2
REMARK VINA RESULT:      -6.8      2.690      3.757
REMARK  Name = 
REMARK  3 active torsions:
REMARK  status: ('A' for Active; 'I' for Inactive)
REMARK    1  A    between atoms: C_4  and  O_5
REMARK    2  A    between atoms: N_10  and  C_11
REMARK    3  A    between atoms: C_11  and  C_12
REMARK                            x       y       z     vdW  Elec       q    Type
REMARK                         _______ _______ _______ _____ _____    ______ ____
ROOT
ATOM      1  N   UNL     1       1.027   2.022  18.555  0.00  0.00    +0.000 N 
ATOM      2  C   UNL     1       2.271   2.577  18.773  0.00  0.00    +0.000 A 
ATOM      3  N   UNL     1       3.158   1.794  19.411  0.00  0.00    +0.000 NA
ATOM      4  C   UNL     1       4.394   2.285  19.610  0.00  0.00    +0.000 A 
ATOM      5  C   UNL     1       4.739   3.560  19.180  0.00  0.00    +0.000 A 
ATOM      6  N   UNL     1       5.899   4.293  19.200  0.00  0.00    +0.000 NA
ATOM      7  C   UNL     1       5.605   5.420  18.605  0.00  0.00    +0.000 A 
ATOM      8  N   UNL     1       6.484   6.404  18.344  0.00  0.00    +0.000 N 
ATOM      9  N   UNL     1       4.280   5.474  18.230  0.00  0.00    +0.000 N 
ATOM     10  C   UNL     1       3.718   4.269  18.571  0.00  0.00    +0.000 A 
ATOM     11  N   UNL     1       2.462   3.839  18.348  0.00  0.00    +0.000 NA
ATOM     12  H   UNL     1       0.855   1.268  19.205  0.00  0.00    +0.000 HD
ATOM     13  H   UNL     1       0.321   2.738  18.465  0.00  0.00    +0.000 HD
ATOM     14  H   UNL     1       7.396   6.254  18.771  0.00  0.00    +0.000 HD
ATOM     15  H   UNL     1       6.192   7.372  18.426  0.00  0.00    +0.000 HD
ENDROOT
BRANCH   4  16
ATOM     16  O   UNL     1       5.258   1.432  20.235  0.00  0.00    +0.000 OA
ATOM     17  H   UNL     1       5.339   1.858  21.106  0.00  0.00    +0.000 HD
ENDBRANCH   4  16
BRANCH   9  18
ATOM     18  C   UNL     1       3.634   6.497  17.427  0.00  0.00    +0.000 C 
BRANCH  18  19
ATOM     19  C   UNL     1       2.738   7.395  18.234  0.00  0.00    +0.000 A 
ATOM     20  C   UNL     1       2.140   8.613  17.755  0.00  0.00    +0.000 A 
ATOM     21  C   UNL     1       1.437   9.287  18.730  0.00  0.00    +0.000 A 
ATOM     22  S   UNL     1       1.468   8.460  20.224  0.00  0.00    +0.000 S 
ATOM     23  C   UNL     1       2.431   7.207  19.572  0.00  0.00    +0.000 A 
ENDBRANCH  18  19
ENDBRANCH   9  18
TORSDOF 3
ENDMDL
MODEL 3
REMARK VINA RESULT:      -6.7      3.733      5.651
REMARK  Name = 
REMARK  3 active torsions:
REMARK  status: ('A' for Active; 'I' for Inactive)
REMARK    1  A    between atoms: C_4  and  O_5
REMARK    2  A    between atoms: N_10  and  C_11
REMARK    3  A    between atoms: C_11  and  C_12
REMARK                            x       y       z     vdW  Elec       q    Type
REMARK                         _______ _______ _______ _____ _____    ______ ____
ROOT
ATOM      1  N   UNL     1       8.228   5.290  20.631  0.00  0.00    +0.000 N 
ATOM      2  C   UNL     1       7.716   5.590  19.384  0.00  0.00    +0.000 A 
ATOM      3  N   UNL     1       8.126   6.752  18.847  0.00  0.00    +0.000 NA
ATOM      4  C   UNL     1       7.679   7.063  17.618  0.00  0.00    +0.000 A 
ATOM      5  C   UNL     1       6.818   6.216  16.931  0.00  0.00    +0.000 A 
ATOM      6  N   UNL     1       6.249   6.242  15.682  0.00  0.00    +0.000 NA
ATOM      7  C   UNL     1       5.557   5.135  15.596  0.00  0.00    +0.000 A 
ATOM      8  N   UNL     1       4.895   4.726  14.498  0.00  0.00    +0.000 N 
ATOM      9  N   UNL     1       5.617   4.398  16.758  0.00  0.00    +0.000 N 
ATOM     10  C   UNL     1       6.450   5.072  17.617  0.00  0.00    +0.000 A 
ATOM     11  N   UNL     1       6.855   4.708  18.848  0.00  0.00    +0.000 NA
ATOM     12  H   UNL     1       8.540   6.130  21.097  0.00  0.00    +0.000 HD
ATOM     13  H   UNL     1       7.613   4.670  21.136  0.00  0.00    +0.000 HD
ATOM     14  H   UNL     1       4.867   5.426  13.760  0.00  0.00    +0.000 HD
ATOM     15  H   UNL     1       4.002   4.257  14.599  0.00  0.00    +0.000 HD
ENDROOT
BRANCH   4  16
ATOM     16  O   UNL     1       8.153   8.240  17.113  0.00  0.00    +0.000 OA
ATOM     17  H   UNL     1       8.429   7.959  16.223  0.00  0.00    +0.000 HD
ENDBRANCH   4  16
BRANCH   9  18
ATOM     18  C   UNL     1       5.100   3.059  16.979  0.00  0.00    +0.000 C 
BRANCH  18  19
ATOM     19  C   UNL     1       3.812   3.051  17.754  0.00  0.00    +0.000 A 
ATOM     20  C   UNL     1       2.656   3.851  17.445  0.00  0.00    +0.000 A 
ATOM     21  C   UNL     1       1.645   3.715  18.372  0.00  0.00    +0.000 A 
ATOM     22  S   UNL     1       2.058   2.614  19.610  0.00  0.00    +0.000 S 
ATOM     23  C   UNL     1       3.595   2.327  18.915  0.00  0.00    +0.000 A 
ENDBRANCH  18  19
ENDBRANCH   9  18
TORSDOF 3
ENDMDL
MODEL 4
REMARK VINA RESULT:      -6.7      1.543      1.791
REMARK  Name = 
REMARK  3 active torsions:
REMARK  status: ('A' for Active; 'I' for Inactive)
REMARK    1  A    between atoms: C_4  and  O_5
REMARK    2  A    between atoms: N_10  and  C_11
REMARK    3  A    between atoms: C_11  and  C_12
REMARK                            x       y       z     vdW  Elec       q    Type
REMARK                         _______ _______ _______ _____ _____    ______ ____
ROOT
ATOM      1  N   UNL     1       4.015   0.642  18.369  0.00  0.00    +0.000 N 
ATOM      2  C   UNL     1       3.329   1.789  18.716  0.00  0.00    +0.000 A 
ATOM      3  N   UNL     1       2.033   1.623  19.032  0.00  0.00    +0.000 NA
ATOM      4  C   UNL     1       1.340   2.710  19.411  0.00  0.00    +0.000 A 
ATOM      5  C   UNL     1       1.939   3.962  19.466  0.00  0.00    +0.000 A 
ATOM      6  N   UNL     1       1.511   5.209  19.848  0.00  0.00    +0.000 NA
ATOM      7  C   UNL     1       2.554   5.987  19.712  0.00  0.00    +0.000 A 
ATOM      8  N   UNL     1       2.591   7.289  20.051  0.00  0.00    +0.000 N 
ATOM      9  N   UNL     1       3.644   5.307  19.216  0.00  0.00    +0.000 N 
ATOM     10  C   UNL     1       3.267   3.993  19.079  0.00  0.00    +0.000 A 
ATOM     11  N   UNL     1       4.014   2.946  18.683  0.00  0.00    +0.000 NA
ATOM     12  H   UNL     1       3.374  -0.076  18.063  0.00  0.00    +0.000 HD
ATOM     13  H   UNL     1       4.802   0.856  17.775  0.00  0.00    +0.000 HD
ATOM     14  H   UNL     1       1.681   7.664  20.309  0.00  0.00    +0.000 HD
ATOM     15  H   UNL     1       3.111   7.941  19.475  0.00  0.00    +0.000 HD
ENDROOT
BRANCH   4  16
ATOM     16  O   UNL     1       0.038   2.473  19.750  0.00  0.00    +0.000 OA
ATOM     17  H   UNL     1      -0.154   1.691  19.204  0.00  0.00    +0.000 HD
ENDBRANCH   4  16
BRANCH   9  18
ATOM     18  C   UNL     1       5.001   5.803  19.072  0.00  0.00    +0.000 C 
BRANCH  18  19
ATOM     19  C   UNL     1       5.536   5.646  17.676  0.00  0.00    +0.000 A 
ATOM     20  C   UNL     1       4.892   6.131  16.484  0.00  0.00    +0.000 A 
ATOM     21  C   UNL     1       5.554   5.771  15.330  0.00  0.00    +0.000 A 
ATOM     22  S   UNL     1       6.964   4.867  15.660  0.00  0.00    +0.000 S 
ATOM     23  C   UNL     1       6.684   4.944  17.346  0.00  0.00    +0.000 A 
ENDBRANCH  18  19
ENDBRANCH   9  18
TORSDOF 3
ENDMDL
MODEL 5
REMARK VINA RESULT:      -6.7      2.002      2.238
REMARK  Name = 
REMARK  3 active torsions:
REMARK  status: ('A' for Active; 'I' for Inactive)
REMARK    1  A    between atoms: C_4  and  O_5
REMARK    2  A    between atoms: N_10  and  C_11
REMARK    3  A    between atoms: C_11  and  C_12
REMARK                            x       y       z     vdW  Elec       q    Type
REMARK                         _______ _______ _______ _____ _____    ______ ____
ROOT
ATOM      1  N   UNL     1       5.209   1.444  20.482  0.00  0.00    +0.000 N 
ATOM      2  C   UNL     1       4.370   2.492  20.161  0.00  0.00    +0.000 A 
ATOM      3  N   UNL     1       3.116   2.404  20.636  0.00  0.00    +0.000 NA
ATOM      4  C   UNL     1       2.277   3.422  20.376  0.00  0.00    +0.000 A 
ATOM      5  C   UNL     1       2.691   4.522  19.636  0.00  0.00    +0.000 A 
ATOM      6  N   UNL     1       2.093   5.700  19.261  0.00  0.00    +0.000 NA
ATOM      7  C   UNL     1       3.011   6.357  18.600  0.00  0.00    +0.000 A 
ATOM      8  N   UNL     1       2.865   7.603  18.115  0.00  0.00    +0.000 N 
ATOM      9  N   UNL     1       4.182   5.638  18.492  0.00  0.00    +0.000 N 
ATOM     10  C   UNL     1       3.996   4.465  19.180  0.00  0.00    +0.000 A 
ATOM     11  N   UNL     1       4.881   3.474  19.398  0.00  0.00    +0.000 NA
ATOM     12  H   UNL     1       4.674   0.619  20.712  0.00  0.00    +0.000 HD
ATOM     13  H   UNL     1       5.950   1.352  19.803  0.00  0.00    +0.000 HD
ATOM     14  H   UNL     1       1.914   7.957  18.192  0.00  0.00    +0.000 HD
ATOM     15  H   UNL     1       3.279   7.843  17.221  0.00  0.00    +0.000 HD
ENDROOT
BRANCH   4  16
ATOM     16  O   UNL     1       1.028   3.290  20.910  0.00  0.00    +0.000 OA
ATOM     17  H   UNL     1       1.110   2.430  21.358  0.00  0.00    +0.000 HD
ENDBRANCH   4  16
BRANCH   9  18
ATOM     18  C   UNL     1       5.451   6.100  17.959  0.00  0.00    +0.000 C 
BRANCH  18  19
ATOM     19  C   UNL     1       5.821   5.428  16.666  0.00  0.00    +0.000 A 
ATOM     20  C   UNL     1       7.146   5.390  16.104  0.00  0.00    +0.000 A 
ATOM     21  C   UNL     1       7.187   4.786  14.866  0.00  0.00    +0.000 A 
ATOM     22  S   UNL     1       5.646   4.240  14.371  0.00  0.00    +0.000 S 
ATOM     23  C   UNL     1       4.920   4.821  15.806  0.00  0.00    +0.000 A 
ENDBRANCH  18  19
ENDBRANCH   9  18
TORSDOF 3
ENDMDL
MODEL 6
REMARK VINA RESULT:      -6.6      3.496      5.543
REMARK  Name = 
REMARK  3 active torsions:
REMARK  status: ('A' for Active; 'I' for Inactive)
REMARK    1  A    between atoms: C_4  and  O_5
REMARK    2  A    between atoms: N_10  and  C_11
REMARK    3  A    between atoms: C_11  and  C_12
REMARK                            x       y       z     vdW  Elec       q    Type
REMARK                         _______ _______ _______ _____ _____    ______ ____
ROOT
ATOM      1  N   UNL     1       7.810   8.470  17.146  0.00  0.00    +0.000 N 
ATOM      2  C   UNL     1       7.316   7.370  17.819  0.00  0.00    +0.000 A 
ATOM      3  N   UNL     1       8.176   6.759  18.652  0.00  0.00    +0.000 NA
ATOM      4  C   UNL     1       7.722   5.706  19.354  0.00  0.00    +0.000 A 
ATOM      5  C   UNL     1       6.413   5.261  19.217  0.00  0.00    +0.000 A 
ATOM      6  N   UNL     1       5.673   4.272  19.816  0.00  0.00    +0.000 NA
ATOM      7  C   UNL     1       4.480   4.368  19.289  0.00  0.00    +0.000 A 
ATOM      8  N   UNL     1       3.418   3.627  19.653  0.00  0.00    +0.000 N 
ATOM      9  N   UNL     1       4.416   5.359  18.335  0.00  0.00    +0.000 N 
ATOM     10  C   UNL     1       5.650   5.961  18.298  0.00  0.00    +0.000 A 
ATOM     11  N   UNL     1       6.045   7.015  17.561  0.00  0.00    +0.000 NA
ATOM     12  H   UNL     1       8.819   8.437  17.105  0.00  0.00    +0.000 HD
ATOM     13  H   UNL     1       7.308   8.624  16.285  0.00  0.00    +0.000 HD
ATOM     14  H   UNL     1       3.652   2.876  20.298  0.00  0.00    +0.000 HD
ATOM     15  H   UNL     1       2.758   3.317  18.947  0.00  0.00    +0.000 HD
ENDROOT
BRANCH   4  16
ATOM     16  O   UNL     1       8.631   5.146  20.205  0.00  0.00    +0.000 OA
ATOM     17  H   UNL     1       8.690   5.836  20.889  0.00  0.00    +0.000 HD
ENDBRANCH   4  16
BRANCH   9  18
ATOM     18  C   UNL     1       3.232   5.847  17.650  0.00  0.00    +0.000 C 
BRANCH  18  19
ATOM     19  C   UNL     1       2.619   7.044  18.322  0.00  0.00    +0.000 A 
ATOM     20  C   UNL     1       2.233   7.107  19.706  0.00  0.00    +0.000 A 
ATOM     21  C   UNL     1       1.613   8.292  20.038  0.00  0.00    +0.000 A 
ATOM     22  S   UNL     1       1.504   9.350  18.703  0.00  0.00    +0.000 S 
ATOM     23  C   UNL     1       2.274   8.220  17.676  0.00  0.00    +0.000 A 
ENDBRANCH  18  19
ENDBRANCH   9  18
TORSDOF 3
ENDMDL
MODEL 7
REMARK VINA RESULT:      -6.6      3.340      5.208
REMARK  Name = 
REMARK  3 active torsions:
REMARK  status: ('A' for Active; 'I' for Inactive)
REMARK    1  A    between atoms: C_4  and  O_5
REMARK    2  A    between atoms: N_10  and  C_11
REMARK    3  A    between atoms: C_11  and  C_12
REMARK                            x       y       z     vdW  Elec       q    Type
REMARK                         _______ _______ _______ _____ _____    ______ ____
ROOT
ATOM      1  N   UNL     1       7.833   7.329  17.016  0.00  0.00    +0.000 N 
ATOM      2  C   UNL     1       6.841   6.379  16.875  0.00  0.00    +0.000 A 
ATOM      3  N   UNL     1       7.021   5.487  15.886  0.00  0.00    +0.000 NA
ATOM      4  C   UNL     1       6.096   4.523  15.739  0.00  0.00    +0.000 A 
ATOM      5  C   UNL     1       4.989   4.456  16.576  0.00  0.00    +0.000 A 
ATOM      6  N   UNL     1       3.933   3.587  16.695  0.00  0.00    +0.000 NA
ATOM      7  C   UNL     1       3.230   4.035  17.703  0.00  0.00    +0.000 A 
ATOM      8  N   UNL     1       2.140   3.430  18.208  0.00  0.00    +0.000 N 
ATOM      9  N   UNL     1       3.762   5.192  18.228  0.00  0.00    +0.000 N 
ATOM     10  C   UNL     1       4.912   5.459  17.527  0.00  0.00    +0.000 A 
ATOM     11  N   UNL     1       5.798   6.453  17.720  0.00  0.00    +0.000 NA
ATOM     12  H   UNL     1       8.350   7.432  16.154  0.00  0.00    +0.000 HD
ATOM     13  H   UNL     1       7.475   8.164  17.455  0.00  0.00    +0.000 HD
ATOM     14  H   UNL     1       1.820   2.641  17.650  0.00  0.00    +0.000 HD
ATOM     15  H   UNL     1       1.362   3.992  18.535  0.00  0.00    +0.000 HD
ENDROOT
BRANCH   4  16
ATOM     16  O   UNL     1       6.349   3.629  14.738  0.00  0.00    +0.000 OA
ATOM     17  H   UNL     1       6.498   4.231  13.989  0.00  0.00    +0.000 HD
ENDBRANCH   4  16
BRANCH   9  18
ATOM     18  C   UNL     1       3.339   5.888  19.431  0.00  0.00    +0.000 C 
BRANCH  18  19
ATOM     19  C   UNL     1       2.547   7.132  19.139  0.00  0.00    +0.000 A 
ATOM     20  C   UNL     1       2.495   7.798  17.864  0.00  0.00    +0.000 A 
ATOM     21  C   UNL     1       1.766   8.967  17.899  0.00  0.00    +0.000 A 
ATOM     22  S   UNL     1       1.119   9.270  19.449  0.00  0.00    +0.000 S 
ATOM     23  C   UNL     1       1.824   7.845  20.080  0.00  0.00    +0.000 A 
ENDBRANCH  18  19
ENDBRANCH   9  18
TORSDOF 3
ENDMDL
MODEL 8
REMARK VINA RESULT:      -6.6      3.433      4.942
REMARK  Name = 
REMARK  3 active torsions:
REMARK  status: ('A' for Active; 'I' for Inactive)
REMARK    1  A    between atoms: C_4  and  O_5
REMARK    2  A    between atoms: N_10  and  C_11
REMARK    3  A    between atoms: C_11  and  C_12
REMARK                            x       y       z     vdW  Elec       q    Type
REMARK                         _______ _______ _______ _____ _____    ______ ____
ROOT
ATOM      1  N   UNL     1       8.084   5.693  19.792  0.00  0.00    +0.000 N 
ATOM      2  C   UNL     1       7.009   5.302  19.019  0.00  0.00    +0.000 A 
ATOM      3  N   UNL     1       7.312   4.644  17.887  0.00  0.00    +0.000 NA
ATOM      4  C   UNL     1       6.291   4.214  17.124  0.00  0.00    +0.000 A 
ATOM      5  C   UNL     1       4.972   4.448  17.490  0.00  0.00    +0.000 A 
ATOM      6  N   UNL     1       3.757   4.101  16.954  0.00  0.00    +0.000 NA
ATOM      7  C   UNL     1       2.865   4.583  17.781  0.00  0.00    +0.000 A 
ATOM      8  N   UNL     1       1.537   4.404  17.669  0.00  0.00    +0.000 N 
ATOM      9  N   UNL     1       3.448   5.271  18.823  0.00  0.00    +0.000 N 
ATOM     10  C   UNL     1       4.807   5.168  18.661  0.00  0.00    +0.000 A 
ATOM     11  N   UNL     1       5.784   5.631  19.463  0.00  0.00    +0.000 NA
ATOM     12  H   UNL     1       8.923   5.745  19.233  0.00  0.00    +0.000 HD
ATOM     13  H   UNL     1       7.848   6.489  20.365  0.00  0.00    +0.000 HD
ATOM     14  H   UNL     1       1.262   3.959  16.796  0.00  0.00    +0.000 HD
ATOM     15  H   UNL     1       0.907   5.160  17.914  0.00  0.00    +0.000 HD
ENDROOT
BRANCH   4  16
ATOM     16  O   UNL     1       6.661   3.526  16.003  0.00  0.00    +0.000 OA
ATOM     17  H   UNL     1       7.424   4.053  15.709  0.00  0.00    +0.000 HD
ENDBRANCH   4  16
BRANCH   9  18
ATOM     18  C   UNL     1       2.788   5.813  19.998  0.00  0.00    +0.000 C 
BRANCH  18  19
ATOM     19  C   UNL     1       2.162   7.157  19.749  0.00  0.00    +0.000 A 
ATOM     20  C   UNL     1       2.304   7.923  18.539  0.00  0.00    +0.000 A 
ATOM     21  C   UNL     1       1.699   9.160  18.612  0.00  0.00    +0.000 A 
ATOM     22  S   UNL     1       0.937   9.409  20.120  0.00  0.00    +0.000 S 
ATOM     23  C   UNL     1       1.426   7.869  20.682  0.00  0.00    +0.000 A 
ENDBRANCH  18  19
ENDBRANCH   9  18
TORSDOF 3
ENDMDL
MODEL 9
REMARK VINA RESULT:      -6.6      1.156      1.202
REMARK  Name = 
REMARK  3 active torsions:
REMARK  status: ('A' for Active; 'I' for Inactive)
REMARK    1  A    between atoms: C_4  and  O_5
REMARK    2  A    between atoms: N_10  and  C_11
REMARK    3  A    between atoms: C_11  and  C_12
REMARK                            x       y       z     vdW  Elec       q    Type
REMARK                         _______ _______ _______ _____ _____    ______ ____
ROOT
ATOM      1  N   UNL     1       3.852   0.861  18.354  0.00  0.00    +0.000 N 
ATOM      2  C   UNL     1       3.320   1.973  18.976  0.00  0.00    +0.000 A 
ATOM      3  N   UNL     1       2.669   1.744  20.129  0.00  0.00    +0.000 NA
ATOM      4  C   UNL     1       2.168   2.806  20.784  0.00  0.00    +0.000 A 
ATOM      5  C   UNL     1       2.312   4.093  20.283  0.00  0.00    +0.000 A 
ATOM      6  N   UNL     1       1.959   5.339  20.737  0.00  0.00    +0.000 NA
ATOM      7  C   UNL     1       2.403   6.174  19.832  0.00  0.00    +0.000 A 
ATOM      8  N   UNL     1       2.332   7.514  19.922  0.00  0.00    +0.000 N 
ATOM      9  N   UNL     1       3.001   5.520  18.777  0.00  0.00    +0.000 N 
ATOM     10  C   UNL     1       2.972   4.179  19.069  0.00  0.00    +0.000 A 
ATOM     11  N   UNL     1       3.489   3.157  18.361  0.00  0.00    +0.000 NA
ATOM     12  H   UNL     1       3.377   0.023  18.660  0.00  0.00    +0.000 HD
ATOM     13  H   UNL     1       3.951   1.013  17.361  0.00  0.00    +0.000 HD
ATOM     14  H   UNL     1       1.777   7.836  20.712  0.00  0.00    +0.000 HD
ATOM     15  H   UNL     1       2.147   8.063  19.090  0.00  0.00    +0.000 HD
ENDROOT
BRANCH   4  16
ATOM     16  O   UNL     1       1.545   2.513  21.963  0.00  0.00    +0.000 OA
ATOM     17  H   UNL     1       1.988   1.680  22.202  0.00  0.00    +0.000 HD
ENDBRANCH   4  16
BRANCH   9  18
ATOM     18  C   UNL     1       3.729   6.116  17.671  0.00  0.00    +0.000 C 
BRANCH  18  19
ATOM     19  C   UNL     1       5.204   6.230  17.936  0.00  0.00    +0.000 A 
ATOM     20  C   UNL     1       6.127   7.007  17.151  0.00  0.00    +0.000 A 
ATOM     21  C   UNL     1       7.435   6.862  17.560  0.00  0.00    +0.000 A 
ATOM     22  S   UNL     1       7.572   5.812  18.900  0.00  0.00    +0.000 S 
ATOM     23  C   UNL     1       5.883   5.539  18.926  0.00  0.00    +0.000 A 
ENDBRANCH  18  19
ENDBRANCH   9  18
TORSDOF 3
ENDMDL
