MODEL 1
REMARK VINA RESULT:      -6.6      0.000      0.000
REMARK  Name = 
REMARK  6 active torsions:
REMARK  status: ('A' for Active; 'I' for Inactive)
REMARK    1  A    between atoms: C_1  and  C_2
REMARK    2  A    between atoms: C_2  and  C_3
REMARK    3  A    between atoms: C_11  and  N_12
REMARK    4  A    between atoms: C_13  and  C_14
REMARK    5  A    between atoms: N_19  and  C_20
REMARK    6  A    between atoms: C_20  and  N_21
REMARK                            x       y       z     vdW  Elec       q    Type
REMARK                         _______ _______ _______ _____ _____    ______ ____
ROOT
ATOM      1  C   UNL     1      -7.548  12.882  19.796  0.00  0.00    +0.000 C 
ATOM      2  C   UNL     1      -6.155  13.234  20.343  0.00  0.00    +0.000 C 
ATOM      3  C   UNL     1      -6.000  14.771  20.278  0.00  0.00    +0.000 C 
ATOM      4  C   UNL     1      -5.086  12.538  19.480  0.00  0.00    +0.000 C 
ATOM      5  C   UNL     1      -3.703  12.495  20.103  0.00  0.00    +0.000 C 
ATOM      6  O   UNL     1      -2.737  12.121  19.440  0.00  0.00    +0.000 OA
ATOM      7  C   UNL     1      -3.529  12.886  21.528  0.00  0.00    +0.000 C 
ATOM      8  C   UNL     1      -4.626  12.968  22.300  0.00  0.00    +0.000 C 
ATOM      9  C   UNL     1      -6.022  12.739  21.796  0.00  0.00    +0.000 C 
ATOM     10  O   UNL     1      -4.566  13.438  23.599  0.00  0.00    +0.000 OA
ATOM     11  C   UNL     1      -3.451  14.153  24.017  0.00  0.00    +0.000 C 
ATOM     12  C   UNL     1      -2.297  14.138  23.306  0.00  0.00    +0.000 C 
ATOM     13  C   UNL     1      -2.174  13.323  22.038  0.00  0.00    +0.000 C 
ATOM     14  C   UNL     1      -1.571  14.287  20.992  0.00  0.00    +0.000 C 
ATOM     15  O   UNL     1      -2.116  15.287  20.556  0.00  0.00    +0.000 OA
ATOM     16  N   UNL     1      -0.307  13.796  20.645  0.00  0.00    +0.000 N 
ATOM     17  C   UNL     1      -0.083  12.534  21.231  0.00  0.00    +0.000 A 
ATOM     18  C   UNL     1       0.939  11.636  21.003  0.00  0.00    +0.000 A 
ATOM     19  C   UNL     1       0.879  10.379  21.630  0.00  0.00    +0.000 A 
ATOM     20  C   UNL     1      -0.184  10.056  22.490  0.00  0.00    +0.000 A 
ATOM     21  C   UNL     1      -1.204  10.976  22.735  0.00  0.00    +0.000 A 
ATOM     22  C   UNL     1      -1.151  12.208  22.085  0.00  0.00    +0.000 A 
ENDROOT
BRANCH  11  23
ATOM     23  N   UNL     1      -3.671  14.828  25.192  0.00  0.00    +0.000 N 
ATOM     24  H   UNL     1      -4.593  15.254  25.236  0.00  0.00    +0.000 HD
ATOM     25  H   UNL     1      -3.397  14.360  26.053  0.00  0.00    +0.000 HD
ENDBRANCH  11  23
BRANCH  12  26
ATOM     26  C   UNL     1      -1.127  14.920  23.880  0.00  0.00    +0.000 C 
ATOM     27  N   UNL     1      -0.156  15.568  24.356  0.00  0.00    +0.000 NA
ENDBRANCH  12  26
BRANCH  16  28
ATOM     28  C   UNL     1       0.471  14.409  19.596  0.00  0.00    +0.000 C 
BRANCH  28  29
ATOM     29  N   UNL     1       1.702  14.994  20.138  0.00  0.00    +0.000 NA
ATOM     30  C   UNL     1       1.537  16.340  20.741  0.00  0.00    +0.000 C 
ATOM     31  C   UNL     1       1.391  17.504  19.742  0.00  0.00    +0.000 C 
ATOM     32  O   UNL     1       2.474  17.532  18.805  0.00  0.00    +0.000 OA
ATOM     33  C   UNL     1       2.615  16.283  18.127  0.00  0.00    +0.000 C 
ATOM     34  C   UNL     1       2.755  15.100  19.104  0.00  0.00    +0.000 C 
ENDBRANCH  28  29
ENDBRANCH  16  28
TORSDOF 4
ENDMDL
MODEL 2
REMARK VINA RESULT:      -6.1      2.326      6.587
REMARK  Name = 
REMARK  6 active torsions:
REMARK  status: ('A' for Active; 'I' for Inactive)
REMARK    1  A    between atoms: C_1  and  C_2
REMARK    2  A    between atoms: C_2  and  C_3
REMARK    3  A    between atoms: C_11  and  N_12
REMARK    4  A    between atoms: C_13  and  C_14
REMARK    5  A    between atoms: N_19  and  C_20
REMARK    6  A    between atoms: C_20  and  N_21
REMARK                            x       y       z     vdW  Elec       q    Type
REMARK                         _______ _______ _______ _____ _____    ______ ____
ROOT
ATOM      1  C   UNL     1       1.066   9.228  17.832  0.00  0.00    +0.000 C 
ATOM      2  C   UNL     1       0.960  10.461  18.743  0.00  0.00    +0.000 C 
ATOM      3  C   UNL     1       1.273  10.006  20.188  0.00  0.00    +0.000 C 
ATOM      4  C   UNL     1      -0.465  11.037  18.647  0.00  0.00    +0.000 C 
ATOM      5  C   UNL     1      -0.616  12.443  19.198  0.00  0.00    +0.000 C 
ATOM      6  O   UNL     1      -1.733  12.939  19.331  0.00  0.00    +0.000 OA
ATOM      7  C   UNL     1       0.600  13.225  19.552  0.00  0.00    +0.000 C 
ATOM      8  C   UNL     1       1.787  12.792  19.094  0.00  0.00    +0.000 C 
ATOM      9  C   UNL     1       1.964  11.538  18.288  0.00  0.00    +0.000 C 
ATOM     10  O   UNL     1       2.974  13.391  19.474  0.00  0.00    +0.000 OA
ATOM     11  C   UNL     1       2.997  14.215  20.591  0.00  0.00    +0.000 C 
ATOM     12  C   UNL     1       1.854  14.701  21.132  0.00  0.00    +0.000 C 
ATOM     13  C   UNL     1       0.506  14.379  20.525  0.00  0.00    +0.000 C 
ATOM     14  C   UNL     1      -0.374  13.921  21.708  0.00  0.00    +0.000 C 
ATOM     15  O   UNL     1      -0.193  12.918  22.378  0.00  0.00    +0.000 OA
ATOM     16  N   UNL     1      -1.404  14.857  21.856  0.00  0.00    +0.000 N 
ATOM     17  C   UNL     1      -1.384  15.792  20.801  0.00  0.00    +0.000 A 
ATOM     18  C   UNL     1      -2.317  16.754  20.470  0.00  0.00    +0.000 A 
ATOM     19  C   UNL     1      -2.126  17.494  19.290  0.00  0.00    +0.000 A 
ATOM     20  C   UNL     1      -0.998  17.278  18.480  0.00  0.00    +0.000 A 
ATOM     21  C   UNL     1      -0.046  16.319  18.831  0.00  0.00    +0.000 A 
ATOM     22  C   UNL     1      -0.260  15.569  19.987  0.00  0.00    +0.000 A 
ENDROOT
BRANCH  11  23
ATOM     23  N   UNL     1       4.273  14.462  21.035  0.00  0.00    +0.000 N 
ATOM     24  H   UNL     1       4.334  15.290  21.622  0.00  0.00    +0.000 HD
ATOM     25  H   UNL     1       4.799  13.668  21.394  0.00  0.00    +0.000 HD
ENDBRANCH  11  23
BRANCH  12  26
ATOM     26  C   UNL     1       1.999  15.631  22.326  0.00  0.00    +0.000 C 
ATOM     27  N   UNL     1       2.120  16.401  23.316  0.00  0.00    +0.000 NA
ENDBRANCH  12  26
BRANCH  16  28
ATOM     28  C   UNL     1      -2.471  14.654  22.805  0.00  0.00    +0.000 C 
BRANCH  28  29
ATOM     29  N   UNL     1      -3.459  13.706  22.281  0.00  0.00    +0.000 NA
ATOM     30  C   UNL     1      -4.837  14.244  22.168  0.00  0.00    +0.000 C 
ATOM     31  C   UNL     1      -5.616  14.364  23.491  0.00  0.00    +0.000 C 
ATOM     32  O   UNL     1      -5.648  13.119  24.198  0.00  0.00    +0.000 OA
ATOM     33  C   UNL     1      -4.333  12.603  24.416  0.00  0.00    +0.000 C 
ATOM     34  C   UNL     1      -3.530  12.481  23.108  0.00  0.00    +0.000 C 
ENDBRANCH  28  29
ENDBRANCH  16  28
TORSDOF 4
ENDMDL
MODEL 3
REMARK VINA RESULT:      -6.1      2.311      4.328
REMARK  Name = 
REMARK  6 active torsions:
REMARK  status: ('A' for Active; 'I' for Inactive)
REMARK    1  A    between atoms: C_1  and  C_2
REMARK    2  A    between atoms: C_2  and  C_3
REMARK    3  A    between atoms: C_11  and  N_12
REMARK    4  A    between atoms: C_13  and  C_14
REMARK    5  A    between atoms: N_19  and  C_20
REMARK    6  A    between atoms: C_20  and  N_21
REMARK                            x       y       z     vdW  Elec       q    Type
REMARK                         _______ _______ _______ _____ _____    ______ ____
ROOT
ATOM      1  C   UNL     1      -6.725  15.027  23.864  0.00  0.00    +0.000 C 
ATOM      2  C   UNL     1      -5.376  14.723  23.192  0.00  0.00    +0.000 C 
ATOM      3  C   UNL     1      -5.102  15.843  22.162  0.00  0.00    +0.000 C 
ATOM      4  C   UNL     1      -5.456  13.350  22.501  0.00  0.00    +0.000 C 
ATOM      5  C   UNL     1      -4.113  12.760  22.112  0.00  0.00    +0.000 C 
ATOM      6  O   UNL     1      -4.059  11.755  21.406  0.00  0.00    +0.000 OA
ATOM      7  C   UNL     1      -2.863  13.393  22.614  0.00  0.00    +0.000 C 
ATOM      8  C   UNL     1      -2.959  14.268  23.629  0.00  0.00    +0.000 C 
ATOM      9  C   UNL     1      -4.260  14.682  24.254  0.00  0.00    +0.000 C 
ATOM     10  O   UNL     1      -1.865  14.987  24.073  0.00  0.00    +0.000 OA
ATOM     11  C   UNL     1      -0.737  15.083  23.269  0.00  0.00    +0.000 C 
ATOM     12  C   UNL     1      -0.548  14.250  22.218  0.00  0.00    +0.000 C 
ATOM     13  C   UNL     1      -1.553  13.166  21.891  0.00  0.00    +0.000 C 
ATOM     14  C   UNL     1      -1.824  13.307  20.377  0.00  0.00    +0.000 C 
ATOM     15  O   UNL     1      -2.355  14.265  19.840  0.00  0.00    +0.000 OA
ATOM     16  N   UNL     1      -1.360  12.142  19.755  0.00  0.00    +0.000 N 
ATOM     17  C   UNL     1      -0.957  11.191  20.714  0.00  0.00    +0.000 A 
ATOM     18  C   UNL     1      -0.614   9.866  20.538  0.00  0.00    +0.000 A 
ATOM     19  C   UNL     1      -0.360   9.082  21.677  0.00  0.00    +0.000 A 
ATOM     20  C   UNL     1      -0.426   9.642  22.964  0.00  0.00    +0.000 A 
ATOM     21  C   UNL     1      -0.752  10.989  23.136  0.00  0.00    +0.000 A 
ATOM     22  C   UNL     1      -1.032  11.749  22.002  0.00  0.00    +0.000 A 
ENDROOT
BRANCH  11  23
ATOM     23  N   UNL     1       0.116  16.079  23.678  0.00  0.00    +0.000 N 
ATOM     24  H   UNL     1       1.036  16.011  23.251  0.00  0.00    +0.000 HD
ATOM     25  H   UNL     1      -0.255  17.026  23.697  0.00  0.00    +0.000 HD
ENDBRANCH  11  23
BRANCH  12  26
ATOM     26  C   UNL     1       0.744  14.414  21.434  0.00  0.00    +0.000 C 
ATOM     27  N   UNL     1       1.815  14.550  20.783  0.00  0.00    +0.000 NA
ENDBRANCH  12  26
BRANCH  16  28
ATOM     28  C   UNL     1      -1.573  11.909  18.348  0.00  0.00    +0.000 C 
BRANCH  28  29
ATOM     29  N   UNL     1      -2.411  10.723  18.140  0.00  0.00    +0.000 NA
ATOM     30  C   UNL     1      -2.135   9.981  16.885  0.00  0.00    +0.000 C 
ATOM     31  C   UNL     1      -2.680  10.625  15.596  0.00  0.00    +0.000 C 
ATOM     32  O   UNL     1      -4.084  10.890  15.693  0.00  0.00    +0.000 OA
ATOM     33  C   UNL     1      -4.391  11.685  16.840  0.00  0.00    +0.000 C 
ATOM     34  C   UNL     1      -3.850  11.067  18.142  0.00  0.00    +0.000 C 
ENDBRANCH  28  29
ENDBRANCH  16  28
TORSDOF 4
ENDMDL
MODEL 4
REMARK VINA RESULT:      -5.9      2.119      6.463
REMARK  Name = 
REMARK  6 active torsions:
REMARK  status: ('A' for Active; 'I' for Inactive)
REMARK    1  A    between atoms: C_1  and  C_2
REMARK    2  A    between atoms: C_2  and  C_3
REMARK    3  A    between atoms: C_11  and  N_12
REMARK    4  A    between atoms: C_13  and  C_14
REMARK    5  A    between atoms: N_19  and  C_20
REMARK    6  A    between atoms: C_20  and  N_21
REMARK                            x       y       z     vdW  Elec       q    Type
REMARK                         _______ _______ _______ _____ _____    ______ ____
ROOT
ATOM      1  C   UNL     1       3.691  15.840  18.417  0.00  0.00    +0.000 C 
ATOM      2  C   UNL     1       2.390  15.141  18.844  0.00  0.00    +0.000 C 
ATOM      3  C   UNL     1       1.225  16.127  18.596  0.00  0.00    +0.000 C 
ATOM      4  C   UNL     1       2.486  14.769  20.335  0.00  0.00    +0.000 C 
ATOM      5  C   UNL     1       1.446  13.767  20.802  0.00  0.00    +0.000 C 
ATOM      6  O   UNL     1       1.315  13.525  22.001  0.00  0.00    +0.000 OA
ATOM      7  C   UNL     1       0.604  13.062  19.797  0.00  0.00    +0.000 C 
ATOM      8  C   UNL     1       0.990  13.100  18.510  0.00  0.00    +0.000 C 
ATOM      9  C   UNL     1       2.193  13.854  18.020  0.00  0.00    +0.000 C 
ATOM     10  O   UNL     1       0.204  12.575  17.502  0.00  0.00    +0.000 OA
ATOM     11  C   UNL     1      -1.138  12.313  17.746  0.00  0.00    +0.000 C 
ATOM     12  C   UNL     1      -1.626  12.257  19.008  0.00  0.00    +0.000 C 
ATOM     13  C   UNL     1      -0.722  12.459  20.204  0.00  0.00    +0.000 C 
ATOM     14  C   UNL     1      -1.450  13.489  21.095  0.00  0.00    +0.000 C 
ATOM     15  O   UNL     1      -1.675  14.650  20.795  0.00  0.00    +0.000 OA
ATOM     16  N   UNL     1      -1.787  12.848  22.293  0.00  0.00    +0.000 N 
ATOM     17  C   UNL     1      -1.222  11.557  22.344  0.00  0.00    +0.000 A 
ATOM     18  C   UNL     1      -1.157  10.676  23.404  0.00  0.00    +0.000 A 
ATOM     19  C   UNL     1      -0.429   9.484  23.239  0.00  0.00    +0.000 A 
ATOM     20  C   UNL     1       0.194   9.185  22.016  0.00  0.00    +0.000 A 
ATOM     21  C   UNL     1       0.106  10.070  20.940  0.00  0.00    +0.000 A 
ATOM     22  C   UNL     1      -0.592  11.263  21.123  0.00  0.00    +0.000 A 
ENDROOT
BRANCH  11  23
ATOM     23  N   UNL     1      -1.853  12.118  16.590  0.00  0.00    +0.000 N 
ATOM     24  H   UNL     1      -2.159  11.155  16.472  0.00  0.00    +0.000 HD
ATOM     25  H   UNL     1      -2.571  12.803  16.369  0.00  0.00    +0.000 HD
ENDBRANCH  11  23
BRANCH  12  26
ATOM     26  C   UNL     1      -3.100  11.919  19.160  0.00  0.00    +0.000 C 
ATOM     27  N   UNL     1      -4.323  11.637  19.286  0.00  0.00    +0.000 NA
ENDBRANCH  12  26
BRANCH  16  28
ATOM     28  C   UNL     1      -2.376  13.575  23.391  0.00  0.00    +0.000 C 
BRANCH  28  29
ATOM     29  N   UNL     1      -3.733  13.092  23.664  0.00  0.00    +0.000 NA
ATOM     30  C   UNL     1      -4.575  12.890  22.458  0.00  0.00    +0.000 C 
ATOM     31  C   UNL     1      -5.133  14.172  21.812  0.00  0.00    +0.000 C 
ATOM     32  O   UNL     1      -5.846  14.973  22.762  0.00  0.00    +0.000 OA
ATOM     33  C   UNL     1      -5.042  15.276  23.904  0.00  0.00    +0.000 C 
ATOM     34  C   UNL     1      -4.466  14.010  24.564  0.00  0.00    +0.000 C 
ENDBRANCH  28  29
ENDBRANCH  16  28
TORSDOF 4
ENDMDL
MODEL 5
REMARK VINA RESULT:      -5.8      2.393      6.400
REMARK  Name = 
REMARK  6 active torsions:
REMARK  status: ('A' for Active; 'I' for Inactive)
REMARK    1  A    between atoms: C_1  and  C_2
REMARK    2  A    between atoms: C_2  and  C_3
REMARK    3  A    between atoms: C_11  and  N_12
REMARK    4  A    between atoms: C_13  and  C_14
REMARK    5  A    between atoms: N_19  and  C_20
REMARK    6  A    between atoms: C_20  and  N_21
REMARK                            x       y       z     vdW  Elec       q    Type
REMARK                         _______ _______ _______ _____ _____    ______ ____
ROOT
ATOM      1  C   UNL     1       2.232  13.022  18.102  0.00  0.00    +0.000 C 
ATOM      2  C   UNL     1       1.042  13.110  19.072  0.00  0.00    +0.000 C 
ATOM      3  C   UNL     1      -0.098  12.240  18.495  0.00  0.00    +0.000 C 
ATOM      4  C   UNL     1       0.602  14.580  19.196  0.00  0.00    +0.000 C 
ATOM      5  C   UNL     1      -0.309  14.868  20.375  0.00  0.00    +0.000 C 
ATOM      6  O   UNL     1      -0.861  15.962  20.479  0.00  0.00    +0.000 OA
ATOM      7  C   UNL     1      -0.510  13.824  21.417  0.00  0.00    +0.000 C 
ATOM      8  C   UNL     1       0.345  12.789  21.449  0.00  0.00    +0.000 C 
ATOM      9  C   UNL     1       1.462  12.596  20.463  0.00  0.00    +0.000 C 
ATOM     10  O   UNL     1       0.159  11.720  22.306  0.00  0.00    +0.000 OA
ATOM     11  C   UNL     1      -1.082  11.525  22.897  0.00  0.00    +0.000 C 
ATOM     12  C   UNL     1      -2.016  12.506  22.914  0.00  0.00    +0.000 C 
ATOM     13  C   UNL     1      -1.733  13.862  22.306  0.00  0.00    +0.000 C 
ATOM     14  C   UNL     1      -2.953  14.168  21.409  0.00  0.00    +0.000 C 
ATOM     15  O   UNL     1      -3.270  13.544  20.410  0.00  0.00    +0.000 OA
ATOM     16  N   UNL     1      -3.606  15.282  21.949  0.00  0.00    +0.000 N 
ATOM     17  C   UNL     1      -2.859  15.832  23.011  0.00  0.00    +0.000 A 
ATOM     18  C   UNL     1      -3.048  17.020  23.685  0.00  0.00    +0.000 A 
ATOM     19  C   UNL     1      -2.090  17.410  24.637  0.00  0.00    +0.000 A 
ATOM     20  C   UNL     1      -0.979  16.595  24.914  0.00  0.00    +0.000 A 
ATOM     21  C   UNL     1      -0.804  15.383  24.244  0.00  0.00    +0.000 A 
ATOM     22  C   UNL     1      -1.744  15.020  23.281  0.00  0.00    +0.000 A 
ENDROOT
BRANCH  11  23
ATOM     23  N   UNL     1      -1.213  10.270  23.440  0.00  0.00    +0.000 N 
ATOM     24  H   UNL     1      -2.166   9.917  23.393  0.00  0.00    +0.000 HD
ATOM     25  H   UNL     1      -0.510   9.580  23.185  0.00  0.00    +0.000 HD
ENDBRANCH  11  23
BRANCH  12  26
ATOM     26  C   UNL     1      -3.323  12.199  23.627  0.00  0.00    +0.000 C 
ATOM     27  N   UNL     1      -4.406  11.944  24.219  0.00  0.00    +0.000 NA
ENDBRANCH  12  26
BRANCH  16  28
ATOM     28  C   UNL     1      -4.723  15.895  21.273  0.00  0.00    +0.000 C 
BRANCH  28  29
ATOM     29  N   UNL     1      -5.957  15.720  22.046  0.00  0.00    +0.000 NA
ATOM     30  C   UNL     1      -6.204  14.334  22.516  0.00  0.00    +0.000 C 
ATOM     31  C   UNL     1      -6.704  13.347  21.444  0.00  0.00    +0.000 C 
ATOM     32  O   UNL     1      -7.872  13.839  20.779  0.00  0.00    +0.000 OA
ATOM     33  C   UNL     1      -7.654  15.138  20.224  0.00  0.00    +0.000 C 
ATOM     34  C   UNL     1      -7.146  16.143  21.274  0.00  0.00    +0.000 C 
ENDBRANCH  28  29
ENDBRANCH  16  28
TORSDOF 4
ENDMDL
MODEL 6
REMARK VINA RESULT:      -5.7      2.567      4.970
REMARK  Name = 
REMARK  6 active torsions:
REMARK  status: ('A' for Active; 'I' for Inactive)
REMARK    1  A    between atoms: C_1  and  C_2
REMARK    2  A    between atoms: C_2  and  C_3
REMARK    3  A    between atoms: C_11  and  N_12
REMARK    4  A    between atoms: C_13  and  C_14
REMARK    5  A    between atoms: N_19  and  C_20
REMARK    6  A    between atoms: C_20  and  N_21
REMARK                            x       y       z     vdW  Elec       q    Type
REMARK                         _______ _______ _______ _____ _____    ______ ____
ROOT
ATOM      1  C   UNL     1      -4.537  16.117  24.210  0.00  0.00    +0.000 C 
ATOM      2  C   UNL     1      -3.463  15.531  23.281  0.00  0.00    +0.000 C 
ATOM      3  C   UNL     1      -3.223  16.548  22.141  0.00  0.00    +0.000 C 
ATOM      4  C   UNL     1      -3.961  14.187  22.719  0.00  0.00    +0.000 C 
ATOM      5  C   UNL     1      -2.882  13.328  22.086  0.00  0.00    +0.000 C 
ATOM      6  O   UNL     1      -3.186  12.317  21.455  0.00  0.00    +0.000 OA
ATOM      7  C   UNL     1      -1.453  13.707  22.255  0.00  0.00    +0.000 C 
ATOM      8  C   UNL     1      -1.143  14.606  23.204  0.00  0.00    +0.000 C 
ATOM      9  C   UNL     1      -2.162  15.289  24.071  0.00  0.00    +0.000 C 
ATOM     10  O   UNL     1       0.140  15.099  23.346  0.00  0.00    +0.000 OA
ATOM     11  C   UNL     1       1.051  14.946  22.309  0.00  0.00    +0.000 C 
ATOM     12  C   UNL     1       0.829  14.068  21.301  0.00  0.00    +0.000 C 
ATOM     13  C   UNL     1      -0.412  13.203  21.279  0.00  0.00    +0.000 C 
ATOM     14  C   UNL     1      -0.992  13.361  19.856  0.00  0.00    +0.000 C 
ATOM     15  O   UNL     1      -1.438  14.394  19.384  0.00  0.00    +0.000 OA
ATOM     16  N   UNL     1      -0.915  12.112  19.228  0.00  0.00    +0.000 N 
ATOM     17  C   UNL     1      -0.492  11.121  20.138  0.00  0.00    +0.000 A 
ATOM     18  C   UNL     1      -0.460   9.751  19.981  0.00  0.00    +0.000 A 
ATOM     19  C   UNL     1      -0.106   8.958  21.087  0.00  0.00    +0.000 A 
ATOM     20  C   UNL     1       0.233   9.550  22.316  0.00  0.00    +0.000 A 
ATOM     21  C   UNL     1       0.220  10.937  22.463  0.00  0.00    +0.000 A 
ATOM     22  C   UNL     1      -0.162  11.713  21.369  0.00  0.00    +0.000 A 
ENDROOT
BRANCH  11  23
ATOM     23  N   UNL     1       2.149  15.758  22.451  0.00  0.00    +0.000 N 
ATOM     24  H   UNL     1       2.373  16.271  21.602  0.00  0.00    +0.000 HD
ATOM     25  H   UNL     1       2.200  16.324  23.294  0.00  0.00    +0.000 HD
ENDBRANCH  11  23
BRANCH  12  26
ATOM     26  C   UNL     1       1.913  13.949  20.242  0.00  0.00    +0.000 C 
ATOM     27  N   UNL     1       2.813  13.851  19.364  0.00  0.00    +0.000 NA
ENDBRANCH  12  26
BRANCH  16  28
ATOM     28  C   UNL     1      -1.486  11.895  17.922  0.00  0.00    +0.000 C 
BRANCH  28  29
ATOM     29  N   UNL     1      -2.399  10.748  17.939  0.00  0.00    +0.000 NA
ATOM     30  C   UNL     1      -2.307   9.862  16.752  0.00  0.00    +0.000 C 
ATOM     31  C   UNL     1      -2.964  10.400  15.467  0.00  0.00    +0.000 C 
ATOM     32  O   UNL     1      -4.333  10.759  15.686  0.00  0.00    +0.000 OA
ATOM     33  C   UNL     1      -4.467  11.688  16.764  0.00  0.00    +0.000 C 
ATOM     34  C   UNL     1      -3.810  11.177  18.060  0.00  0.00    +0.000 C 
ENDBRANCH  28  29
ENDBRANCH  16  28
TORSDOF 4
ENDMDL
MODEL 7
REMARK VINA RESULT:      -5.7      1.308      1.512
REMARK  Name = 
REMARK  6 active torsions:
REMARK  status: ('A' for Active; 'I' for Inactive)
REMARK    1  A    between atoms: C_1  and  C_2
REMARK    2  A    between atoms: C_2  and  C_3
REMARK    3  A    between atoms: C_11  and  N_12
REMARK    4  A    between atoms: C_13  and  C_14
REMARK    5  A    between atoms: N_19  and  C_20
REMARK    6  A    between atoms: C_20  and  N_21
REMARK                            x       y       z     vdW  Elec       q    Type
REMARK                         _______ _______ _______ _____ _____    ______ ____
ROOT
ATOM      1  C   UNL     1      -7.906  13.403  22.126  0.00  0.00    +0.000 C 
ATOM      2  C   UNL     1      -6.425  13.805  22.209  0.00  0.00    +0.000 C 
ATOM      3  C   UNL     1      -6.361  15.350  22.255  0.00  0.00    +0.000 C 
ATOM      4  C   UNL     1      -5.686  13.262  20.971  0.00  0.00    +0.000 C 
ATOM      5  C   UNL     1      -4.173  13.266  21.089  0.00  0.00    +0.000 C 
ATOM      6  O   UNL     1      -3.476  13.018  20.106  0.00  0.00    +0.000 OA
ATOM      7  C   UNL     1      -3.542  13.547  22.407  0.00  0.00    +0.000 C 
ATOM      8  C   UNL     1      -4.313  13.486  23.505  0.00  0.00    +0.000 C 
ATOM      9  C   UNL     1      -5.788  13.201  23.475  0.00  0.00    +0.000 C 
ATOM     10  O   UNL     1      -3.834  13.849  24.750  0.00  0.00    +0.000 OA
ATOM     11  C   UNL     1      -2.672  14.604  24.842  0.00  0.00    +0.000 C 
ATOM     12  C   UNL     1      -1.829  14.730  23.790  0.00  0.00    +0.000 C 
ATOM     13  C   UNL     1      -2.112  14.035  22.476  0.00  0.00    +0.000 C 
ATOM     14  C   UNL     1      -1.937  15.124  21.394  0.00  0.00    +0.000 C 
ATOM     15  O   UNL     1      -2.636  16.116  21.270  0.00  0.00    +0.000 OA
ATOM     16  N   UNL     1      -0.848  14.755  20.596  0.00  0.00    +0.000 N 
ATOM     17  C   UNL     1      -0.390  13.467  20.940  0.00  0.00    +0.000 A 
ATOM     18  C   UNL     1       0.528  12.667  20.293  0.00  0.00    +0.000 A 
ATOM     19  C   UNL     1       0.733  11.360  20.772  0.00  0.00    +0.000 A 
ATOM     20  C   UNL     1       0.038  10.891  21.899  0.00  0.00    +0.000 A 
ATOM     21  C   UNL     1      -0.873  11.713  22.564  0.00  0.00    +0.000 A 
ATOM     22  C   UNL     1      -1.091  12.996  22.064  0.00  0.00    +0.000 A 
ENDROOT
BRANCH  11  23
ATOM     23  N   UNL     1      -2.506  15.161  26.087  0.00  0.00    +0.000 N 
ATOM     24  H   UNL     1      -1.936  14.587  26.703  0.00  0.00    +0.000 HD
ATOM     25  H   UNL     1      -2.276  16.151  26.123  0.00  0.00    +0.000 HD
ENDBRANCH  11  23
BRANCH  12  26
ATOM     26  C   UNL     1      -0.564  15.542  24.016  0.00  0.00    +0.000 C 
ATOM     27  N   UNL     1       0.485  16.216  24.205  0.00  0.00    +0.000 NA
ENDBRANCH  12  26
BRANCH  16  28
ATOM     28  C   UNL     1      -0.496  15.507  19.416  0.00  0.00    +0.000 C 
BRANCH  28  29
ATOM     29  N   UNL     1       0.253  16.715  19.776  0.00  0.00    +0.000 NA
ATOM     30  C   UNL     1      -0.069  17.912  18.959  0.00  0.00    +0.000 C 
ATOM     31  C   UNL     1       0.529  17.931  17.540  0.00  0.00    +0.000 C 
ATOM     32  O   UNL     1       1.949  17.740  17.565  0.00  0.00    +0.000 OA
ATOM     33  C   UNL     1       2.307  16.545  18.262  0.00  0.00    +0.000 C 
ATOM     34  C   UNL     1       1.713  16.498  19.682  0.00  0.00    +0.000 C 
ENDBRANCH  28  29
ENDBRANCH  16  28
TORSDOF 4
ENDMDL
MODEL 8
REMARK VINA RESULT:      -5.6      2.776      5.297
REMARK  Name = 
REMARK  6 active torsions:
REMARK  status: ('A' for Active; 'I' for Inactive)
REMARK    1  A    between atoms: C_1  and  C_2
REMARK    2  A    between atoms: C_2  and  C_3
REMARK    3  A    between atoms: C_11  and  N_12
REMARK    4  A    between atoms: C_13  and  C_14
REMARK    5  A    between atoms: N_19  and  C_20
REMARK    6  A    between atoms: C_20  and  N_21
REMARK                            x       y       z     vdW  Elec       q    Type
REMARK                         _______ _______ _______ _____ _____    ______ ____
ROOT
ATOM      1  C   UNL     1      -3.898  12.646  23.573  0.00  0.00    +0.000 C 
ATOM      2  C   UNL     1      -2.659  12.875  22.693  0.00  0.00    +0.000 C 
ATOM      3  C   UNL     1      -1.608  11.807  23.075  0.00  0.00    +0.000 C 
ATOM      4  C   UNL     1      -2.117  14.294  22.946  0.00  0.00    +0.000 C 
ATOM      5  C   UNL     1      -1.133  14.788  21.902  0.00  0.00    +0.000 C 
ATOM      6  O   UNL     1      -0.506  15.830  22.087  0.00  0.00    +0.000 OA
ATOM      7  C   UNL     1      -0.951  14.015  20.643  0.00  0.00    +0.000 C 
ATOM      8  C   UNL     1      -1.869  13.086  20.332  0.00  0.00    +0.000 C 
ATOM      9  C   UNL     1      -3.043  12.746  21.205  0.00  0.00    +0.000 C 
ATOM     10  O   UNL     1      -1.713  12.245  19.246  0.00  0.00    +0.000 OA
ATOM     11  C   UNL     1      -0.459  12.105  18.665  0.00  0.00    +0.000 C 
ATOM     12  C   UNL     1       0.537  12.988  18.918  0.00  0.00    +0.000 C 
ATOM     13  C   UNL     1       0.315  14.174  19.830  0.00  0.00    +0.000 C 
ATOM     14  C   UNL     1       1.506  14.161  20.812  0.00  0.00    +0.000 C 
ATOM     15  O   UNL     1       1.732  13.291  21.638  0.00  0.00    +0.000 OA
ATOM     16  N   UNL     1       2.257  15.319  20.582  0.00  0.00    +0.000 N 
ATOM     17  C   UNL     1       1.601  16.165  19.664  0.00  0.00    +0.000 A 
ATOM     18  C   UNL     1       1.901  17.463  19.307  0.00  0.00    +0.000 A 
ATOM     19  C   UNL     1       1.017  18.143  18.450  0.00  0.00    +0.000 A 
ATOM     20  C   UNL     1      -0.129  17.506  17.947  0.00  0.00    +0.000 A 
ATOM     21  C   UNL     1      -0.417  16.185  18.294  0.00  0.00    +0.000 A 
ATOM     22  C   UNL     1       0.449  15.530  19.169  0.00  0.00    +0.000 A 
ENDROOT
BRANCH  11  23
ATOM     23  N   UNL     1      -0.384  11.013  17.836  0.00  0.00    +0.000 N 
ATOM     24  H   UNL     1      -1.106  11.011  17.119  0.00  0.00    +0.000 HD
ATOM     25  H   UNL     1       0.537  10.759  17.487  0.00  0.00    +0.000 HD
ENDBRANCH  11  23
BRANCH  12  26
ATOM     26  C   UNL     1       1.854  12.764  18.192  0.00  0.00    +0.000 C 
ATOM     27  N   UNL     1       2.946  12.578  17.590  0.00  0.00    +0.000 NA
ENDBRANCH  12  26
BRANCH  16  28
ATOM     28  C   UNL     1       3.378  15.664  21.422  0.00  0.00    +0.000 C 
BRANCH  28  29
ATOM     29  N   UNL     1       4.576  14.922  21.020  0.00  0.00    +0.000 NA
ATOM     30  C   UNL     1       5.777  15.182  21.852  0.00  0.00    +0.000 C 
ATOM     31  C   UNL     1       6.489  16.524  21.593  0.00  0.00    +0.000 C 
ATOM     32  O   UNL     1       6.825  16.683  20.210  0.00  0.00    +0.000 OA
ATOM     33  C   UNL     1       5.680  16.534  19.369  0.00  0.00    +0.000 C 
ATOM     34  C   UNL     1       4.944  15.203  19.615  0.00  0.00    +0.000 C 
ENDBRANCH  28  29
ENDBRANCH  16  28
TORSDOF 4
ENDMDL
MODEL 9
REMARK VINA RESULT:      -5.6      2.451      5.831
REMARK  Name = 
REMARK  6 active torsions:
REMARK  status: ('A' for Active; 'I' for Inactive)
REMARK    1  A    between atoms: C_1  and  C_2
REMARK    2  A    between atoms: C_2  and  C_3
REMARK    3  A    between atoms: C_11  and  N_12
REMARK    4  A    between atoms: C_13  and  C_14
REMARK    5  A    between atoms: N_19  and  C_20
REMARK    6  A    between atoms: C_20  and  N_21
REMARK                            x       y       z     vdW  Elec       q    Type
REMARK                         _______ _______ _______ _____ _____    ______ ____
ROOT
ATOM      1  C   UNL     1       1.072   7.857  21.191  0.00  0.00    +0.000 C 
ATOM      2  C   UNL     1       0.575   9.311  21.235  0.00  0.00    +0.000 C 
ATOM      3  C   UNL     1       1.817  10.232  21.242  0.00  0.00    +0.000 C 
ATOM      4  C   UNL     1      -0.267   9.516  22.509  0.00  0.00    +0.000 C 
ATOM      5  C   UNL     1      -1.114  10.776  22.508  0.00  0.00    +0.000 C 
ATOM      6  O   UNL     1      -1.692  11.133  23.533  0.00  0.00    +0.000 OA
ATOM      7  C   UNL     1      -1.258  11.561  21.252  0.00  0.00    +0.000 C 
ATOM      8  C   UNL     1      -0.895  10.979  20.097  0.00  0.00    +0.000 C 
ATOM      9  C   UNL     1      -0.306   9.601  20.004  0.00  0.00    +0.000 C 
ATOM     10  O   UNL     1      -0.885  11.678  18.904  0.00  0.00    +0.000 OA
ATOM     11  C   UNL     1      -0.912  13.067  18.925  0.00  0.00    +0.000 C 
ATOM     12  C   UNL     1      -1.261  13.748  20.042  0.00  0.00    +0.000 C 
ATOM     13  C   UNL     1      -1.655  13.019  21.308  0.00  0.00    +0.000 C 
ATOM     14  C   UNL     1      -0.832  13.685  22.433  0.00  0.00    +0.000 C 
ATOM     15  O   UNL     1       0.383  13.653  22.534  0.00  0.00    +0.000 OA
ATOM     16  N   UNL     1      -1.733  14.312  23.301  0.00  0.00    +0.000 N 
ATOM     17  C   UNL     1      -3.063  13.998  22.953  0.00  0.00    +0.000 A 
ATOM     18  C   UNL     1      -4.229  14.254  23.645  0.00  0.00    +0.000 A 
ATOM     19  C   UNL     1      -5.434  13.731  23.143  0.00  0.00    +0.000 A 
ATOM     20  C   UNL     1      -5.454  12.987  21.951  0.00  0.00    +0.000 A 
ATOM     21  C   UNL     1      -4.274  12.749  21.244  0.00  0.00    +0.000 A 
ATOM     22  C   UNL     1      -3.081  13.246  21.765  0.00  0.00    +0.000 A 
ENDROOT
BRANCH  11  23
ATOM     23  N   UNL     1      -0.566  13.616  17.714  0.00  0.00    +0.000 N 
ATOM     24  H   UNL     1      -0.263  12.920  17.037  0.00  0.00    +0.000 HD
ATOM     25  H   UNL     1      -1.195  14.315  17.327  0.00  0.00    +0.000 HD
ENDBRANCH  11  23
BRANCH  12  26
ATOM     26  C   UNL     1      -1.301  15.264  19.939  0.00  0.00    +0.000 C 
ATOM     27  N   UNL     1      -1.333  16.521  19.853  0.00  0.00    +0.000 NA
ENDBRANCH  12  26
BRANCH  16  28
ATOM     28  C   UNL     1      -1.287  14.928  24.527  0.00  0.00    +0.000 C 
BRANCH  28  29
ATOM     29  N   UNL     1      -0.655  16.223  24.257  0.00  0.00    +0.000 NA
ATOM     30  C   UNL     1      -0.053  16.880  25.444  0.00  0.00    +0.000 C 
ATOM     31  C   UNL     1      -1.050  17.539  26.416  0.00  0.00    +0.000 C 
ATOM     32  O   UNL     1      -1.908  18.467  25.742  0.00  0.00    +0.000 OA
ATOM     33  C   UNL     1      -2.585  17.855  24.643  0.00  0.00    +0.000 C 
ATOM     34  C   UNL     1      -1.611  17.180  23.659  0.00  0.00    +0.000 C 
ENDBRANCH  28  29
ENDBRANCH  16  28
TORSDOF 4
ENDMDL
