MODEL 1
REMARK VINA RESULT:      -6.7      0.000      0.000
REMARK  Name = 
REMARK  8 active torsions:
REMARK  status: ('A' for Active; 'I' for Inactive)
REMARK    1  A    between atoms: C_1  and  N_2
REMARK    2  A    between atoms: N_5  and  C_6
REMARK    3  A    between atoms: C_6  and  C_7
REMARK    4  A    between atoms: C_7  and  C_8
REMARK    5  A    between atoms: C_8  and  C_9
REMARK    6  A    between atoms: C_9  and  O_10
REMARK    7  A    between atoms: O_10  and  C_11
REMARK    8  A    between atoms: C_16  and  C_17
REMARK                            x       y       z     vdW  Elec       q    Type
REMARK                         _______ _______ _______ _____ _____    ______ ____
ROOT
ATOM      1  C   UNL     1       3.662   2.584  17.687  0.00  0.00    +0.000 C 
ENDROOT
BRANCH   1   2
ATOM      2  C   UNL     1       4.645   2.971  18.804  0.00  0.00    +0.000 C 
BRANCH   2   3
ATOM      3  C   UNL     1       5.315   4.345  18.611  0.00  0.00    +0.000 C 
BRANCH   3   8
ATOM      4  C   UNL     1       7.628   8.471  17.707  0.00  0.00    +0.000 C 
ATOM      5  N   UNL     1       7.382   7.119  17.217  0.00  0.00    +0.000 NA
ATOM      6  C   UNL     1       5.953   6.908  16.935  0.00  0.00    +0.000 C 
ATOM      7  C   UNL     1       5.676   5.464  16.456  0.00  0.00    +0.000 C 
ATOM      8  N   UNL     1       6.131   4.413  17.392  0.00  0.00    +0.000 NA
ATOM      9  C   UNL     1       7.557   4.664  17.699  0.00  0.00    +0.000 C 
ATOM     10  C   UNL     1       7.874   6.106  18.168  0.00  0.00    +0.000 C 
ENDBRANCH   3   8
ENDBRANCH   2   3
ENDBRANCH   1   2
BRANCH   1  11
ATOM     11  C   UNL     1       2.370   2.035  18.278  0.00  0.00    +0.000 C 
BRANCH  11  12
ATOM     12  O   UNL     1       1.290   2.973  18.183  0.00  0.00    +0.000 OA
BRANCH  12  13
ATOM     13  C   UNL     1       1.602   4.212  18.700  0.00  0.00    +0.000 A 
ATOM     14  C   UNL     1       1.926   5.307  17.883  0.00  0.00    +0.000 A 
ATOM     15  C   UNL     1       2.258   6.546  18.430  0.00  0.00    +0.000 A 
ATOM     16  C   UNL     1       2.243   6.723  19.807  0.00  0.00    +0.000 A 
ATOM     17  C   UNL     1       1.889   5.658  20.637  0.00  0.00    +0.000 A 
ATOM     18  C   UNL     1       1.563   4.405  20.089  0.00  0.00    +0.000 A 
BRANCH  18  19
ATOM     19  C   UNL     1       1.205   3.308  21.017  0.00  0.00    +0.000 C 
ATOM     20  O   UNL     1       1.914   3.014  21.977  0.00  0.00    +0.000 OA
ENDBRANCH  18  19
ENDBRANCH  12  13
ENDBRANCH  11  12
ENDBRANCH   1  11
TORSDOF 7
ENDMDL
MODEL 2
REMARK VINA RESULT:      -6.3      4.417      7.071
REMARK  Name = 
REMARK  8 active torsions:
REMARK  status: ('A' for Active; 'I' for Inactive)
REMARK    1  A    between atoms: C_1  and  N_2
REMARK    2  A    between atoms: N_5  and  C_6
REMARK    3  A    between atoms: C_6  and  C_7
REMARK    4  A    between atoms: C_7  and  C_8
REMARK    5  A    between atoms: C_8  and  C_9
REMARK    6  A    between atoms: C_9  and  O_10
REMARK    7  A    between atoms: O_10  and  C_11
REMARK    8  A    between atoms: C_16  and  C_17
REMARK                            x       y       z     vdW  Elec       q    Type
REMARK                         _______ _______ _______ _____ _____    ______ ____
ROOT
ATOM      1  C   UNL     1       8.096   9.043  17.832  0.00  0.00    +0.000 C 
ENDROOT
BRANCH   1   2
ATOM      2  C   UNL     1       8.957   9.378  19.062  0.00  0.00    +0.000 C 
BRANCH   2   3
ATOM      3  C   UNL     1       9.366  10.859  19.166  0.00  0.00    +0.000 C 
BRANCH   3   8
ATOM      4  C   UNL     1      10.901  15.422  19.076  0.00  0.00    +0.000 C 
ATOM      5  N   UNL     1      10.476  14.300  18.248  0.00  0.00    +0.000 NA
ATOM      6  C   UNL     1       9.088  13.913  18.548  0.00  0.00    +0.000 C 
ATOM      7  C   UNL     1       8.642  12.696  17.706  0.00  0.00    +0.000 C 
ATOM      8  N   UNL     1       9.504  11.503  17.853  0.00  0.00    +0.000 NA
ATOM      9  C   UNL     1      10.901  11.917  17.590  0.00  0.00    +0.000 C 
ATOM     10  C   UNL     1      11.377  13.144  18.406  0.00  0.00    +0.000 C 
ENDBRANCH   3   8
ENDBRANCH   2   3
ENDBRANCH   1   2
BRANCH   1  11
ATOM     11  C   UNL     1       7.734   7.563  17.819  0.00  0.00    +0.000 C 
BRANCH  11  12
ATOM     12  O   UNL     1       7.078   7.178  16.604  0.00  0.00    +0.000 OA
BRANCH  12  13
ATOM     13  C   UNL     1       5.979   6.372  16.815  0.00  0.00    +0.000 A 
ATOM     14  C   UNL     1       4.913   6.757  17.644  0.00  0.00    +0.000 A 
ATOM     15  C   UNL     1       3.821   5.916  17.857  0.00  0.00    +0.000 A 
ATOM     16  C   UNL     1       3.760   4.684  17.221  0.00  0.00    +0.000 A 
ATOM     17  C   UNL     1       4.792   4.295  16.366  0.00  0.00    +0.000 A 
ATOM     18  C   UNL     1       5.898   5.136  16.156  0.00  0.00    +0.000 A 
BRANCH  18  19
ATOM     19  C   UNL     1       6.969   4.669  15.245  0.00  0.00    +0.000 C 
ATOM     20  O   UNL     1       6.716   4.127  14.172  0.00  0.00    +0.000 OA
ENDBRANCH  18  19
ENDBRANCH  12  13
ENDBRANCH  11  12
ENDBRANCH   1  11
TORSDOF 7
ENDMDL
MODEL 3
REMARK VINA RESULT:      -6.3      4.524      7.164
REMARK  Name = 
REMARK  8 active torsions:
REMARK  status: ('A' for Active; 'I' for Inactive)
REMARK    1  A    between atoms: C_1  and  N_2
REMARK    2  A    between atoms: N_5  and  C_6
REMARK    3  A    between atoms: C_6  and  C_7
REMARK    4  A    between atoms: C_7  and  C_8
REMARK    5  A    between atoms: C_8  and  C_9
REMARK    6  A    between atoms: C_9  and  O_10
REMARK    7  A    between atoms: O_10  and  C_11
REMARK    8  A    between atoms: C_16  and  C_17
REMARK                            x       y       z     vdW  Elec       q    Type
REMARK                         _______ _______ _______ _____ _____    ______ ____
ROOT
ATOM      1  C   UNL     1       7.994   8.999  17.651  0.00  0.00    +0.000 C 
ENDROOT
BRANCH   1   2
ATOM      2  C   UNL     1       8.874   9.281  18.880  0.00  0.00    +0.000 C 
BRANCH   2   3
ATOM      3  C   UNL     1       9.180  10.773  19.112  0.00  0.00    +0.000 C 
BRANCH   3   8
ATOM      4  C   UNL     1      10.427  15.423  18.994  0.00  0.00    +0.000 C 
ATOM      5  N   UNL     1      10.938  14.058  18.938  0.00  0.00    +0.000 NA
ATOM      6  C   UNL     1      10.390  13.332  17.780  0.00  0.00    +0.000 C 
ATOM      7  C   UNL     1      10.893  11.871  17.736  0.00  0.00    +0.000 C 
ATOM      8  N   UNL     1      10.606  11.090  18.960  0.00  0.00    +0.000 NA
ATOM      9  C   UNL     1      11.125  11.853  20.118  0.00  0.00    +0.000 C 
ATOM     10  C   UNL     1      10.654  13.326  20.185  0.00  0.00    +0.000 C 
ENDBRANCH   3   8
ENDBRANCH   2   3
ENDBRANCH   1   2
BRANCH   1  11
ATOM     11  C   UNL     1       7.573   7.535  17.619  0.00  0.00    +0.000 C 
BRANCH  11  12
ATOM     12  O   UNL     1       6.589   7.277  16.609  0.00  0.00    +0.000 OA
BRANCH  12  13
ATOM     13  C   UNL     1       5.811   6.171  16.881  0.00  0.00    +0.000 A 
ATOM     14  C   UNL     1       5.043   6.063  18.050  0.00  0.00    +0.000 A 
ATOM     15  C   UNL     1       4.279   4.926  18.313  0.00  0.00    +0.000 A 
ATOM     16  C   UNL     1       4.245   3.886  17.394  0.00  0.00    +0.000 A 
ATOM     17  C   UNL     1       4.974   3.988  16.208  0.00  0.00    +0.000 A 
ATOM     18  C   UNL     1       5.752   5.128  15.945  0.00  0.00    +0.000 A 
BRANCH  18  19
ATOM     19  C   UNL     1       6.513   5.178  14.675  0.00  0.00    +0.000 C 
ATOM     20  O   UNL     1       7.740   5.197  14.655  0.00  0.00    +0.000 OA
ENDBRANCH  18  19
ENDBRANCH  12  13
ENDBRANCH  11  12
ENDBRANCH   1  11
TORSDOF 7
ENDMDL
MODEL 4
REMARK VINA RESULT:      -6.2      4.820      7.405
REMARK  Name = 
REMARK  8 active torsions:
REMARK  status: ('A' for Active; 'I' for Inactive)
REMARK    1  A    between atoms: C_1  and  N_2
REMARK    2  A    between atoms: N_5  and  C_6
REMARK    3  A    between atoms: C_6  and  C_7
REMARK    4  A    between atoms: C_7  and  C_8
REMARK    5  A    between atoms: C_8  and  C_9
REMARK    6  A    between atoms: C_9  and  O_10
REMARK    7  A    between atoms: O_10  and  C_11
REMARK    8  A    between atoms: C_16  and  C_17
REMARK                            x       y       z     vdW  Elec       q    Type
REMARK                         _______ _______ _______ _____ _____    ______ ____
ROOT
ATOM      1  C   UNL     1       8.695   9.248  18.517  0.00  0.00    +0.000 C 
ENDROOT
BRANCH   1   2
ATOM      2  C   UNL     1       9.113  10.686  18.164  0.00  0.00    +0.000 C 
BRANCH   2   3
ATOM      3  C   UNL     1       9.671  11.494  19.351  0.00  0.00    +0.000 C 
BRANCH   3   8
ATOM      4  C   UNL     1      11.179  15.607  17.353  0.00  0.00    +0.000 C 
ATOM      5  N   UNL     1      11.617  14.360  17.970  0.00  0.00    +0.000 NA
ATOM      6  C   UNL     1      11.165  13.195  17.193  0.00  0.00    +0.000 C 
ATOM      7  C   UNL     1      11.588  11.867  17.862  0.00  0.00    +0.000 C 
ATOM      8  N   UNL     1      11.121  11.711  19.257  0.00  0.00    +0.000 NA
ATOM      9  C   UNL     1      11.545  12.910  20.015  0.00  0.00    +0.000 C 
ATOM     10  C   UNL     1      11.152  14.259  19.365  0.00  0.00    +0.000 C 
ENDBRANCH   3   8
ENDBRANCH   2   3
ENDBRANCH   1   2
BRANCH   1  11
ATOM     11  C   UNL     1       7.550   8.789  17.624  0.00  0.00    +0.000 C 
BRANCH  11  12
ATOM     12  O   UNL     1       7.725   7.441  17.169  0.00  0.00    +0.000 OA
BRANCH  12  13
ATOM     13  C   UNL     1       6.640   6.634  17.435  0.00  0.00    +0.000 A 
ATOM     14  C   UNL     1       5.465   6.676  16.667  0.00  0.00    +0.000 A 
ATOM     15  C   UNL     1       4.373   5.864  16.967  0.00  0.00    +0.000 A 
ATOM     16  C   UNL     1       4.444   4.970  18.027  0.00  0.00    +0.000 A 
ATOM     17  C   UNL     1       5.614   4.887  18.783  0.00  0.00    +0.000 A 
ATOM     18  C   UNL     1       6.714   5.711  18.488  0.00  0.00    +0.000 A 
BRANCH  18  19
ATOM     19  C   UNL     1       7.927   5.586  19.329  0.00  0.00    +0.000 C 
ATOM     20  O   UNL     1       7.863   5.281  20.517  0.00  0.00    +0.000 OA
ENDBRANCH  18  19
ENDBRANCH  12  13
ENDBRANCH  11  12
ENDBRANCH   1  11
TORSDOF 7
ENDMDL
MODEL 5
REMARK VINA RESULT:      -6.2      4.727      7.190
REMARK  Name = 
REMARK  8 active torsions:
REMARK  status: ('A' for Active; 'I' for Inactive)
REMARK    1  A    between atoms: C_1  and  N_2
REMARK    2  A    between atoms: N_5  and  C_6
REMARK    3  A    between atoms: C_6  and  C_7
REMARK    4  A    between atoms: C_7  and  C_8
REMARK    5  A    between atoms: C_8  and  C_9
REMARK    6  A    between atoms: C_9  and  O_10
REMARK    7  A    between atoms: O_10  and  C_11
REMARK    8  A    between atoms: C_16  and  C_17
REMARK                            x       y       z     vdW  Elec       q    Type
REMARK                         _______ _______ _______ _____ _____    ______ ____
ROOT
ATOM      1  C   UNL     1       7.986   9.337  17.619  0.00  0.00    +0.000 C 
ENDROOT
BRANCH   1   2
ATOM      2  C   UNL     1       8.919   9.867  18.721  0.00  0.00    +0.000 C 
BRANCH   2   3
ATOM      3  C   UNL     1       9.391  11.318  18.509  0.00  0.00    +0.000 C 
BRANCH   3   8
ATOM      4  C   UNL     1      11.177  15.648  19.625  0.00  0.00    +0.000 C 
ATOM      5  N   UNL     1      11.528  14.273  19.292  0.00  0.00    +0.000 NA
ATOM      6  C   UNL     1      11.047  13.912  17.948  0.00  0.00    +0.000 C 
ATOM      7  C   UNL     1      11.377  12.442  17.602  0.00  0.00    +0.000 C 
ATOM      8  N   UNL     1      10.852  11.454  18.571  0.00  0.00    +0.000 NA
ATOM      9  C   UNL     1      11.308  11.855  19.921  0.00  0.00    +0.000 C 
ATOM     10  C   UNL     1      11.008  13.327  20.295  0.00  0.00    +0.000 C 
ENDBRANCH   3   8
ENDBRANCH   2   3
ENDBRANCH   1   2
BRANCH   1  11
ATOM     11  C   UNL     1       7.730   7.847  17.805  0.00  0.00    +0.000 C 
BRANCH  11  12
ATOM     12  O   UNL     1       7.009   7.280  16.703  0.00  0.00    +0.000 OA
BRANCH  12  13
ATOM     13  C   UNL     1       5.925   6.525  17.097  0.00  0.00    +0.000 A 
ATOM     14  C   UNL     1       4.672   7.096  17.370  0.00  0.00    +0.000 A 
ATOM     15  C   UNL     1       3.594   6.315  17.786  0.00  0.00    +0.000 A 
ATOM     16  C   UNL     1       3.741   4.940  17.907  0.00  0.00    +0.000 A 
ATOM     17  C   UNL     1       4.968   4.347  17.607  0.00  0.00    +0.000 A 
ATOM     18  C   UNL     1       6.058   5.133  17.197  0.00  0.00    +0.000 A 
BRANCH  18  19
ATOM     19  C   UNL     1       7.340   4.451  16.901  0.00  0.00    +0.000 C 
ATOM     20  O   UNL     1       8.186   4.256  17.769  0.00  0.00    +0.000 OA
ENDBRANCH  18  19
ENDBRANCH  12  13
ENDBRANCH  11  12
ENDBRANCH   1  11
TORSDOF 7
ENDMDL
MODEL 6
REMARK VINA RESULT:      -6.2      2.951      5.977
REMARK  Name = 
REMARK  8 active torsions:
REMARK  status: ('A' for Active; 'I' for Inactive)
REMARK    1  A    between atoms: C_1  and  N_2
REMARK    2  A    between atoms: N_5  and  C_6
REMARK    3  A    between atoms: C_6  and  C_7
REMARK    4  A    between atoms: C_7  and  C_8
REMARK    5  A    between atoms: C_8  and  C_9
REMARK    6  A    between atoms: C_9  and  O_10
REMARK    7  A    between atoms: O_10  and  C_11
REMARK    8  A    between atoms: C_16  and  C_17
REMARK                            x       y       z     vdW  Elec       q    Type
REMARK                         _______ _______ _______ _____ _____    ______ ____
ROOT
ATOM      1  C   UNL     1       2.372   6.234  18.014  0.00  0.00    +0.000 C 
ENDROOT
BRANCH   1   2
ATOM      2  C   UNL     1       1.661   4.903  17.716  0.00  0.00    +0.000 C 
BRANCH   2   3
ATOM      3  C   UNL     1       2.606   3.758  17.305  0.00  0.00    +0.000 C 
BRANCH   3   8
ATOM      4  C   UNL     1       2.201   3.134  22.063  0.00  0.00    +0.000 C 
ATOM      5  N   UNL     1       2.035   2.489  20.766  0.00  0.00    +0.000 NA
ATOM      6  C   UNL     1       3.314   2.415  20.040  0.00  0.00    +0.000 C 
ATOM      7  C   UNL     1       3.141   1.771  18.646  0.00  0.00    +0.000 C 
ATOM      8  N   UNL     1       2.148   2.446  17.781  0.00  0.00    +0.000 NA
ATOM      9  C   UNL     1       0.881   2.551  18.540  0.00  0.00    +0.000 C 
ATOM     10  C   UNL     1       1.020   3.178  19.949  0.00  0.00    +0.000 C 
ENDBRANCH   3   8
ENDBRANCH   2   3
ENDBRANCH   1   2
BRANCH   1  11
ATOM     11  C   UNL     1       3.797   5.985  18.492  0.00  0.00    +0.000 C 
BRANCH  11  12
ATOM     12  O   UNL     1       4.754   6.774  17.774  0.00  0.00    +0.000 OA
BRANCH  12  13
ATOM     13  C   UNL     1       5.507   6.035  16.886  0.00  0.00    +0.000 A 
ATOM     14  C   UNL     1       5.054   5.725  15.593  0.00  0.00    +0.000 A 
ATOM     15  C   UNL     1       5.824   4.960  14.719  0.00  0.00    +0.000 A 
ATOM     16  C   UNL     1       7.080   4.514  15.110  0.00  0.00    +0.000 A 
ATOM     17  C   UNL     1       7.565   4.840  16.377  0.00  0.00    +0.000 A 
ATOM     18  C   UNL     1       6.787   5.603  17.264  0.00  0.00    +0.000 A 
BRANCH  18  19
ATOM     19  C   UNL     1       7.348   5.912  18.600  0.00  0.00    +0.000 C 
ATOM     20  O   UNL     1       7.946   5.068  19.262  0.00  0.00    +0.000 OA
ENDBRANCH  18  19
ENDBRANCH  12  13
ENDBRANCH  11  12
ENDBRANCH   1  11
TORSDOF 7
ENDMDL
MODEL 7
REMARK VINA RESULT:      -6.2      5.285      8.777
REMARK  Name = 
REMARK  8 active torsions:
REMARK  status: ('A' for Active; 'I' for Inactive)
REMARK    1  A    between atoms: C_1  and  N_2
REMARK    2  A    between atoms: N_5  and  C_6
REMARK    3  A    between atoms: C_6  and  C_7
REMARK    4  A    between atoms: C_7  and  C_8
REMARK    5  A    between atoms: C_8  and  C_9
REMARK    6  A    between atoms: C_9  and  O_10
REMARK    7  A    between atoms: O_10  and  C_11
REMARK    8  A    between atoms: C_16  and  C_17
REMARK                            x       y       z     vdW  Elec       q    Type
REMARK                         _______ _______ _______ _____ _____    ______ ____
ROOT
ATOM      1  C   UNL     1       7.906   8.729  17.655  0.00  0.00    +0.000 C 
ENDROOT
BRANCH   1   2
ATOM      2  C   UNL     1       7.637   7.276  18.080  0.00  0.00    +0.000 C 
BRANCH   2   3
ATOM      3  C   UNL     1       7.269   6.333  16.919  0.00  0.00    +0.000 C 
BRANCH   3   8
ATOM      4  C   UNL     1       3.679   3.227  17.729  0.00  0.00    +0.000 C 
ATOM      5  N   UNL     1       4.035   4.480  17.074  0.00  0.00    +0.000 NA
ATOM      6  C   UNL     1       5.079   4.271  16.057  0.00  0.00    +0.000 C 
ATOM      7  C   UNL     1       5.494   5.601  15.387  0.00  0.00    +0.000 C 
ATOM      8  N   UNL     1       5.959   6.642  16.331  0.00  0.00    +0.000 NA
ATOM      9  C   UNL     1       4.918   6.809  17.371  0.00  0.00    +0.000 C 
ATOM     10  C   UNL     1       4.467   5.495  18.053  0.00  0.00    +0.000 C 
ENDBRANCH   3   8
ENDBRANCH   2   3
ENDBRANCH   1   2
BRANCH   1  11
ATOM     11  C   UNL     1       8.813   9.422  18.664  0.00  0.00    +0.000 C 
BRANCH  11  12
ATOM     12  O   UNL     1       9.362  10.642  18.149  0.00  0.00    +0.000 OA
BRANCH  12  13
ATOM     13  C   UNL     1       9.639  11.569  19.131  0.00  0.00    +0.000 A 
ATOM     14  C   UNL     1       9.477  11.287  20.497  0.00  0.00    +0.000 A 
ATOM     15  C   UNL     1       9.744  12.246  21.472  0.00  0.00    +0.000 A 
ATOM     16  C   UNL     1      10.208  13.501  21.101  0.00  0.00    +0.000 A 
ATOM     17  C   UNL     1      10.410  13.792  19.751  0.00  0.00    +0.000 A 
ATOM     18  C   UNL     1      10.132  12.830  18.766  0.00  0.00    +0.000 A 
BRANCH  18  19
ATOM     19  C   UNL     1      10.355  13.196  17.348  0.00  0.00    +0.000 C 
ATOM     20  O   UNL     1      11.432  13.002  16.790  0.00  0.00    +0.000 OA
ENDBRANCH  18  19
ENDBRANCH  12  13
ENDBRANCH  11  12
ENDBRANCH   1  11
TORSDOF 7
ENDMDL
MODEL 8
REMARK VINA RESULT:      -6.0      2.996      5.940
REMARK  Name = 
REMARK  8 active torsions:
REMARK  status: ('A' for Active; 'I' for Inactive)
REMARK    1  A    between atoms: C_1  and  N_2
REMARK    2  A    between atoms: N_5  and  C_6
REMARK    3  A    between atoms: C_6  and  C_7
REMARK    4  A    between atoms: C_7  and  C_8
REMARK    5  A    between atoms: C_8  and  C_9
REMARK    6  A    between atoms: C_9  and  O_10
REMARK    7  A    between atoms: O_10  and  C_11
REMARK    8  A    between atoms: C_16  and  C_17
REMARK                            x       y       z     vdW  Elec       q    Type
REMARK                         _______ _______ _______ _____ _____    ______ ____
ROOT
ATOM      1  C   UNL     1       2.645   7.541  18.263  0.00  0.00    +0.000 C 
ENDROOT
BRANCH   1   2
ATOM      2  C   UNL     1       2.344   6.052  18.499  0.00  0.00    +0.000 C 
BRANCH   2   3
ATOM      3  C   UNL     1       2.558   5.584  19.951  0.00  0.00    +0.000 C 
BRANCH   3   8
ATOM      4  C   UNL     1       3.748   1.159  18.470  0.00  0.00    +0.000 C 
ATOM      5  N   UNL     1       2.765   1.932  19.220  0.00  0.00    +0.000 NA
ATOM      6  C   UNL     1       2.104   2.929  18.361  0.00  0.00    +0.000 C 
ATOM      7  C   UNL     1       1.090   3.782  19.157  0.00  0.00    +0.000 C 
ATOM      8  N   UNL     1       1.666   4.479  20.328  0.00  0.00    +0.000 NA
ATOM      9  C   UNL     1       2.364   3.472  21.159  0.00  0.00    +0.000 C 
ATOM     10  C   UNL     1       3.376   2.588  20.391  0.00  0.00    +0.000 C 
ENDBRANCH   3   8
ENDBRANCH   2   3
ENDBRANCH   1   2
BRANCH   1  11
ATOM     11  C   UNL     1       3.776   7.705  17.255  0.00  0.00    +0.000 C 
BRANCH  11  12
ATOM     12  O   UNL     1       5.035   7.263  17.779  0.00  0.00    +0.000 OA
BRANCH  12  13
ATOM     13  C   UNL     1       5.647   6.314  16.989  0.00  0.00    +0.000 A 
ATOM     14  C   UNL     1       5.214   6.030  15.683  0.00  0.00    +0.000 A 
ATOM     15  C   UNL     1       5.836   5.052  14.910  0.00  0.00    +0.000 A 
ATOM     16  C   UNL     1       6.926   4.357  15.416  0.00  0.00    +0.000 A 
ATOM     17  C   UNL     1       7.396   4.646  16.698  0.00  0.00    +0.000 A 
ATOM     18  C   UNL     1       6.764   5.626  17.484  0.00  0.00    +0.000 A 
BRANCH  18  19
ATOM     19  C   UNL     1       7.299   5.885  18.841  0.00  0.00    +0.000 C 
ATOM     20  O   UNL     1       8.109   5.131  19.373  0.00  0.00    +0.000 OA
ENDBRANCH  18  19
ENDBRANCH  12  13
ENDBRANCH  11  12
ENDBRANCH   1  11
TORSDOF 7
ENDMDL
MODEL 9
REMARK VINA RESULT:      -6.0      4.771      8.477
REMARK  Name = 
REMARK  8 active torsions:
REMARK  status: ('A' for Active; 'I' for Inactive)
REMARK    1  A    between atoms: C_1  and  N_2
REMARK    2  A    between atoms: N_5  and  C_6
REMARK    3  A    between atoms: C_6  and  C_7
REMARK    4  A    between atoms: C_7  and  C_8
REMARK    5  A    between atoms: C_8  and  C_9
REMARK    6  A    between atoms: C_9  and  O_10
REMARK    7  A    between atoms: O_10  and  C_11
REMARK    8  A    between atoms: C_16  and  C_17
REMARK                            x       y       z     vdW  Elec       q    Type
REMARK                         _______ _______ _______ _____ _____    ______ ____
ROOT
ATOM      1  C   UNL     1       7.916   8.661  17.690  0.00  0.00    +0.000 C 
ENDROOT
BRANCH   1   2
ATOM      2  C   UNL     1       7.663   7.195  18.080  0.00  0.00    +0.000 C 
BRANCH   2   3
ATOM      3  C   UNL     1       7.290   6.280  16.897  0.00  0.00    +0.000 C 
BRANCH   3   8
ATOM      4  C   UNL     1       3.816   3.017  17.581  0.00  0.00    +0.000 C 
ATOM      5  N   UNL     1       4.121   4.316  16.994  0.00  0.00    +0.000 NA
ATOM      6  C   UNL     1       5.155   4.199  15.952  0.00  0.00    +0.000 C 
ATOM      7  C   UNL     1       5.516   5.577  15.352  0.00  0.00    +0.000 C 
ATOM      8  N   UNL     1       5.962   6.578  16.347  0.00  0.00    +0.000 NA
ATOM      9  C   UNL     1       4.933   6.652  17.409  0.00  0.00    +0.000 C 
ATOM     10  C   UNL     1       4.535   5.287  18.022  0.00  0.00    +0.000 C 
ENDBRANCH   3   8
ENDBRANCH   2   3
ENDBRANCH   1   2
BRANCH   1  11
ATOM     11  C   UNL     1       8.797   9.346  18.728  0.00  0.00    +0.000 C 
BRANCH  11  12
ATOM     12  O   UNL     1       8.596  10.765  18.757  0.00  0.00    +0.000 OA
BRANCH  12  13
ATOM     13  C   UNL     1       9.773  11.476  18.862  0.00  0.00    +0.000 A 
ATOM     14  C   UNL     1      10.742  11.479  17.847  0.00  0.00    +0.000 A 
ATOM     15  C   UNL     1      11.933  12.190  17.984  0.00  0.00    +0.000 A 
ATOM     16  C   UNL     1      12.166  12.939  19.130  0.00  0.00    +0.000 A 
ATOM     17  C   UNL     1      11.200  12.979  20.137  0.00  0.00    +0.000 A 
ATOM     18  C   UNL     1      10.003  12.255  20.005  0.00  0.00    +0.000 A 
BRANCH  18  19
ATOM     19  C   UNL     1       9.018  12.326  21.110  0.00  0.00    +0.000 C 
ATOM     20  O   UNL     1       8.870  11.404  21.907  0.00  0.00    +0.000 OA
ENDBRANCH  18  19
ENDBRANCH  12  13
ENDBRANCH  11  12
ENDBRANCH   1  11
TORSDOF 7
ENDMDL
