MODEL 1
REMARK VINA RESULT:      -8.9      0.000      0.000
REMARK  Name = 
REMARK  9 active torsions:
REMARK  status: ('A' for Active; 'I' for Inactive)
REMARK    1  A    between atoms: C_4  and  C_5
REMARK    2  A    between atoms: C_5  and  C_6
REMARK    3  A    between atoms: C_6  and  N_7
REMARK    4  A    between atoms: C_10  and  C_11
REMARK    5  A    between atoms: C_11  and  C_12
REMARK    6  A    between atoms: C_12  and  O_13
REMARK    7  A    between atoms: O_13  and  C_14
REMARK    8  A    between atoms: C_14  and  C_15
REMARK    9  A    between atoms: C_14  and  C_21
REMARK                            x       y       z     vdW  Elec       q    Type
REMARK                         _______ _______ _______ _____ _____    ______ ____
ROOT
ATOM      1  C   UNL     1       2.769   2.635  17.094  0.00  0.00    +0.000 C 
ENDROOT
BRANCH   1   5
ATOM      2  N   UNL     1       2.017   4.257  20.398  0.00  0.00    +0.000 NA
ATOM      3  C   UNL     1       1.007   3.666  19.505  0.00  0.00    +0.000 C 
ATOM      4  C   UNL     1       1.333   2.212  19.145  0.00  0.00    +0.000 C 
ATOM      5  C   UNL     1       2.727   2.059  18.525  0.00  0.00    +0.000 C 
ATOM      6  C   UNL     1       3.738   2.702  19.484  0.00  0.00    +0.000 C 
ATOM      7  C   UNL     1       3.370   4.149  19.824  0.00  0.00    +0.000 C 
BRANCH   2   8
ATOM      8  C   UNL     1       1.729   5.678  20.697  0.00  0.00    +0.000 C 
BRANCH   8   9
ATOM      9  C   UNL     1       2.538   6.684  19.858  0.00  0.00    +0.000 C 
BRANCH   9  13
ATOM     10  C   UNL     1       0.483  10.462  19.488  0.00  0.00    +0.000 A 
ATOM     11  C   UNL     1       0.450   9.764  20.694  0.00  0.00    +0.000 A 
ATOM     12  C   UNL     1       1.114   8.543  20.812  0.00  0.00    +0.000 A 
ATOM     13  C   UNL     1       1.824   8.010  19.726  0.00  0.00    +0.000 A 
ATOM     14  C   UNL     1       1.845   8.717  18.516  0.00  0.00    +0.000 A 
ATOM     15  C   UNL     1       1.178   9.937  18.400  0.00  0.00    +0.000 A 
ENDBRANCH   9  13
ENDBRANCH   8   9
ENDBRANCH   2   8
ENDBRANCH   1   5
BRANCH   1  16
ATOM     16  C   UNL     1       3.534   3.952  17.000  0.00  0.00    +0.000 C 
BRANCH  16  17
ATOM     17  O   UNL     1       4.792   3.702  16.374  0.00  0.00    +0.000 OA
BRANCH  17  18
ATOM     18  C   UNL     1       5.361   4.876  15.760  0.00  0.00    +0.000 C 
BRANCH  18  19
ATOM     19  C   UNL     1       6.356   5.513  16.721  0.00  0.00    +0.000 A 
ATOM     20  C   UNL     1       7.019   4.735  17.684  0.00  0.00    +0.000 A 
ATOM     21  C   UNL     1       7.844   5.337  18.634  0.00  0.00    +0.000 A 
ATOM     22  C   UNL     1       8.022   6.720  18.629  0.00  0.00    +0.000 A 
ATOM     23  C   UNL     1       7.384   7.501  17.667  0.00  0.00    +0.000 A 
ATOM     24  C   UNL     1       6.556   6.903  16.717  0.00  0.00    +0.000 A 
ENDBRANCH  18  19
BRANCH  18  25
ATOM     25  C   UNL     1       5.963   4.527  14.398  0.00  0.00    +0.000 A 
ATOM     26  C   UNL     1       5.292   3.696  13.485  0.00  0.00    +0.000 A 
ATOM     27  C   UNL     1       5.846   3.406  12.235  0.00  0.00    +0.000 A 
ATOM     28  C   UNL     1       7.076   3.947  11.872  0.00  0.00    +0.000 A 
ATOM     29  C   UNL     1       7.751   4.784  12.759  0.00  0.00    +0.000 A 
ATOM     30  C   UNL     1       7.197   5.076  14.007  0.00  0.00    +0.000 A 
ENDBRANCH  18  25
ENDBRANCH  17  18
ENDBRANCH  16  17
ENDBRANCH   1  16
TORSDOF 9
ENDMDL
MODEL 2
REMARK VINA RESULT:      -8.7      2.854      7.211
REMARK  Name = 
REMARK  9 active torsions:
REMARK  status: ('A' for Active; 'I' for Inactive)
REMARK    1  A    between atoms: C_4  and  C_5
REMARK    2  A    between atoms: C_5  and  C_6
REMARK    3  A    between atoms: C_6  and  N_7
REMARK    4  A    between atoms: C_10  and  C_11
REMARK    5  A    between atoms: C_11  and  C_12
REMARK    6  A    between atoms: C_12  and  O_13
REMARK    7  A    between atoms: O_13  and  C_14
REMARK    8  A    between atoms: C_14  and  C_15
REMARK    9  A    between atoms: C_14  and  C_21
REMARK                            x       y       z     vdW  Elec       q    Type
REMARK                         _______ _______ _______ _____ _____    ______ ____
ROOT
ATOM      1  C   UNL     1       5.365   4.299  17.935  0.00  0.00    +0.000 C 
ENDROOT
BRANCH   1   5
ATOM      2  N   UNL     1       7.766   7.118  17.304  0.00  0.00    +0.000 NA
ATOM      3  C   UNL     1       7.764   6.273  18.509  0.00  0.00    +0.000 C 
ATOM      4  C   UNL     1       7.848   4.781  18.169  0.00  0.00    +0.000 C 
ATOM      5  C   UNL     1       6.731   4.332  17.218  0.00  0.00    +0.000 C 
ATOM      6  C   UNL     1       6.767   5.251  15.989  0.00  0.00    +0.000 C 
ATOM      7  C   UNL     1       6.689   6.731  16.374  0.00  0.00    +0.000 C 
BRANCH   2   8
ATOM      8  C   UNL     1       7.627   8.555  17.635  0.00  0.00    +0.000 C 
BRANCH   8   9
ATOM      9  C   UNL     1       8.668   9.083  18.637  0.00  0.00    +0.000 C 
BRANCH   9  13
ATOM     10  C   UNL     1       9.719  13.200  17.873  0.00  0.00    +0.000 A 
ATOM     11  C   UNL     1      10.616  12.360  18.530  0.00  0.00    +0.000 A 
ATOM     12  C   UNL     1      10.276  11.030  18.776  0.00  0.00    +0.000 A 
ATOM     13  C   UNL     1       9.035  10.524  18.363  0.00  0.00    +0.000 A 
ATOM     14  C   UNL     1       8.137  11.379  17.710  0.00  0.00    +0.000 A 
ATOM     15  C   UNL     1       8.480  12.710  17.465  0.00  0.00    +0.000 A 
ENDBRANCH   9  13
ENDBRANCH   8   9
ENDBRANCH   2   8
ENDBRANCH   1   5
BRANCH   1  16
ATOM     16  C   UNL     1       5.188   5.431  18.940  0.00  0.00    +0.000 C 
BRANCH  16  17
ATOM     17  O   UNL     1       4.067   6.220  18.542  0.00  0.00    +0.000 OA
BRANCH  17  18
ATOM     18  C   UNL     1       3.039   6.292  19.552  0.00  0.00    +0.000 C 
BRANCH  18  19
ATOM     19  C   UNL     1       2.207   7.548  19.332  0.00  0.00    +0.000 A 
ATOM     20  C   UNL     1       2.156   8.162  18.070  0.00  0.00    +0.000 A 
ATOM     21  C   UNL     1       1.485   9.372  17.898  0.00  0.00    +0.000 A 
ATOM     22  C   UNL     1       0.850   9.978  18.980  0.00  0.00    +0.000 A 
ATOM     23  C   UNL     1       0.877   9.371  20.234  0.00  0.00    +0.000 A 
ATOM     24  C   UNL     1       1.550   8.162  20.412  0.00  0.00    +0.000 A 
ENDBRANCH  18  19
BRANCH  18  25
ATOM     25  C   UNL     1       2.214   5.005  19.565  0.00  0.00    +0.000 A 
ATOM     26  C   UNL     1       1.781   4.393  18.376  0.00  0.00    +0.000 A 
ATOM     27  C   UNL     1       1.048   3.204  18.404  0.00  0.00    +0.000 A 
ATOM     28  C   UNL     1       0.740   2.601  19.621  0.00  0.00    +0.000 A 
ATOM     29  C   UNL     1       1.172   3.185  20.810  0.00  0.00    +0.000 A 
ATOM     30  C   UNL     1       1.907   4.372  20.782  0.00  0.00    +0.000 A 
ENDBRANCH  18  25
ENDBRANCH  17  18
ENDBRANCH  16  17
ENDBRANCH   1  16
TORSDOF 9
ENDMDL
MODEL 3
REMARK VINA RESULT:      -8.6      0.791      1.623
REMARK  Name = 
REMARK  9 active torsions:
REMARK  status: ('A' for Active; 'I' for Inactive)
REMARK    1  A    between atoms: C_4  and  C_5
REMARK    2  A    between atoms: C_5  and  C_6
REMARK    3  A    between atoms: C_6  and  N_7
REMARK    4  A    between atoms: C_10  and  C_11
REMARK    5  A    between atoms: C_11  and  C_12
REMARK    6  A    between atoms: C_12  and  O_13
REMARK    7  A    between atoms: O_13  and  C_14
REMARK    8  A    between atoms: C_14  and  C_15
REMARK    9  A    between atoms: C_14  and  C_21
REMARK                            x       y       z     vdW  Elec       q    Type
REMARK                         _______ _______ _______ _____ _____    ______ ____
ROOT
ATOM      1  C   UNL     1       3.475   2.475  17.910  0.00  0.00    +0.000 C 
ENDROOT
BRANCH   1   5
ATOM      2  N   UNL     1       2.516   4.852  20.656  0.00  0.00    +0.000 NA
ATOM      3  C   UNL     1       1.881   3.545  20.419  0.00  0.00    +0.000 C 
ATOM      4  C   UNL     1       2.904   2.403  20.383  0.00  0.00    +0.000 C 
ATOM      5  C   UNL     1       4.010   2.639  19.347  0.00  0.00    +0.000 C 
ATOM      6  C   UNL     1       4.627   4.016  19.628  0.00  0.00    +0.000 C 
ATOM      7  C   UNL     1       3.572   5.124  19.664  0.00  0.00    +0.000 C 
BRANCH   2   8
ATOM      8  C   UNL     1       1.532   5.959  20.633  0.00  0.00    +0.000 C 
BRANCH   8   9
ATOM      9  C   UNL     1       2.102   7.310  20.167  0.00  0.00    +0.000 C 
BRANCH   9  13
ATOM     10  C   UNL     1      -0.177  10.648  21.680  0.00  0.00    +0.000 A 
ATOM     11  C   UNL     1       0.103  10.554  20.318  0.00  0.00    +0.000 A 
ATOM     12  C   UNL     1       0.840   9.474  19.830  0.00  0.00    +0.000 A 
ATOM     13  C   UNL     1       1.299   8.474  20.700  0.00  0.00    +0.000 A 
ATOM     14  C   UNL     1       1.018   8.583  22.068  0.00  0.00    +0.000 A 
ATOM     15  C   UNL     1       0.281   9.665  22.554  0.00  0.00    +0.000 A 
ENDBRANCH   9  13
ENDBRANCH   8   9
ENDBRANCH   2   8
ENDBRANCH   1   5
BRANCH   1  16
ATOM     16  C   UNL     1       3.699   3.709  17.042  0.00  0.00    +0.000 C 
BRANCH  16  17
ATOM     17  O   UNL     1       4.937   3.556  16.347  0.00  0.00    +0.000 OA
BRANCH  17  18
ATOM     18  C   UNL     1       5.427   4.792  15.787  0.00  0.00    +0.000 C 
BRANCH  18  19
ATOM     19  C   UNL     1       6.414   5.426  16.758  0.00  0.00    +0.000 A 
ATOM     20  C   UNL     1       7.169   4.629  17.634  0.00  0.00    +0.000 A 
ATOM     21  C   UNL     1       7.988   5.217  18.596  0.00  0.00    +0.000 A 
ATOM     22  C   UNL     1       8.069   6.606  18.691  0.00  0.00    +0.000 A 
ATOM     23  C   UNL     1       7.339   7.408  17.816  0.00  0.00    +0.000 A 
ATOM     24  C   UNL     1       6.516   6.824  16.853  0.00  0.00    +0.000 A 
ENDBRANCH  18  19
BRANCH  18  25
ATOM     25  C   UNL     1       6.008   4.551  14.393  0.00  0.00    +0.000 A 
ATOM     26  C   UNL     1       7.235   5.112  13.997  0.00  0.00    +0.000 A 
ATOM     27  C   UNL     1       7.763   4.862  12.728  0.00  0.00    +0.000 A 
ATOM     28  C   UNL     1       7.079   4.043  11.834  0.00  0.00    +0.000 A 
ATOM     29  C   UNL     1       5.868   3.467  12.213  0.00  0.00    +0.000 A 
ATOM     30  C   UNL     1       5.341   3.714  13.482  0.00  0.00    +0.000 A 
ENDBRANCH  18  25
ENDBRANCH  17  18
ENDBRANCH  16  17
ENDBRANCH   1  16
TORSDOF 9
ENDMDL
MODEL 4
REMARK VINA RESULT:      -8.6      3.428      6.796
REMARK  Name = 
REMARK  9 active torsions:
REMARK  status: ('A' for Active; 'I' for Inactive)
REMARK    1  A    between atoms: C_4  and  C_5
REMARK    2  A    between atoms: C_5  and  C_6
REMARK    3  A    between atoms: C_6  and  N_7
REMARK    4  A    between atoms: C_10  and  C_11
REMARK    5  A    between atoms: C_11  and  C_12
REMARK    6  A    between atoms: C_12  and  O_13
REMARK    7  A    between atoms: O_13  and  C_14
REMARK    8  A    between atoms: C_14  and  C_15
REMARK    9  A    between atoms: C_14  and  C_21
REMARK                            x       y       z     vdW  Elec       q    Type
REMARK                         _______ _______ _______ _____ _____    ______ ____
ROOT
ATOM      1  C   UNL     1       1.605   8.963  18.771  0.00  0.00    +0.000 C 
ENDROOT
BRANCH   1   5
ATOM      2  N   UNL     1       0.167  12.166  20.105  0.00  0.00    +0.000 NA
ATOM      3  C   UNL     1       1.560  11.993  19.663  0.00  0.00    +0.000 C 
ATOM      4  C   UNL     1       1.649  11.444  18.234  0.00  0.00    +0.000 C 
ATOM      5  C   UNL     1       0.882  10.127  18.063  0.00  0.00    +0.000 C 
ATOM      6  C   UNL     1      -0.554  10.356  18.550  0.00  0.00    +0.000 C 
ATOM      7  C   UNL     1      -0.597  10.912  19.976  0.00  0.00    +0.000 C 
BRANCH   2   8
ATOM      8  C   UNL     1       0.084  12.642  21.505  0.00  0.00    +0.000 C 
BRANCH   8   9
ATOM      9  C   UNL     1      -0.814  11.788  22.418  0.00  0.00    +0.000 C 
BRANCH   9  13
ATOM     10  C   UNL     1      -3.628  14.206  24.623  0.00  0.00    +0.000 A 
ATOM     11  C   UNL     1      -3.987  12.928  24.199  0.00  0.00    +0.000 A 
ATOM     12  C   UNL     1      -3.077  12.147  23.486  0.00  0.00    +0.000 A 
ATOM     13  C   UNL     1      -1.795  12.636  23.195  0.00  0.00    +0.000 A 
ATOM     14  C   UNL     1      -1.447  13.926  23.620  0.00  0.00    +0.000 A 
ATOM     15  C   UNL     1      -2.360  14.705  24.332  0.00  0.00    +0.000 A 
ENDBRANCH   9  13
ENDBRANCH   8   9
ENDBRANCH   2   8
ENDBRANCH   1   5
BRANCH   1  16
ATOM     16  C   UNL     1       2.649   8.281  17.892  0.00  0.00    +0.000 C 
BRANCH  16  17
ATOM     17  O   UNL     1       3.191   7.172  18.609  0.00  0.00    +0.000 OA
BRANCH  17  18
ATOM     18  C   UNL     1       3.179   5.947  17.848  0.00  0.00    +0.000 C 
BRANCH  18  19
ATOM     19  C   UNL     1       4.611   5.531  17.543  0.00  0.00    +0.000 A 
ATOM     20  C   UNL     1       4.997   5.195  16.235  0.00  0.00    +0.000 A 
ATOM     21  C   UNL     1       6.278   4.709  15.978  0.00  0.00    +0.000 A 
ATOM     22  C   UNL     1       7.191   4.559  17.021  0.00  0.00    +0.000 A 
ATOM     23  C   UNL     1       6.827   4.906  18.321  0.00  0.00    +0.000 A 
ATOM     24  C   UNL     1       5.546   5.390  18.583  0.00  0.00    +0.000 A 
ENDBRANCH  18  19
BRANCH  18  25
ATOM     25  C   UNL     1       2.372   4.873  18.580  0.00  0.00    +0.000 A 
ATOM     26  C   UNL     1       1.997   5.020  19.926  0.00  0.00    +0.000 A 
ATOM     27  C   UNL     1       1.239   4.041  20.573  0.00  0.00    +0.000 A 
ATOM     28  C   UNL     1       0.837   2.899  19.884  0.00  0.00    +0.000 A 
ATOM     29  C   UNL     1       1.188   2.741  18.545  0.00  0.00    +0.000 A 
ATOM     30  C   UNL     1       1.943   3.722  17.898  0.00  0.00    +0.000 A 
ENDBRANCH  18  25
ENDBRANCH  17  18
ENDBRANCH  16  17
ENDBRANCH   1  16
TORSDOF 9
ENDMDL
MODEL 5
REMARK VINA RESULT:      -8.6      0.731      1.230
REMARK  Name = 
REMARK  9 active torsions:
REMARK  status: ('A' for Active; 'I' for Inactive)
REMARK    1  A    between atoms: C_4  and  C_5
REMARK    2  A    between atoms: C_5  and  C_6
REMARK    3  A    between atoms: C_6  and  N_7
REMARK    4  A    between atoms: C_10  and  C_11
REMARK    5  A    between atoms: C_11  and  C_12
REMARK    6  A    between atoms: C_12  and  O_13
REMARK    7  A    between atoms: O_13  and  C_14
REMARK    8  A    between atoms: C_14  and  C_15
REMARK    9  A    between atoms: C_14  and  C_21
REMARK                            x       y       z     vdW  Elec       q    Type
REMARK                         _______ _______ _______ _____ _____    ______ ____
ROOT
ATOM      1  C   UNL     1       3.623   2.476  17.962  0.00  0.00    +0.000 C 
ENDROOT
BRANCH   1   5
ATOM      2  N   UNL     1       1.415   4.628  20.108  0.00  0.00    +0.000 NA
ATOM      3  C   UNL     1       1.597   4.798  18.657  0.00  0.00    +0.000 C 
ATOM      4  C   UNL     1       1.303   3.508  17.882  0.00  0.00    +0.000 C 
ATOM      5  C   UNL     1       2.144   2.324  18.376  0.00  0.00    +0.000 C 
ATOM      6  C   UNL     1       1.932   2.199  19.890  0.00  0.00    +0.000 C 
ATOM      7  C   UNL     1       2.227   3.510  20.623  0.00  0.00    +0.000 C 
BRANCH   2   8
ATOM      8  C   UNL     1       1.754   5.860  20.857  0.00  0.00    +0.000 C 
BRANCH   8   9
ATOM      9  C   UNL     1       2.246   7.025  19.981  0.00  0.00    +0.000 C 
BRANCH   9  13
ATOM     10  C   UNL     1       0.050  10.654  20.780  0.00  0.00    +0.000 A 
ATOM     11  C   UNL     1       0.260   9.726  21.798  0.00  0.00    +0.000 A 
ATOM     12  C   UNL     1       0.970   8.553  21.539  0.00  0.00    +0.000 A 
ATOM     13  C   UNL     1       1.483   8.300  20.258  0.00  0.00    +0.000 A 
ATOM     14  C   UNL     1       1.259   9.236  19.239  0.00  0.00    +0.000 A 
ATOM     15  C   UNL     1       0.547  10.408  19.501  0.00  0.00    +0.000 A 
ENDBRANCH   9  13
ENDBRANCH   8   9
ENDBRANCH   2   8
ENDBRANCH   1   5
BRANCH   1  16
ATOM     16  C   UNL     1       3.915   3.797  17.258  0.00  0.00    +0.000 C 
BRANCH  16  17
ATOM     17  O   UNL     1       5.047   3.617  16.407  0.00  0.00    +0.000 OA
BRANCH  17  18
ATOM     18  C   UNL     1       5.519   4.850  15.826  0.00  0.00    +0.000 C 
BRANCH  18  19
ATOM     19  C   UNL     1       6.494   5.516  16.787  0.00  0.00    +0.000 A 
ATOM     20  C   UNL     1       7.210   4.754  17.724  0.00  0.00    +0.000 A 
ATOM     21  C   UNL     1       8.017   5.377  18.676  0.00  0.00    +0.000 A 
ATOM     22  C   UNL     1       8.125   6.767  18.698  0.00  0.00    +0.000 A 
ATOM     23  C   UNL     1       7.434   7.535  17.762  0.00  0.00    +0.000 A 
ATOM     24  C   UNL     1       6.623   6.915  16.810  0.00  0.00    +0.000 A 
ENDBRANCH  18  19
BRANCH  18  25
ATOM     25  C   UNL     1       6.107   4.595  14.438  0.00  0.00    +0.000 A 
ATOM     26  C   UNL     1       7.279   5.236  14.001  0.00  0.00    +0.000 A 
ATOM     27  C   UNL     1       7.816   4.973  12.739  0.00  0.00    +0.000 A 
ATOM     28  C   UNL     1       7.195   4.059  11.891  0.00  0.00    +0.000 A 
ATOM     29  C   UNL     1       6.040   3.402  12.311  0.00  0.00    +0.000 A 
ATOM     30  C   UNL     1       5.504   3.664  13.574  0.00  0.00    +0.000 A 
ENDBRANCH  18  25
ENDBRANCH  17  18
ENDBRANCH  16  17
ENDBRANCH   1  16
TORSDOF 9
ENDMDL
MODEL 6
REMARK VINA RESULT:      -8.5      3.461      6.750
REMARK  Name = 
REMARK  9 active torsions:
REMARK  status: ('A' for Active; 'I' for Inactive)
REMARK    1  A    between atoms: C_4  and  C_5
REMARK    2  A    between atoms: C_5  and  C_6
REMARK    3  A    between atoms: C_6  and  N_7
REMARK    4  A    between atoms: C_10  and  C_11
REMARK    5  A    between atoms: C_11  and  C_12
REMARK    6  A    between atoms: C_12  and  O_13
REMARK    7  A    between atoms: O_13  and  C_14
REMARK    8  A    between atoms: C_14  and  C_15
REMARK    9  A    between atoms: C_14  and  C_21
REMARK                            x       y       z     vdW  Elec       q    Type
REMARK                         _______ _______ _______ _____ _____    ______ ____
ROOT
ATOM      1  C   UNL     1       1.801   8.820  18.696  0.00  0.00    +0.000 C 
ENDROOT
BRANCH   1   5
ATOM      2  N   UNL     1      -0.480  11.472  20.064  0.00  0.00    +0.000 NA
ATOM      3  C   UNL     1       0.991  11.538  20.086  0.00  0.00    +0.000 C 
ATOM      4  C   UNL     1       1.598  11.351  18.691  0.00  0.00    +0.000 C 
ATOM      5  C   UNL     1       1.147  10.046  18.025  0.00  0.00    +0.000 C 
ATOM      6  C   UNL     1      -0.387  10.019  18.041  0.00  0.00    +0.000 C 
ATOM      7  C   UNL     1      -0.952  10.218  19.449  0.00  0.00    +0.000 C 
BRANCH   2   8
ATOM      8  C   UNL     1      -1.061  11.596  21.421  0.00  0.00    +0.000 C 
BRANCH   8   9
ATOM      9  C   UNL     1      -0.516  12.778  22.243  0.00  0.00    +0.000 C 
BRANCH   9  13
ATOM     10  C   UNL     1      -3.481  14.321  24.974  0.00  0.00    +0.000 A 
ATOM     11  C   UNL     1      -3.750  13.178  24.225  0.00  0.00    +0.000 A 
ATOM     12  C   UNL     1      -2.791  12.680  23.342  0.00  0.00    +0.000 A 
ATOM     13  C   UNL     1      -1.550  13.318  23.205  0.00  0.00    +0.000 A 
ATOM     14  C   UNL     1      -1.292  14.471  23.959  0.00  0.00    +0.000 A 
ATOM     15  C   UNL     1      -2.254  14.968  24.840  0.00  0.00    +0.000 A 
ENDBRANCH   9  13
ENDBRANCH   8   9
ENDBRANCH   2   8
ENDBRANCH   1   5
BRANCH   1  16
ATOM     16  C   UNL     1       2.813   8.115  17.799  0.00  0.00    +0.000 C 
BRANCH  16  17
ATOM     17  O   UNL     1       3.360   7.007  18.516  0.00  0.00    +0.000 OA
BRANCH  17  18
ATOM     18  C   UNL     1       3.280   5.766  17.785  0.00  0.00    +0.000 C 
BRANCH  18  19
ATOM     19  C   UNL     1       4.687   5.264  17.493  0.00  0.00    +0.000 A 
ATOM     20  C   UNL     1       5.691   5.336  18.473  0.00  0.00    +0.000 A 
ATOM     21  C   UNL     1       7.004   4.980  18.168  0.00  0.00    +0.000 A 
ATOM     22  C   UNL     1       7.329   4.540  16.885  0.00  0.00    +0.000 A 
ATOM     23  C   UNL     1       6.339   4.447  15.909  0.00  0.00    +0.000 A 
ATOM     24  C   UNL     1       5.024   4.805  16.209  0.00  0.00    +0.000 A 
ENDBRANCH  18  19
BRANCH  18  25
ATOM     25  C   UNL     1       2.415   4.758  18.542  0.00  0.00    +0.000 A 
ATOM     26  C   UNL     1       1.930   5.023  19.835  0.00  0.00    +0.000 A 
ATOM     27  C   UNL     1       1.120   4.100  20.503  0.00  0.00    +0.000 A 
ATOM     28  C   UNL     1       0.775   2.899  19.889  0.00  0.00    +0.000 A 
ATOM     29  C   UNL     1       1.235   2.623  18.603  0.00  0.00    +0.000 A 
ATOM     30  C   UNL     1       2.042   3.547  17.934  0.00  0.00    +0.000 A 
ENDBRANCH  18  25
ENDBRANCH  17  18
ENDBRANCH  16  17
ENDBRANCH   1  16
TORSDOF 9
ENDMDL
MODEL 7
REMARK VINA RESULT:      -8.5      2.864      7.444
REMARK  Name = 
REMARK  9 active torsions:
REMARK  status: ('A' for Active; 'I' for Inactive)
REMARK    1  A    between atoms: C_4  and  C_5
REMARK    2  A    between atoms: C_5  and  C_6
REMARK    3  A    between atoms: C_6  and  N_7
REMARK    4  A    between atoms: C_10  and  C_11
REMARK    5  A    between atoms: C_11  and  C_12
REMARK    6  A    between atoms: C_12  and  O_13
REMARK    7  A    between atoms: O_13  and  C_14
REMARK    8  A    between atoms: C_14  and  C_15
REMARK    9  A    between atoms: C_14  and  C_21
REMARK                            x       y       z     vdW  Elec       q    Type
REMARK                         _______ _______ _______ _____ _____    ______ ____
ROOT
ATOM      1  C   UNL     1       4.898   4.485  17.711  0.00  0.00    +0.000 C 
ENDROOT
BRANCH   1   5
ATOM      2  N   UNL     1       7.547   7.102  17.216  0.00  0.00    +0.000 NA
ATOM      3  C   UNL     1       7.812   5.697  17.566  0.00  0.00    +0.000 C 
ATOM      4  C   UNL     1       7.159   4.723  16.579  0.00  0.00    +0.000 C 
ATOM      5  C   UNL     1       5.648   4.948  16.445  0.00  0.00    +0.000 C 
ATOM      6  C   UNL     1       5.426   6.425  16.095  0.00  0.00    +0.000 C 
ATOM      7  C   UNL     1       6.100   7.363  17.099  0.00  0.00    +0.000 C 
BRANCH   2   8
ATOM      8  C   UNL     1       8.130   8.040  18.203  0.00  0.00    +0.000 C 
BRANCH   8   9
ATOM      9  C   UNL     1       8.085   9.519  17.782  0.00  0.00    +0.000 C 
BRANCH   9  13
ATOM     10  C   UNL     1      11.080  11.870  19.817  0.00  0.00    +0.000 A 
ATOM     11  C   UNL     1      10.096  11.208  20.548  0.00  0.00    +0.000 A 
ATOM     12  C   UNL     1       9.128  10.448  19.890  0.00  0.00    +0.000 A 
ATOM     13  C   UNL     1       9.139  10.339  18.491  0.00  0.00    +0.000 A 
ATOM     14  C   UNL     1      10.129  11.015  17.765  0.00  0.00    +0.000 A 
ATOM     15  C   UNL     1      11.095  11.775  18.426  0.00  0.00    +0.000 A 
ENDBRANCH   9  13
ENDBRANCH   8   9
ENDBRANCH   2   8
ENDBRANCH   1   5
BRANCH   1  16
ATOM     16  C   UNL     1       5.436   5.117  18.991  0.00  0.00    +0.000 C 
BRANCH  16  17
ATOM     17  O   UNL     1       4.360   5.777  19.658  0.00  0.00    +0.000 OA
BRANCH  17  18
ATOM     18  C   UNL     1       3.128   5.749  18.908  0.00  0.00    +0.000 C 
BRANCH  18  19
ATOM     19  C   UNL     1       2.284   4.570  19.375  0.00  0.00    +0.000 A 
ATOM     20  C   UNL     1       1.453   3.883  18.475  0.00  0.00    +0.000 A 
ATOM     21  C   UNL     1       0.600   2.877  18.926  0.00  0.00    +0.000 A 
ATOM     22  C   UNL     1       0.571   2.540  20.278  0.00  0.00    +0.000 A 
ATOM     23  C   UNL     1       1.403   3.201  21.180  0.00  0.00    +0.000 A 
ATOM     24  C   UNL     1       2.257   4.210  20.733  0.00  0.00    +0.000 A 
ENDBRANCH  18  19
BRANCH  18  25
ATOM     25  C   UNL     1       2.410   7.094  19.013  0.00  0.00    +0.000 A 
ATOM     26  C   UNL     1       1.870   7.552  20.228  0.00  0.00    +0.000 A 
ATOM     27  C   UNL     1       1.239   8.796  20.311  0.00  0.00    +0.000 A 
ATOM     28  C   UNL     1       1.140   9.607  19.184  0.00  0.00    +0.000 A 
ATOM     29  C   UNL     1       1.681   9.177  17.974  0.00  0.00    +0.000 A 
ATOM     30  C   UNL     1       2.314   7.935  17.891  0.00  0.00    +0.000 A 
ENDBRANCH  18  25
ENDBRANCH  17  18
ENDBRANCH  16  17
ENDBRANCH   1  16
TORSDOF 9
ENDMDL
MODEL 8
REMARK VINA RESULT:      -8.5      0.835      1.354
REMARK  Name = 
REMARK  9 active torsions:
REMARK  status: ('A' for Active; 'I' for Inactive)
REMARK    1  A    between atoms: C_4  and  C_5
REMARK    2  A    between atoms: C_5  and  C_6
REMARK    3  A    between atoms: C_6  and  N_7
REMARK    4  A    between atoms: C_10  and  C_11
REMARK    5  A    between atoms: C_11  and  C_12
REMARK    6  A    between atoms: C_12  and  O_13
REMARK    7  A    between atoms: O_13  and  C_14
REMARK    8  A    between atoms: C_14  and  C_15
REMARK    9  A    between atoms: C_14  and  C_21
REMARK                            x       y       z     vdW  Elec       q    Type
REMARK                         _______ _______ _______ _____ _____    ______ ____
ROOT
ATOM      1  C   UNL     1       3.400   2.302  17.962  0.00  0.00    +0.000 C 
ENDROOT
BRANCH   1   5
ATOM      2  N   UNL     1       2.142   5.488  19.505  0.00  0.00    +0.000 NA
ATOM      3  C   UNL     1       1.924   5.092  18.104  0.00  0.00    +0.000 C 
ATOM      4  C   UNL     1       1.282   3.704  17.989  0.00  0.00    +0.000 C 
ATOM      5  C   UNL     1       2.091   2.622  18.715  0.00  0.00    +0.000 C 
ATOM      6  C   UNL     1       2.303   3.088  20.161  0.00  0.00    +0.000 C 
ATOM      7  C   UNL     1       2.937   4.480  20.231  0.00  0.00    +0.000 C 
BRANCH   2   8
ATOM      8  C   UNL     1       2.814   6.803  19.612  0.00  0.00    +0.000 C 
BRANCH   8   9
ATOM      9  C   UNL     1       2.446   7.799  18.498  0.00  0.00    +0.000 C 
BRANCH   9  13
ATOM     10  C   UNL     1      -0.497  10.663  19.828  0.00  0.00    +0.000 A 
ATOM     11  C   UNL     1       0.188   9.882  20.757  0.00  0.00    +0.000 A 
ATOM     12  C   UNL     1       1.139   8.956  20.327  0.00  0.00    +0.000 A 
ATOM     13  C   UNL     1       1.419   8.807  18.960  0.00  0.00    +0.000 A 
ATOM     14  C   UNL     1       0.719   9.593  18.034  0.00  0.00    +0.000 A 
ATOM     15  C   UNL     1      -0.232  10.517  18.468  0.00  0.00    +0.000 A 
ENDBRANCH   9  13
ENDBRANCH   8   9
ENDBRANCH   2   8
ENDBRANCH   1   5
BRANCH   1  16
ATOM     16  C   UNL     1       3.631   3.201  16.753  0.00  0.00    +0.000 C 
BRANCH  16  17
ATOM     17  O   UNL     1       5.035   3.414  16.607  0.00  0.00    +0.000 OA
BRANCH  17  18
ATOM     18  C   UNL     1       5.354   4.681  15.994  0.00  0.00    +0.000 C 
BRANCH  18  19
ATOM     19  C   UNL     1       6.238   5.486  16.937  0.00  0.00    +0.000 A 
ATOM     20  C   UNL     1       6.380   6.873  16.776  0.00  0.00    +0.000 A 
ATOM     21  C   UNL     1       7.275   7.590  17.570  0.00  0.00    +0.000 A 
ATOM     22  C   UNL     1       8.031   6.932  18.539  0.00  0.00    +0.000 A 
ATOM     23  C   UNL     1       7.886   5.558  18.722  0.00  0.00    +0.000 A 
ATOM     24  C   UNL     1       6.994   4.836  17.928  0.00  0.00    +0.000 A 
ENDBRANCH  18  19
BRANCH  18  25
ATOM     25  C   UNL     1       5.972   4.463  14.613  0.00  0.00    +0.000 A 
ATOM     26  C   UNL     1       5.354   3.651  13.646  0.00  0.00    +0.000 A 
ATOM     27  C   UNL     1       5.920   3.483  12.380  0.00  0.00    +0.000 A 
ATOM     28  C   UNL     1       7.111   4.127  12.054  0.00  0.00    +0.000 A 
ATOM     29  C   UNL     1       7.732   4.947  12.994  0.00  0.00    +0.000 A 
ATOM     30  C   UNL     1       7.165   5.118  14.259  0.00  0.00    +0.000 A 
ENDBRANCH  18  25
ENDBRANCH  17  18
ENDBRANCH  16  17
ENDBRANCH   1  16
TORSDOF 9
ENDMDL
MODEL 9
REMARK VINA RESULT:      -8.5      0.545      3.444
REMARK  Name = 
REMARK  9 active torsions:
REMARK  status: ('A' for Active; 'I' for Inactive)
REMARK    1  A    between atoms: C_4  and  C_5
REMARK    2  A    between atoms: C_5  and  C_6
REMARK    3  A    between atoms: C_6  and  N_7
REMARK    4  A    between atoms: C_10  and  C_11
REMARK    5  A    between atoms: C_11  and  C_12
REMARK    6  A    between atoms: C_12  and  O_13
REMARK    7  A    between atoms: O_13  and  C_14
REMARK    8  A    between atoms: C_14  and  C_15
REMARK    9  A    between atoms: C_14  and  C_21
REMARK                            x       y       z     vdW  Elec       q    Type
REMARK                         _______ _______ _______ _____ _____    ______ ____
ROOT
ATOM      1  C   UNL     1       2.881   2.930  17.265  0.00  0.00    +0.000 C 
ENDROOT
BRANCH   1   5
ATOM      2  N   UNL     1       1.742   4.317  20.564  0.00  0.00    +0.000 NA
ATOM      3  C   UNL     1       0.845   3.933  19.462  0.00  0.00    +0.000 C 
ATOM      4  C   UNL     1       1.080   2.490  19.001  0.00  0.00    +0.000 C 
ATOM      5  C   UNL     1       2.538   2.233  18.598  0.00  0.00    +0.000 C 
ATOM      6  C   UNL     1       3.429   2.662  19.771  0.00  0.00    +0.000 C 
ATOM      7  C   UNL     1       3.156   4.104  20.205  0.00  0.00    +0.000 C 
BRANCH   2   8
ATOM      8  C   UNL     1       1.551   5.729  20.969  0.00  0.00    +0.000 C 
BRANCH   8   9
ATOM      9  C   UNL     1       2.151   6.758  19.995  0.00  0.00    +0.000 C 
BRANCH   9  13
ATOM     10  C   UNL     1       0.333  10.644  20.468  0.00  0.00    +0.000 A 
ATOM     11  C   UNL     1       0.307   9.729  21.518  0.00  0.00    +0.000 A 
ATOM     12  C   UNL     1       0.895   8.473  21.364  0.00  0.00    +0.000 A 
ATOM     13  C   UNL     1       1.520   8.122  20.159  0.00  0.00    +0.000 A 
ATOM     14  C   UNL     1       1.534   9.048  19.107  0.00  0.00    +0.000 A 
ATOM     15  C   UNL     1       0.945  10.304  19.263  0.00  0.00    +0.000 A 
ENDBRANCH   9  13
ENDBRANCH   8   9
ENDBRANCH   2   8
ENDBRANCH   1   5
BRANCH   1  16
ATOM     16  C   UNL     1       4.166   3.748  17.329  0.00  0.00    +0.000 C 
BRANCH  16  17
ATOM     17  O   UNL     1       4.601   4.015  15.995  0.00  0.00    +0.000 OA
BRANCH  17  18
ATOM     18  C   UNL     1       6.037   3.999  15.855  0.00  0.00    +0.000 C 
BRANCH  18  19
ATOM     19  C   UNL     1       6.399   4.183  14.388  0.00  0.00    +0.000 A 
ATOM     20  C   UNL     1       5.759   3.428  13.391  0.00  0.00    +0.000 A 
ATOM     21  C   UNL     1       6.170   3.518  12.062  0.00  0.00    +0.000 A 
ATOM     22  C   UNL     1       7.218   4.368  11.710  0.00  0.00    +0.000 A 
ATOM     23  C   UNL     1       7.850   5.136  12.687  0.00  0.00    +0.000 A 
ATOM     24  C   UNL     1       7.444   5.047  14.018  0.00  0.00    +0.000 A 
ENDBRANCH  18  19
BRANCH  18  25
ATOM     25  C   UNL     1       6.674   5.037  16.778  0.00  0.00    +0.000 A 
ATOM     26  C   UNL     1       6.401   6.410  16.647  0.00  0.00    +0.000 A 
ATOM     27  C   UNL     1       6.973   7.344  17.515  0.00  0.00    +0.000 A 
ATOM     28  C   UNL     1       7.823   6.923  18.534  0.00  0.00    +0.000 A 
ATOM     29  C   UNL     1       8.096   5.565  18.689  0.00  0.00    +0.000 A 
ATOM     30  C   UNL     1       7.522   4.631  17.823  0.00  0.00    +0.000 A 
ENDBRANCH  18  25
ENDBRANCH  17  18
ENDBRANCH  16  17
ENDBRANCH   1  16
TORSDOF 9
ENDMDL
