MODEL 1
REMARK VINA RESULT:      -7.1      0.000      0.000
REMARK  Name = 
REMARK  10 active torsions:
REMARK  status: ('A' for Active; 'I' for Inactive)
REMARK    1  A    between atoms: C_1  and  C_2
REMARK    2  A    between atoms: C_2  and  C_3
REMARK    3  A    between atoms: C_2  and  O_4
REMARK    4  A    between atoms: O_4  and  C_5
REMARK    5  A    between atoms: C_9  and  N_10
REMARK    6  A    between atoms: C_11  and  C_13
REMARK    7  A    between atoms: C_13  and  C_14
REMARK    8  A    between atoms: C_19  and  C_21
REMARK    9  A    between atoms: C_21  and  C_22
REMARK   10  A    between atoms: C_21  and  C_23
REMARK                            x       y       z     vdW  Elec       q    Type
REMARK                         _______ _______ _______ _____ _____    ______ ____
ROOT
ATOM      1  N   UNL     1       3.010   6.933  19.448  0.00  0.00    +0.000 N 
ATOM      2  C   UNL     1       2.845   5.908  18.532  0.00  0.00    +0.000 C 
ATOM      3  O   UNL     1       1.785   5.705  17.933  0.00  0.00    +0.000 OA
ATOM      4  H   UNL     1       3.952   7.157  19.749  0.00  0.00    +0.000 HD
ENDROOT
BRANCH   2   5
ATOM      5  C   UNL     1       4.106   5.074  18.136  0.00  0.00    +0.000 C 
ATOM      6  C   UNL     1       3.823   4.401  16.771  0.00  0.00    +0.000 C 
ATOM      7  C   UNL     1       5.308   6.041  17.949  0.00  0.00    +0.000 C 
ATOM      8  C   UNL     1       6.516   5.113  17.934  0.00  0.00    +0.000 C 
ATOM      9  C   UNL     1       6.144   4.051  18.954  0.00  0.00    +0.000 C 
ATOM     10  N   UNL     1       4.689   4.114  19.116  0.00  0.00    +0.000 N 
ATOM     11  C   UNL     1       4.116   3.067  19.824  0.00  0.00    +0.000 C 
ATOM     12  O   UNL     1       4.832   2.147  20.244  0.00  0.00    +0.000 OA
BRANCH  11  13
ATOM     13  C   UNL     1       2.628   3.081  20.175  0.00  0.00    +0.000 C 
ATOM     14  C   UNL     1       1.824   2.115  19.319  0.00  0.00    +0.000 C 
ATOM     15  C   UNL     1       2.452   2.687  21.651  0.00  0.00    +0.000 C 
ENDBRANCH  11  13
ENDBRANCH   2   5
BRANCH   1  20
ATOM     16  C   UNL     1       0.541   9.718  19.436  0.00  0.00    +0.000 A 
ATOM     17  C   UNL     1      -0.107   9.534  20.659  0.00  0.00    +0.000 A 
ATOM     18  C   UNL     1       0.273   8.491  21.498  0.00  0.00    +0.000 A 
ATOM     19  C   UNL     1       1.305   7.631  21.116  0.00  0.00    +0.000 A 
ATOM     20  C   UNL     1       1.964   7.791  19.891  0.00  0.00    +0.000 A 
ATOM     21  C   UNL     1       1.581   8.855  19.065  0.00  0.00    +0.000 A 
BRANCH  16  22
ATOM     22  O   UNL     1       0.138  10.815  18.725  0.00  0.00    +0.000 OA
BRANCH  22  24
ATOM     23  C   UNL     1      -1.467  12.404  17.990  0.00  0.00    +0.000 C 
ATOM     24  C   UNL     1      -1.263  10.961  18.459  0.00  0.00    +0.000 C 
ATOM     25  C   UNL     1      -1.704  10.022  17.337  0.00  0.00    +0.000 C 
ENDBRANCH  22  24
ENDBRANCH  16  22
ENDBRANCH   1  20
TORSDOF 5
ENDMDL
MODEL 2
REMARK VINA RESULT:      -6.9      1.011      1.253
REMARK  Name = 
REMARK  10 active torsions:
REMARK  status: ('A' for Active; 'I' for Inactive)
REMARK    1  A    between atoms: C_1  and  C_2
REMARK    2  A    between atoms: C_2  and  C_3
REMARK    3  A    between atoms: C_2  and  O_4
REMARK    4  A    between atoms: O_4  and  C_5
REMARK    5  A    between atoms: C_9  and  N_10
REMARK    6  A    between atoms: C_11  and  C_13
REMARK    7  A    between atoms: C_13  and  C_14
REMARK    8  A    between atoms: C_19  and  C_21
REMARK    9  A    between atoms: C_21  and  C_22
REMARK   10  A    between atoms: C_21  and  C_23
REMARK                            x       y       z     vdW  Elec       q    Type
REMARK                         _______ _______ _______ _____ _____    ______ ____
ROOT
ATOM      1  N   UNL     1       2.788   6.952  19.581  0.00  0.00    +0.000 N 
ATOM      2  C   UNL     1       2.626   6.012  18.578  0.00  0.00    +0.000 C 
ATOM      3  O   UNL     1       1.651   5.997  17.821  0.00  0.00    +0.000 OA
ATOM      4  H   UNL     1       3.696   7.020  20.028  0.00  0.00    +0.000 HD
ENDROOT
BRANCH   2   5
ATOM      5  C   UNL     1       3.808   5.026  18.304  0.00  0.00    +0.000 C 
ATOM      6  C   UNL     1       3.535   4.320  16.954  0.00  0.00    +0.000 C 
ATOM      7  C   UNL     1       5.120   5.845  18.157  0.00  0.00    +0.000 C 
ATOM      8  C   UNL     1       6.214   4.791  18.263  0.00  0.00    +0.000 C 
ATOM      9  C   UNL     1       5.663   3.829  19.302  0.00  0.00    +0.000 C 
ATOM     10  N   UNL     1       4.216   4.059  19.362  0.00  0.00    +0.000 N 
ATOM     11  C   UNL     1       3.486   3.118  20.075  0.00  0.00    +0.000 C 
ATOM     12  O   UNL     1       4.067   2.148  20.581  0.00  0.00    +0.000 OA
BRANCH  11  13
ATOM     13  C   UNL     1       1.990   3.313  20.324  0.00  0.00    +0.000 C 
ATOM     14  C   UNL     1       1.136   2.626  19.269  0.00  0.00    +0.000 C 
ATOM     15  C   UNL     1       1.627   2.732  21.700  0.00  0.00    +0.000 C 
ENDBRANCH  11  13
ENDBRANCH   2   5
BRANCH   1  20
ATOM     16  C   UNL     1       0.577   9.932  19.303  0.00  0.00    +0.000 A 
ATOM     17  C   UNL     1      -0.109   9.897  20.518  0.00  0.00    +0.000 A 
ATOM     18  C   UNL     1       0.161   8.891  21.441  0.00  0.00    +0.000 A 
ATOM     19  C   UNL     1       1.120   7.918  21.149  0.00  0.00    +0.000 A 
ATOM     20  C   UNL     1       1.814   7.929  19.933  0.00  0.00    +0.000 A 
ATOM     21  C   UNL     1       1.543   8.957  19.022  0.00  0.00    +0.000 A 
BRANCH  16  22
ATOM     22  O   UNL     1       0.286  11.004  18.504  0.00  0.00    +0.000 OA
BRANCH  22  24
ATOM     23  C   UNL     1       2.029  12.617  18.498  0.00  0.00    +0.000 C 
ATOM     24  C   UNL     1       0.613  12.311  18.993  0.00  0.00    +0.000 C 
ATOM     25  C   UNL     1      -0.337  13.360  18.417  0.00  0.00    +0.000 C 
ENDBRANCH  22  24
ENDBRANCH  16  22
ENDBRANCH   1  20
TORSDOF 5
ENDMDL
MODEL 3
REMARK VINA RESULT:      -6.8      1.272      2.366
REMARK  Name = 
REMARK  10 active torsions:
REMARK  status: ('A' for Active; 'I' for Inactive)
REMARK    1  A    between atoms: C_1  and  C_2
REMARK    2  A    between atoms: C_2  and  C_3
REMARK    3  A    between atoms: C_2  and  O_4
REMARK    4  A    between atoms: O_4  and  C_5
REMARK    5  A    between atoms: C_9  and  N_10
REMARK    6  A    between atoms: C_11  and  C_13
REMARK    7  A    between atoms: C_13  and  C_14
REMARK    8  A    between atoms: C_19  and  C_21
REMARK    9  A    between atoms: C_21  and  C_22
REMARK   10  A    between atoms: C_21  and  C_23
REMARK                            x       y       z     vdW  Elec       q    Type
REMARK                         _______ _______ _______ _____ _____    ______ ____
ROOT
ATOM      1  N   UNL     1       3.016   7.172  18.731  0.00  0.00    +0.000 N 
ATOM      2  C   UNL     1       2.777   5.916  18.199  0.00  0.00    +0.000 C 
ATOM      3  O   UNL     1       1.697   5.593  17.696  0.00  0.00    +0.000 OA
ATOM      4  H   UNL     1       3.974   7.424  18.945  0.00  0.00    +0.000 HD
ENDROOT
BRANCH   2   5
ATOM      5  C   UNL     1       3.980   4.924  18.101  0.00  0.00    +0.000 C 
ATOM      6  C   UNL     1       3.827   4.117  16.789  0.00  0.00    +0.000 C 
ATOM      7  C   UNL     1       5.297   5.743  18.004  0.00  0.00    +0.000 C 
ATOM      8  C   UNL     1       6.382   4.710  18.282  0.00  0.00    +0.000 C 
ATOM      9  C   UNL     1       5.747   3.822  19.339  0.00  0.00    +0.000 C 
ATOM     10  N   UNL     1       4.300   4.042  19.259  0.00  0.00    +0.000 N 
ATOM     11  C   UNL     1       3.515   3.149  19.975  0.00  0.00    +0.000 C 
ATOM     12  O   UNL     1       4.054   2.225  20.600  0.00  0.00    +0.000 OA
BRANCH  11  13
ATOM     13  C   UNL     1       2.003   3.348  20.081  0.00  0.00    +0.000 C 
ATOM     14  C   UNL     1       1.236   2.466  19.108  0.00  0.00    +0.000 C 
ATOM     15  C   UNL     1       1.547   3.008  21.510  0.00  0.00    +0.000 C 
ENDBRANCH  11  13
ENDBRANCH   2   5
BRANCH   1  20
ATOM     16  C   UNL     1       0.336   9.253  20.260  0.00  0.00    +0.000 A 
ATOM     17  C   UNL     1       0.073  10.175  19.245  0.00  0.00    +0.000 A 
ATOM     18  C   UNL     1       0.776  10.111  18.046  0.00  0.00    +0.000 A 
ATOM     19  C   UNL     1       1.743   9.120  17.859  0.00  0.00    +0.000 A 
ATOM     20  C   UNL     1       2.029   8.189  18.865  0.00  0.00    +0.000 A 
ATOM     21  C   UNL     1       1.302   8.258  20.060  0.00  0.00    +0.000 A 
BRANCH  16  22
ATOM     22  O   UNL     1      -0.462   9.363  21.365  0.00  0.00    +0.000 OA
BRANCH  22  24
ATOM     23  C   UNL     1      -1.182  11.188  22.704  0.00  0.00    +0.000 C 
ATOM     24  C   UNL     1      -0.025  10.226  22.423  0.00  0.00    +0.000 C 
ATOM     25  C   UNL     1       0.259   9.426  23.694  0.00  0.00    +0.000 C 
ENDBRANCH  22  24
ENDBRANCH  16  22
ENDBRANCH   1  20
TORSDOF 5
ENDMDL
MODEL 4
REMARK VINA RESULT:      -6.8      1.883      3.780
REMARK  Name = 
REMARK  10 active torsions:
REMARK  status: ('A' for Active; 'I' for Inactive)
REMARK    1  A    between atoms: C_1  and  C_2
REMARK    2  A    between atoms: C_2  and  C_3
REMARK    3  A    between atoms: C_2  and  O_4
REMARK    4  A    between atoms: O_4  and  C_5
REMARK    5  A    between atoms: C_9  and  N_10
REMARK    6  A    between atoms: C_11  and  C_13
REMARK    7  A    between atoms: C_13  and  C_14
REMARK    8  A    between atoms: C_19  and  C_21
REMARK    9  A    between atoms: C_21  and  C_22
REMARK   10  A    between atoms: C_21  and  C_23
REMARK                            x       y       z     vdW  Elec       q    Type
REMARK                         _______ _______ _______ _____ _____    ______ ____
ROOT
ATOM      1  N   UNL     1       2.727   6.619  19.163  0.00  0.00    +0.000 N 
ATOM      2  C   UNL     1       2.302   5.490  18.483  0.00  0.00    +0.000 C 
ATOM      3  O   UNL     1       1.415   5.515  17.626  0.00  0.00    +0.000 OA
ATOM      4  H   UNL     1       3.583   6.556  19.703  0.00  0.00    +0.000 HD
ENDROOT
BRANCH   2   5
ATOM      5  C   UNL     1       3.092   4.160  18.711  0.00  0.00    +0.000 C 
ATOM      6  C   UNL     1       3.945   4.326  19.991  0.00  0.00    +0.000 C 
ATOM      7  C   UNL     1       2.076   3.012  18.960  0.00  0.00    +0.000 C 
ATOM      8  C   UNL     1       2.915   1.750  18.801  0.00  0.00    +0.000 C 
ATOM      9  C   UNL     1       3.866   2.112  17.674  0.00  0.00    +0.000 C 
ATOM     10  N   UNL     1       3.883   3.576  17.591  0.00  0.00    +0.000 N 
ATOM     11  C   UNL     1       4.872   4.122  16.784  0.00  0.00    +0.000 C 
ATOM     12  O   UNL     1       5.682   3.375  16.219  0.00  0.00    +0.000 OA
BRANCH  11  13
ATOM     13  C   UNL     1       4.915   5.625  16.509  0.00  0.00    +0.000 C 
ATOM     14  C   UNL     1       5.862   6.357  17.448  0.00  0.00    +0.000 C 
ATOM     15  C   UNL     1       5.383   5.862  15.064  0.00  0.00    +0.000 C 
ENDBRANCH  11  13
ENDBRANCH   2   5
BRANCH   1  20
ATOM     16  C   UNL     1       0.604   9.566  19.974  0.00  0.00    +0.000 A 
ATOM     17  C   UNL     1       0.895  10.430  18.918  0.00  0.00    +0.000 A 
ATOM     18  C   UNL     1       1.791  10.041  17.926  0.00  0.00    +0.000 A 
ATOM     19  C   UNL     1       2.396   8.784  17.990  0.00  0.00    +0.000 A 
ATOM     20  C   UNL     1       2.125   7.903  19.044  0.00  0.00    +0.000 A 
ATOM     21  C   UNL     1       1.209   8.303  20.025  0.00  0.00    +0.000 A 
BRANCH  16  22
ATOM     22  O   UNL     1      -0.343  10.020  20.850  0.00  0.00    +0.000 OA
BRANCH  22  24
ATOM     23  C   UNL     1      -0.725  11.796  22.380  0.00  0.00    +0.000 C 
ATOM     24  C   UNL     1       0.104  10.538  22.110  0.00  0.00    +0.000 C 
ATOM     25  C   UNL     1      -0.157   9.536  23.233  0.00  0.00    +0.000 C 
ENDBRANCH  22  24
ENDBRANCH  16  22
ENDBRANCH   1  20
TORSDOF 5
ENDMDL
MODEL 5
REMARK VINA RESULT:      -6.7      3.243      7.512
REMARK  Name = 
REMARK  10 active torsions:
REMARK  status: ('A' for Active; 'I' for Inactive)
REMARK    1  A    between atoms: C_1  and  C_2
REMARK    2  A    between atoms: C_2  and  C_3
REMARK    3  A    between atoms: C_2  and  O_4
REMARK    4  A    between atoms: O_4  and  C_5
REMARK    5  A    between atoms: C_9  and  N_10
REMARK    6  A    between atoms: C_11  and  C_13
REMARK    7  A    between atoms: C_13  and  C_14
REMARK    8  A    between atoms: C_19  and  C_21
REMARK    9  A    between atoms: C_21  and  C_22
REMARK   10  A    between atoms: C_21  and  C_23
REMARK                            x       y       z     vdW  Elec       q    Type
REMARK                         _______ _______ _______ _____ _____    ______ ____
ROOT
ATOM      1  N   UNL     1       4.317   4.112  16.802  0.00  0.00    +0.000 N 
ATOM      2  C   UNL     1       4.521   3.787  18.132  0.00  0.00    +0.000 C 
ATOM      3  O   UNL     1       5.637   3.777  18.659  0.00  0.00    +0.000 OA
ATOM      4  H   UNL     1       3.367   4.288  16.494  0.00  0.00    +0.000 HD
ENDROOT
BRANCH   2   5
ATOM      5  C   UNL     1       3.261   3.572  19.032  0.00  0.00    +0.000 C 
ATOM      6  C   UNL     1       2.150   2.947  18.156  0.00  0.00    +0.000 C 
ATOM      7  C   UNL     1       3.615   2.554  20.152  0.00  0.00    +0.000 C 
ATOM      8  C   UNL     1       2.471   2.705  21.147  0.00  0.00    +0.000 C 
ATOM      9  C   UNL     1       2.178   4.195  21.108  0.00  0.00    +0.000 C 
ATOM     10  N   UNL     1       2.746   4.703  19.855  0.00  0.00    +0.000 N 
ATOM     11  C   UNL     1       2.380   5.996  19.509  0.00  0.00    +0.000 C 
ATOM     12  O   UNL     1       1.596   6.625  20.233  0.00  0.00    +0.000 OA
BRANCH  11  13
ATOM     13  C   UNL     1       3.006   6.688  18.298  0.00  0.00    +0.000 C 
ATOM     14  C   UNL     1       2.273   7.967  17.922  0.00  0.00    +0.000 C 
ATOM     15  C   UNL     1       4.468   7.039  18.616  0.00  0.00    +0.000 C 
ENDBRANCH  11  13
ENDBRANCH   2   5
BRANCH   1  20
ATOM     16  C   UNL     1       6.187   4.120  13.585  0.00  0.00    +0.000 A 
ATOM     17  C   UNL     1       7.351   4.810  13.929  0.00  0.00    +0.000 A 
ATOM     18  C   UNL     1       7.527   5.272  15.230  0.00  0.00    +0.000 A 
ATOM     19  C   UNL     1       6.539   5.041  16.190  0.00  0.00    +0.000 A 
ATOM     20  C   UNL     1       5.361   4.358  15.865  0.00  0.00    +0.000 A 
ATOM     21  C   UNL     1       5.206   3.886  14.556  0.00  0.00    +0.000 A 
BRANCH  16  22
ATOM     22  O   UNL     1       6.151   3.649  12.301  0.00  0.00    +0.000 OA
BRANCH  22  24
ATOM     23  C   UNL     1       4.143   3.153  11.134  0.00  0.00    +0.000 C 
ATOM     24  C   UNL     1       5.255   2.569  12.009  0.00  0.00    +0.000 C 
ATOM     25  C   UNL     1       5.966   1.472  11.220  0.00  0.00    +0.000 C 
ENDBRANCH  22  24
ENDBRANCH  16  22
ENDBRANCH   1  20
TORSDOF 5
ENDMDL
MODEL 6
REMARK VINA RESULT:      -6.6      2.839      6.667
REMARK  Name = 
REMARK  10 active torsions:
REMARK  status: ('A' for Active; 'I' for Inactive)
REMARK    1  A    between atoms: C_1  and  C_2
REMARK    2  A    between atoms: C_2  and  C_3
REMARK    3  A    between atoms: C_2  and  O_4
REMARK    4  A    between atoms: O_4  and  C_5
REMARK    5  A    between atoms: C_9  and  N_10
REMARK    6  A    between atoms: C_11  and  C_13
REMARK    7  A    between atoms: C_13  and  C_14
REMARK    8  A    between atoms: C_19  and  C_21
REMARK    9  A    between atoms: C_21  and  C_22
REMARK   10  A    between atoms: C_21  and  C_23
REMARK                            x       y       z     vdW  Elec       q    Type
REMARK                         _______ _______ _______ _____ _____    ______ ____
ROOT
ATOM      1  N   UNL     1       4.125   3.835  17.542  0.00  0.00    +0.000 N 
ATOM      2  C   UNL     1       4.310   3.485  18.868  0.00  0.00    +0.000 C 
ATOM      3  O   UNL     1       5.395   3.592  19.447  0.00  0.00    +0.000 OA
ATOM      4  H   UNL     1       3.174   3.904  17.196  0.00  0.00    +0.000 HD
ENDROOT
BRANCH   2   5
ATOM      5  C   UNL     1       3.050   3.079  19.699  0.00  0.00    +0.000 C 
ATOM      6  C   UNL     1       2.052   2.384  18.743  0.00  0.00    +0.000 C 
ATOM      7  C   UNL     1       3.474   2.045  20.779  0.00  0.00    +0.000 C 
ATOM      8  C   UNL     1       2.284   2.010  21.729  0.00  0.00    +0.000 C 
ATOM      9  C   UNL     1       1.825   3.458  21.755  0.00  0.00    +0.000 C 
ATOM     10  N   UNL     1       2.378   4.096  20.557  0.00  0.00    +0.000 N 
ATOM     11  C   UNL     1       1.880   5.358  20.263  0.00  0.00    +0.000 C 
ATOM     12  O   UNL     1       1.002   5.853  20.983  0.00  0.00    +0.000 OA
BRANCH  11  13
ATOM     13  C   UNL     1       2.468   6.184  19.118  0.00  0.00    +0.000 C 
ATOM     14  C   UNL     1       1.777   5.907  17.792  0.00  0.00    +0.000 C 
ATOM     15  C   UNL     1       2.317   7.679  19.444  0.00  0.00    +0.000 C 
ENDBRANCH  11  13
ENDBRANCH   2   5
BRANCH   1  20
ATOM     16  C   UNL     1       6.993   5.798  16.211  0.00  0.00    +0.000 A 
ATOM     17  C   UNL     1       7.269   5.130  15.017  0.00  0.00    +0.000 A 
ATOM     18  C   UNL     1       6.504   4.030  14.640  0.00  0.00    +0.000 A 
ATOM     19  C   UNL     1       5.459   3.597  15.459  0.00  0.00    +0.000 A 
ATOM     20  C   UNL     1       5.168   4.246  16.665  0.00  0.00    +0.000 A 
ATOM     21  C   UNL     1       5.937   5.362  17.022  0.00  0.00    +0.000 A 
BRANCH  16  22
ATOM     22  O   UNL     1       7.758   6.907  16.446  0.00  0.00    +0.000 OA
BRANCH  22  24
ATOM     23  C   UNL     1       8.235   6.816  18.771  0.00  0.00    +0.000 C 
ATOM     24  C   UNL     1       7.541   7.622  17.670  0.00  0.00    +0.000 C 
ATOM     25  C   UNL     1       8.182   9.008  17.609  0.00  0.00    +0.000 C 
ENDBRANCH  22  24
ENDBRANCH  16  22
ENDBRANCH   1  20
TORSDOF 5
ENDMDL
MODEL 7
REMARK VINA RESULT:      -6.5      2.395      3.260
REMARK  Name = 
REMARK  10 active torsions:
REMARK  status: ('A' for Active; 'I' for Inactive)
REMARK    1  A    between atoms: C_1  and  C_2
REMARK    2  A    between atoms: C_2  and  C_3
REMARK    3  A    between atoms: C_2  and  O_4
REMARK    4  A    between atoms: O_4  and  C_5
REMARK    5  A    between atoms: C_9  and  N_10
REMARK    6  A    between atoms: C_11  and  C_13
REMARK    7  A    between atoms: C_13  and  C_14
REMARK    8  A    between atoms: C_19  and  C_21
REMARK    9  A    between atoms: C_21  and  C_22
REMARK   10  A    between atoms: C_21  and  C_23
REMARK                            x       y       z     vdW  Elec       q    Type
REMARK                         _______ _______ _______ _____ _____    ______ ____
ROOT
ATOM      1  N   UNL     1       3.284   6.191  17.831  0.00  0.00    +0.000 N 
ATOM      2  C   UNL     1       4.436   6.426  17.101  0.00  0.00    +0.000 C 
ATOM      3  O   UNL     1       5.021   7.513  17.099  0.00  0.00    +0.000 OA
ATOM      4  H   UNL     1       2.975   5.231  17.938  0.00  0.00    +0.000 HD
ENDROOT
BRANCH   2   5
ATOM      5  C   UNL     1       5.100   5.212  16.373  0.00  0.00    +0.000 C 
ATOM      6  C   UNL     1       4.235   3.959  16.652  0.00  0.00    +0.000 C 
ATOM      7  C   UNL     1       5.078   5.475  14.842  0.00  0.00    +0.000 C 
ATOM      8  C   UNL     1       6.049   4.440  14.287  0.00  0.00    +0.000 C 
ATOM      9  C   UNL     1       7.133   4.385  15.349  0.00  0.00    +0.000 C 
ATOM     10  N   UNL     1       6.551   4.939  16.575  0.00  0.00    +0.000 N 
ATOM     11  C   UNL     1       7.298   4.760  17.731  0.00  0.00    +0.000 C 
ATOM     12  O   UNL     1       8.367   4.136  17.679  0.00  0.00    +0.000 OA
BRANCH  11  13
ATOM     13  C   UNL     1       6.866   5.404  19.049  0.00  0.00    +0.000 C 
ATOM     14  C   UNL     1       5.804   4.588  19.769  0.00  0.00    +0.000 C 
ATOM     15  C   UNL     1       8.089   5.536  19.971  0.00  0.00    +0.000 C 
ENDBRANCH  11  13
ENDBRANCH   2   5
BRANCH   1  20
ATOM     16  C   UNL     1       1.502   9.375  18.567  0.00  0.00    +0.000 A 
ATOM     17  C   UNL     1       1.164   9.211  19.911  0.00  0.00    +0.000 A 
ATOM     18  C   UNL     1       1.528   8.050  20.585  0.00  0.00    +0.000 A 
ATOM     19  C   UNL     1       2.236   7.049  19.914  0.00  0.00    +0.000 A 
ATOM     20  C   UNL     1       2.579   7.188  18.564  0.00  0.00    +0.000 A 
ATOM     21  C   UNL     1       2.219   8.369  17.904  0.00  0.00    +0.000 A 
BRANCH  16  22
ATOM     22  O   UNL     1       1.158  10.582  18.025  0.00  0.00    +0.000 OA
BRANCH  22  24
ATOM     23  C   UNL     1       2.396  12.602  18.200  0.00  0.00    +0.000 C 
ATOM     24  C   UNL     1       1.301  11.749  18.846  0.00  0.00    +0.000 C 
ATOM     25  C   UNL     1       0.006  12.560  18.867  0.00  0.00    +0.000 C 
ENDBRANCH  22  24
ENDBRANCH  16  22
ENDBRANCH   1  20
TORSDOF 5
ENDMDL
MODEL 8
REMARK VINA RESULT:      -6.4      3.224      8.487
REMARK  Name = 
REMARK  10 active torsions:
REMARK  status: ('A' for Active; 'I' for Inactive)
REMARK    1  A    between atoms: C_1  and  C_2
REMARK    2  A    between atoms: C_2  and  C_3
REMARK    3  A    between atoms: C_2  and  O_4
REMARK    4  A    between atoms: O_4  and  C_5
REMARK    5  A    between atoms: C_9  and  N_10
REMARK    6  A    between atoms: C_11  and  C_13
REMARK    7  A    between atoms: C_13  and  C_14
REMARK    8  A    between atoms: C_19  and  C_21
REMARK    9  A    between atoms: C_21  and  C_22
REMARK   10  A    between atoms: C_21  and  C_23
REMARK                            x       y       z     vdW  Elec       q    Type
REMARK                         _______ _______ _______ _____ _____    ______ ____
ROOT
ATOM      1  N   UNL     1       0.550   9.820  19.804  0.00  0.00    +0.000 N 
ATOM      2  C   UNL     1       0.594  10.348  21.083  0.00  0.00    +0.000 C 
ATOM      3  O   UNL     1       1.483  10.073  21.894  0.00  0.00    +0.000 OA
ATOM      4  H   UNL     1      -0.090  10.238  19.138  0.00  0.00    +0.000 HD
ENDROOT
BRANCH   2   5
ATOM      5  C   UNL     1      -0.448  11.453  21.453  0.00  0.00    +0.000 C 
ATOM      6  C   UNL     1      -1.487  11.531  20.308  0.00  0.00    +0.000 C 
ATOM      7  C   UNL     1      -1.196  11.023  22.746  0.00  0.00    +0.000 C 
ATOM      8  C   UNL     1      -1.891  12.300  23.199  0.00  0.00    +0.000 C 
ATOM      9  C   UNL     1      -0.880  13.380  22.856  0.00  0.00    +0.000 C 
ATOM     10  N   UNL     1       0.029  12.805  21.860  0.00  0.00    +0.000 N 
ATOM     11  C   UNL     1       0.882  13.703  21.234  0.00  0.00    +0.000 C 
ATOM     12  O   UNL     1       0.816  14.908  21.513  0.00  0.00    +0.000 OA
BRANCH  11  13
ATOM     13  C   UNL     1       1.967  13.212  20.274  0.00  0.00    +0.000 C 
ATOM     14  C   UNL     1       1.517  13.258  18.823  0.00  0.00    +0.000 C 
ATOM     15  C   UNL     1       3.215  14.097  20.426  0.00  0.00    +0.000 C 
ENDBRANCH  11  13
ENDBRANCH   2   5
BRANCH   1  20
ATOM     16  C   UNL     1       2.468   6.637  19.623  0.00  0.00    +0.000 A 
ATOM     17  C   UNL     1       3.167   6.789  18.424  0.00  0.00    +0.000 A 
ATOM     18  C   UNL     1       3.012   7.948  17.670  0.00  0.00    +0.000 A 
ATOM     19  C   UNL     1       2.159   8.960  18.118  0.00  0.00    +0.000 A 
ATOM     20  C   UNL     1       1.443   8.826  19.313  0.00  0.00    +0.000 A 
ATOM     21  C   UNL     1       1.622   7.660  20.068  0.00  0.00    +0.000 A 
BRANCH  16  22
ATOM     22  O   UNL     1       2.750   5.492  20.317  0.00  0.00    +0.000 OA
BRANCH  22  24
ATOM     23  C   UNL     1       1.247   3.932  19.343  0.00  0.00    +0.000 C 
ATOM     24  C   UNL     1       1.658   4.623  20.646  0.00  0.00    +0.000 C 
ATOM     25  C   UNL     1       2.098   3.552  21.643  0.00  0.00    +0.000 C 
ENDBRANCH  22  24
ENDBRANCH  16  22
ENDBRANCH   1  20
TORSDOF 5
ENDMDL
MODEL 9
REMARK VINA RESULT:      -6.3      2.020      3.575
REMARK  Name = 
REMARK  10 active torsions:
REMARK  status: ('A' for Active; 'I' for Inactive)
REMARK    1  A    between atoms: C_1  and  C_2
REMARK    2  A    between atoms: C_2  and  C_3
REMARK    3  A    between atoms: C_2  and  O_4
REMARK    4  A    between atoms: O_4  and  C_5
REMARK    5  A    between atoms: C_9  and  N_10
REMARK    6  A    between atoms: C_11  and  C_13
REMARK    7  A    between atoms: C_13  and  C_14
REMARK    8  A    between atoms: C_19  and  C_21
REMARK    9  A    between atoms: C_21  and  C_22
REMARK   10  A    between atoms: C_21  and  C_23
REMARK                            x       y       z     vdW  Elec       q    Type
REMARK                         _______ _______ _______ _____ _____    ______ ____
ROOT
ATOM      1  N   UNL     1       3.049   6.559  18.100  0.00  0.00    +0.000 N 
ATOM      2  C   UNL     1       4.027   5.717  18.601  0.00  0.00    +0.000 C 
ATOM      3  O   UNL     1       4.300   5.644  19.803  0.00  0.00    +0.000 OA
ATOM      4  H   UNL     1       2.749   6.424  17.141  0.00  0.00    +0.000 HD
ENDROOT
BRANCH   2   5
ATOM      5  C   UNL     1       4.702   4.713  17.612  0.00  0.00    +0.000 C 
ATOM      6  C   UNL     1       5.283   3.544  18.443  0.00  0.00    +0.000 C 
ATOM      7  C   UNL     1       3.613   4.132  16.668  0.00  0.00    +0.000 C 
ATOM      8  C   UNL     1       4.419   3.480  15.551  0.00  0.00    +0.000 C 
ATOM      9  C   UNL     1       5.592   4.428  15.377  0.00  0.00    +0.000 C 
ATOM     10  N   UNL     1       5.681   5.218  16.609  0.00  0.00    +0.000 N 
ATOM     11  C   UNL     1       6.834   5.978  16.754  0.00  0.00    +0.000 C 
ATOM     12  O   UNL     1       7.713   5.930  15.883  0.00  0.00    +0.000 OA
BRANCH  11  13
ATOM     13  C   UNL     1       6.989   6.946  17.928  0.00  0.00    +0.000 C 
ATOM     14  C   UNL     1       7.803   6.348  19.065  0.00  0.00    +0.000 C 
ATOM     15  C   UNL     1       7.696   8.222  17.441  0.00  0.00    +0.000 C 
ENDBRANCH  11  13
ENDBRANCH   2   5
BRANCH   1  20
ATOM     16  C   UNL     1       1.138   9.635  18.960  0.00  0.00    +0.000 A 
ATOM     17  C   UNL     1       0.880   9.444  20.318  0.00  0.00    +0.000 A 
ATOM     18  C   UNL     1       1.342   8.299  20.961  0.00  0.00    +0.000 A 
ATOM     19  C   UNL     1       2.066   7.343  20.244  0.00  0.00    +0.000 A 
ATOM     20  C   UNL     1       2.330   7.510  18.879  0.00  0.00    +0.000 A 
ATOM     21  C   UNL     1       1.872   8.675  18.251  0.00  0.00    +0.000 A 
BRANCH  16  22
ATOM     22  O   UNL     1       0.701  10.826  18.449  0.00  0.00    +0.000 OA
BRANCH  22  24
ATOM     23  C   UNL     1      -0.712  12.735  18.501  0.00  0.00    +0.000 C 
ATOM     24  C   UNL     1      -0.646  11.223  18.735  0.00  0.00    +0.000 C 
ATOM     25  C   UNL     1      -1.627  10.544  17.782  0.00  0.00    +0.000 C 
ENDBRANCH  22  24
ENDBRANCH  16  22
ENDBRANCH   1  20
TORSDOF 5
ENDMDL
