MODEL 1
REMARK VINA RESULT:      -8.2      0.000      0.000
REMARK  Name = 
REMARK  3 active torsions:
REMARK  status: ('A' for Active; 'I' for Inactive)
REMARK    1  A    between atoms: C_1  and  C_2
REMARK    2  A    between atoms: C_7  and  C_8
REMARK    3  A    between atoms: N_10  and  C_11
REMARK                            x       y       z     vdW  Elec       q    Type
REMARK                         _______ _______ _______ _____ _____    ______ ____
ROOT
ATOM      1  C   UNL     1       7.817   7.916  18.116  0.00  0.00    +0.000 A 
ATOM      2  C   UNL     1       8.453   6.927  18.863  0.00  0.00    +0.000 A 
ATOM      3  C   UNL     1       7.806   5.719  19.143  0.00  0.00    +0.000 A 
ATOM      4  C   UNL     1       6.517   5.476  18.695  0.00  0.00    +0.000 A 
ATOM      5  N   UNL     1       5.940   4.295  18.973  0.00  0.00    +0.000 NA
ATOM      6  C   UNL     1       4.687   4.103  18.529  0.00  0.00    +0.000 A 
ATOM      7  C   UNL     1       4.042   2.902  18.800  0.00  0.00    +0.000 A 
ATOM      8  C   UNL     1       2.733   2.669  18.378  0.00  0.00    +0.000 A 
ATOM      9  C   UNL     1       2.062   3.652  17.664  0.00  0.00    +0.000 A 
ATOM     10  C   UNL     1       2.708   4.858  17.377  0.00  0.00    +0.000 A 
ATOM     11  C   UNL     1       4.006   5.105  17.802  0.00  0.00    +0.000 A 
ATOM     12  N   UNL     1       4.591   6.288  17.522  0.00  0.00    +0.000 NA
ATOM     13  C   UNL     1       5.847   6.481  17.966  0.00  0.00    +0.000 A 
ATOM     14  C   UNL     1       6.502   7.685  17.697  0.00  0.00    +0.000 A 
ENDROOT
BRANCH   1  17
ATOM     15  C   UNL     1       8.943  10.085  18.617  0.00  0.00    +0.000 C 
ATOM     16  O   UNL     1       8.948   9.975  19.841  0.00  0.00    +0.000 OA
ATOM     17  N   UNL     1       8.436   9.137  17.740  0.00  0.00    +0.000 N 
ATOM     18  H   UNL     1       8.663   9.244  16.762  0.00  0.00    +0.000 HD
BRANCH  15  25
ATOM     19  C   UNL     1       7.515  12.592  17.366  0.00  0.00    +0.000 C 
ATOM     20  C   UNL     1       9.002  12.425  17.506  0.00  0.00    +0.000 A 
ATOM     21  C   UNL     1       9.816  13.505  17.100  0.00  0.00    +0.000 A 
ATOM     22  C   UNL     1      11.205  13.463  17.224  0.00  0.00    +0.000 A 
ATOM     23  C   UNL     1      11.818  12.332  17.745  0.00  0.00    +0.000 A 
ATOM     24  C   UNL     1      11.034  11.253  18.148  0.00  0.00    +0.000 A 
ATOM     25  C   UNL     1       9.628  11.281  18.040  0.00  0.00    +0.000 A 
ENDBRANCH  15  25
ENDBRANCH   1  17
TORSDOF 2
ENDMDL
MODEL 2
REMARK VINA RESULT:      -7.9      5.788      7.698
REMARK  Name = 
REMARK  3 active torsions:
REMARK  status: ('A' for Active; 'I' for Inactive)
REMARK    1  A    between atoms: C_1  and  C_2
REMARK    2  A    between atoms: C_7  and  C_8
REMARK    3  A    between atoms: N_10  and  C_11
REMARK                            x       y       z     vdW  Elec       q    Type
REMARK                         _______ _______ _______ _____ _____    ______ ____
ROOT
ATOM      1  C   UNL     1       1.407   7.874  20.131  0.00  0.00    +0.000 A 
ATOM      2  C   UNL     1       1.452   6.642  20.781  0.00  0.00    +0.000 A 
ATOM      3  C   UNL     1       2.261   5.609  20.295  0.00  0.00    +0.000 A 
ATOM      4  C   UNL     1       3.031   5.779  19.154  0.00  0.00    +0.000 A 
ATOM      5  N   UNL     1       3.806   4.766  18.733  0.00  0.00    +0.000 NA
ATOM      6  C   UNL     1       4.529   4.967  17.619  0.00  0.00    +0.000 A 
ATOM      7  C   UNL     1       5.339   3.946  17.136  0.00  0.00    +0.000 A 
ATOM      8  C   UNL     1       6.089   4.104  15.970  0.00  0.00    +0.000 A 
ATOM      9  C   UNL     1       6.034   5.308  15.283  0.00  0.00    +0.000 A 
ATOM     10  C   UNL     1       5.232   6.344  15.768  0.00  0.00    +0.000 A 
ATOM     11  C   UNL     1       4.472   6.194  16.921  0.00  0.00    +0.000 A 
ATOM     12  N   UNL     1       3.695   7.209  17.350  0.00  0.00    +0.000 NA
ATOM     13  C   UNL     1       2.971   7.009  18.467  0.00  0.00    +0.000 A 
ATOM     14  C   UNL     1       2.155   8.030  18.960  0.00  0.00    +0.000 A 
ENDROOT
BRANCH   1  17
ATOM     15  C   UNL     1       0.895   9.663  21.792  0.00  0.00    +0.000 C 
ATOM     16  O   UNL     1       1.804   9.407  22.578  0.00  0.00    +0.000 OA
ATOM     17  N   UNL     1       0.661   8.984  20.604  0.00  0.00    +0.000 N 
ATOM     18  H   UNL     1       0.016   9.404  19.951  0.00  0.00    +0.000 HD
BRANCH  15  25
ATOM     19  C   UNL     1       1.250  12.528  20.544  0.00  0.00    +0.000 C 
ATOM     20  C   UNL     1       0.178  12.139  21.522  0.00  0.00    +0.000 A 
ATOM     21  C   UNL     1      -0.780  13.120  21.857  0.00  0.00    +0.000 A 
ATOM     22  C   UNL     1      -1.837  12.846  22.726  0.00  0.00    +0.000 A 
ATOM     23  C   UNL     1      -1.955  11.585  23.295  0.00  0.00    +0.000 A 
ATOM     24  C   UNL     1      -1.018  10.603  22.981  0.00  0.00    +0.000 A 
ATOM     25  C   UNL     1       0.051  10.858  22.096  0.00  0.00    +0.000 A 
ENDBRANCH  15  25
ENDBRANCH   1  17
TORSDOF 2
ENDMDL
MODEL 3
REMARK VINA RESULT:      -7.8      5.378      9.799
REMARK  Name = 
REMARK  3 active torsions:
REMARK  status: ('A' for Active; 'I' for Inactive)
REMARK    1  A    between atoms: C_1  and  C_2
REMARK    2  A    between atoms: C_7  and  C_8
REMARK    3  A    between atoms: N_10  and  C_11
REMARK                            x       y       z     vdW  Elec       q    Type
REMARK                         _______ _______ _______ _____ _____    ______ ____
ROOT
ATOM      1  C   UNL     1       1.484   9.667  18.137  0.00  0.00    +0.000 A 
ATOM      2  C   UNL     1       0.194   9.873  18.623  0.00  0.00    +0.000 A 
ATOM      3  C   UNL     1      -0.250  11.161  18.939  0.00  0.00    +0.000 A 
ATOM      4  C   UNL     1       0.578  12.263  18.786  0.00  0.00    +0.000 A 
ATOM      5  N   UNL     1       0.104  13.483  19.086  0.00  0.00    +0.000 NA
ATOM      6  C   UNL     1       0.941  14.523  18.933  0.00  0.00    +0.000 A 
ATOM      7  C   UNL     1       0.502  15.805  19.240  0.00  0.00    +0.000 A 
ATOM      8  C   UNL     1       1.344  16.910  19.118  0.00  0.00    +0.000 A 
ATOM      9  C   UNL     1       2.646  16.728  18.671  0.00  0.00    +0.000 A 
ATOM     10  C   UNL     1       3.092  15.444  18.349  0.00  0.00    +0.000 A 
ATOM     11  C   UNL     1       2.265  14.335  18.478  0.00  0.00    +0.000 A 
ATOM     12  N   UNL     1       2.735  13.108  18.175  0.00  0.00    +0.000 NA
ATOM     13  C   UNL     1       1.897  12.066  18.326  0.00  0.00    +0.000 A 
ATOM     14  C   UNL     1       2.330  10.774  18.019  0.00  0.00    +0.000 A 
ENDROOT
BRANCH   1  17
ATOM     15  C   UNL     1       2.400   7.392  18.592  0.00  0.00    +0.000 C 
ATOM     16  O   UNL     1       2.373   7.459  19.819  0.00  0.00    +0.000 OA
ATOM     17  N   UNL     1       1.978   8.398  17.735  0.00  0.00    +0.000 N 
ATOM     18  H   UNL     1       1.863   8.158  16.761  0.00  0.00    +0.000 HD
BRANCH  15  25
ATOM     19  C   UNL     1       5.191   6.803  17.268  0.00  0.00    +0.000 C 
ATOM     20  C   UNL     1       4.081   5.802  17.425  0.00  0.00    +0.000 A 
ATOM     21  C   UNL     1       4.336   4.480  17.001  0.00  0.00    +0.000 A 
ATOM     22  C   UNL     1       3.384   3.469  17.140  0.00  0.00    +0.000 A 
ATOM     23  C   UNL     1       2.145   3.759  17.694  0.00  0.00    +0.000 A 
ATOM     24  C   UNL     1       1.870   5.058  18.115  0.00  0.00    +0.000 A 
ATOM     25  C   UNL     1       2.824   6.090  17.993  0.00  0.00    +0.000 A 
ENDBRANCH  15  25
ENDBRANCH   1  17
TORSDOF 2
ENDMDL
MODEL 4
REMARK VINA RESULT:      -7.8      5.595      7.550
REMARK  Name = 
REMARK  3 active torsions:
REMARK  status: ('A' for Active; 'I' for Inactive)
REMARK    1  A    between atoms: C_1  and  C_2
REMARK    2  A    between atoms: C_7  and  C_8
REMARK    3  A    between atoms: N_10  and  C_11
REMARK                            x       y       z     vdW  Elec       q    Type
REMARK                         _______ _______ _______ _____ _____    ______ ____
ROOT
ATOM      1  C   UNL     1       1.866   7.500  20.216  0.00  0.00    +0.000 A 
ATOM      2  C   UNL     1       1.651   6.178  20.602  0.00  0.00    +0.000 A 
ATOM      3  C   UNL     1       2.253   5.125  19.906  0.00  0.00    +0.000 A 
ATOM      4  C   UNL     1       3.070   5.364  18.811  0.00  0.00    +0.000 A 
ATOM      5  N   UNL     1       3.641   4.324  18.183  0.00  0.00    +0.000 NA
ATOM      6  C   UNL     1       4.418   4.597  17.121  0.00  0.00    +0.000 A 
ATOM      7  C   UNL     1       5.022   3.555  16.430  0.00  0.00    +0.000 A 
ATOM      8  C   UNL     1       5.818   3.791  15.309  0.00  0.00    +0.000 A 
ATOM      9  C   UNL     1       6.019   5.096  14.879  0.00  0.00    +0.000 A 
ATOM     10  C   UNL     1       5.423   6.151  15.576  0.00  0.00    +0.000 A 
ATOM     11  C   UNL     1       4.621   5.926  16.686  0.00  0.00    +0.000 A 
ATOM     12  N   UNL     1       4.048   6.968  17.322  0.00  0.00    +0.000 NA
ATOM     13  C   UNL     1       3.270   6.695  18.387  0.00  0.00    +0.000 A 
ATOM     14  C   UNL     1       2.660   7.737  19.088  0.00  0.00    +0.000 A 
ENDROOT
BRANCH   1  17
ATOM     15  C   UNL     1       0.584   9.635  20.350  0.00  0.00    +0.000 C 
ATOM     16  O   UNL     1       0.243   9.684  19.171  0.00  0.00    +0.000 OA
ATOM     17  N   UNL     1       1.341   8.618  20.914  0.00  0.00    +0.000 N 
ATOM     18  H   UNL     1       1.391   8.583  21.922  0.00  0.00    +0.000 HD
BRANCH  15  25
ATOM     19  C   UNL     1       1.031  12.729  20.006  0.00  0.00    +0.000 C 
ATOM     20  C   UNL     1       0.217  12.090  21.096  0.00  0.00    +0.000 A 
ATOM     21  C   UNL     1      -0.447  12.950  21.997  0.00  0.00    +0.000 A 
ATOM     22  C   UNL     1      -1.258  12.455  23.019  0.00  0.00    +0.000 A 
ATOM     23  C   UNL     1      -1.412  11.085  23.177  0.00  0.00    +0.000 A 
ATOM     24  C   UNL     1      -0.762  10.217  22.301  0.00  0.00    +0.000 A 
ATOM     25  C   UNL     1       0.053  10.700  21.255  0.00  0.00    +0.000 A 
ENDBRANCH  15  25
ENDBRANCH   1  17
TORSDOF 2
ENDMDL
MODEL 5
REMARK VINA RESULT:      -7.7      1.584      2.375
REMARK  Name = 
REMARK  3 active torsions:
REMARK  status: ('A' for Active; 'I' for Inactive)
REMARK    1  A    between atoms: C_1  and  C_2
REMARK    2  A    between atoms: C_7  and  C_8
REMARK    3  A    between atoms: N_10  and  C_11
REMARK                            x       y       z     vdW  Elec       q    Type
REMARK                         _______ _______ _______ _____ _____    ______ ____
ROOT
ATOM      1  C   UNL     1       7.860   7.459  18.104  0.00  0.00    +0.000 A 
ATOM      2  C   UNL     1       7.397   7.395  16.791  0.00  0.00    +0.000 A 
ATOM      3  C   UNL     1       6.437   6.449  16.419  0.00  0.00    +0.000 A 
ATOM      4  C   UNL     1       5.928   5.545  17.340  0.00  0.00    +0.000 A 
ATOM      5  N   UNL     1       4.995   4.664  16.943  0.00  0.00    +0.000 NA
ATOM      6  C   UNL     1       4.534   3.800  17.863  0.00  0.00    +0.000 A 
ATOM      7  C   UNL     1       3.576   2.861  17.500  0.00  0.00    +0.000 A 
ATOM      8  C   UNL     1       3.086   1.931  18.416  0.00  0.00    +0.000 A 
ATOM      9  C   UNL     1       3.558   1.947  19.722  0.00  0.00    +0.000 A 
ATOM     10  C   UNL     1       4.513   2.896  20.098  0.00  0.00    +0.000 A 
ATOM     11  C   UNL     1       5.016   3.819  19.191  0.00  0.00    +0.000 A 
ATOM     12  N   UNL     1       5.950   4.708  19.585  0.00  0.00    +0.000 NA
ATOM     13  C   UNL     1       6.411   5.575  18.665  0.00  0.00    +0.000 A 
ATOM     14  C   UNL     1       7.373   6.522  19.022  0.00  0.00    +0.000 A 
ENDROOT
BRANCH   1  17
ATOM     15  C   UNL     1       8.680   9.801  18.353  0.00  0.00    +0.000 C 
ATOM     16  O   UNL     1       7.755  10.351  17.759  0.00  0.00    +0.000 OA
ATOM     17  N   UNL     1       8.783   8.434  18.565  0.00  0.00    +0.000 N 
ATOM     18  H   UNL     1       9.476   8.120  19.228  0.00  0.00    +0.000 HD
BRANCH  15  25
ATOM     19  C   UNL     1       8.689  10.793  21.337  0.00  0.00    +0.000 C 
ATOM     20  C   UNL     1       9.744  11.115  20.317  0.00  0.00    +0.000 A 
ATOM     21  C   UNL     1      10.856  11.869  20.751  0.00  0.00    +0.000 A 
ATOM     22  C   UNL     1      11.907  12.187  19.890  0.00  0.00    +0.000 A 
ATOM     23  C   UNL     1      11.866  11.771  18.566  0.00  0.00    +0.000 A 
ATOM     24  C   UNL     1      10.776  11.029  18.115  0.00  0.00    +0.000 A 
ATOM     25  C   UNL     1       9.709  10.689  18.975  0.00  0.00    +0.000 A 
ENDBRANCH  15  25
ENDBRANCH   1  17
TORSDOF 2
ENDMDL
MODEL 6
REMARK VINA RESULT:      -7.7      6.944      9.517
REMARK  Name = 
REMARK  3 active torsions:
REMARK  status: ('A' for Active; 'I' for Inactive)
REMARK    1  A    between atoms: C_1  and  C_2
REMARK    2  A    between atoms: C_7  and  C_8
REMARK    3  A    between atoms: N_10  and  C_11
REMARK                            x       y       z     vdW  Elec       q    Type
REMARK                         _______ _______ _______ _____ _____    ______ ____
ROOT
ATOM      1  C   UNL     1       0.810   9.543  18.304  0.00  0.00    +0.000 A 
ATOM      2  C   UNL     1       1.082  10.468  19.310  0.00  0.00    +0.000 A 
ATOM      3  C   UNL     1       0.080  11.322  19.783  0.00  0.00    +0.000 A 
ATOM      4  C   UNL     1      -1.204  11.278  19.261  0.00  0.00    +0.000 A 
ATOM      5  N   UNL     1      -2.139  12.105  19.757  0.00  0.00    +0.000 NA
ATOM      6  C   UNL     1      -3.368  12.039  19.217  0.00  0.00    +0.000 A 
ATOM      7  C   UNL     1      -4.367  12.881  19.688  0.00  0.00    +0.000 A 
ATOM      8  C   UNL     1      -5.651  12.861  19.142  0.00  0.00    +0.000 A 
ATOM      9  C   UNL     1      -5.940  11.975  18.113  0.00  0.00    +0.000 A 
ATOM     10  C   UNL     1      -4.943  11.116  17.641  0.00  0.00    +0.000 A 
ATOM     11  C   UNL     1      -3.659  11.135  18.170  0.00  0.00    +0.000 A 
ATOM     12  N   UNL     1      -2.718  10.305  17.678  0.00  0.00    +0.000 NA
ATOM     13  C   UNL     1      -1.486  10.370  18.219  0.00  0.00    +0.000 A 
ATOM     14  C   UNL     1      -0.476   9.527  17.752  0.00  0.00    +0.000 A 
ENDROOT
BRANCH   1  17
ATOM     15  C   UNL     1       2.361   7.610  18.581  0.00  0.00    +0.000 C 
ATOM     16  O   UNL     1       2.127   7.394  19.768  0.00  0.00    +0.000 OA
ATOM     17  N   UNL     1       1.759   8.604  17.823  0.00  0.00    +0.000 N 
ATOM     18  H   UNL     1       1.881   8.560  16.822  0.00  0.00    +0.000 HD
BRANCH  15  25
ATOM     19  C   UNL     1       2.007   4.489  18.416  0.00  0.00    +0.000 C 
ATOM     20  C   UNL     1       3.124   5.266  17.779  0.00  0.00    +0.000 A 
ATOM     21  C   UNL     1       4.050   4.545  16.995  0.00  0.00    +0.000 A 
ATOM     22  C   UNL     1       5.101   5.180  16.332  0.00  0.00    +0.000 A 
ATOM     23  C   UNL     1       5.261   6.554  16.448  0.00  0.00    +0.000 A 
ATOM     24  C   UNL     1       4.361   7.285  17.220  0.00  0.00    +0.000 A 
ATOM     25  C   UNL     1       3.286   6.662  17.889  0.00  0.00    +0.000 A 
ENDBRANCH  15  25
ENDBRANCH   1  17
TORSDOF 2
ENDMDL
MODEL 7
REMARK VINA RESULT:      -7.7      6.324      8.082
REMARK  Name = 
REMARK  3 active torsions:
REMARK  status: ('A' for Active; 'I' for Inactive)
REMARK    1  A    between atoms: C_1  and  C_2
REMARK    2  A    between atoms: C_7  and  C_8
REMARK    3  A    between atoms: N_10  and  C_11
REMARK                            x       y       z     vdW  Elec       q    Type
REMARK                         _______ _______ _______ _____ _____    ______ ____
ROOT
ATOM      1  C   UNL     1       1.479   9.184  19.625  0.00  0.00    +0.000 A 
ATOM      2  C   UNL     1       1.907   9.251  18.301  0.00  0.00    +0.000 A 
ATOM      3  C   UNL     1       2.432   8.122  17.663  0.00  0.00    +0.000 A 
ATOM      4  C   UNL     1       2.547   6.912  18.330  0.00  0.00    +0.000 A 
ATOM      5  N   UNL     1       3.040   5.849  17.674  0.00  0.00    +0.000 NA
ATOM      6  C   UNL     1       3.145   4.697  18.358  0.00  0.00    +0.000 A 
ATOM      7  C   UNL     1       3.659   3.571  17.728  0.00  0.00    +0.000 A 
ATOM      8  C   UNL     1       3.806   2.361  18.406  0.00  0.00    +0.000 A 
ATOM      9  C   UNL     1       3.421   2.276  19.737  0.00  0.00    +0.000 A 
ATOM     10  C   UNL     1       2.892   3.401  20.376  0.00  0.00    +0.000 A 
ATOM     11  C   UNL     1       2.752   4.613  19.713  0.00  0.00    +0.000 A 
ATOM     12  N   UNL     1       2.254   5.682  20.366  0.00  0.00    +0.000 NA
ATOM     13  C   UNL     1       2.148   6.836  19.681  0.00  0.00    +0.000 A 
ATOM     14  C   UNL     1       1.631   7.972  20.307  0.00  0.00    +0.000 A 
ENDROOT
BRANCH   1  17
ATOM     15  C   UNL     1      -0.420  10.723  20.121  0.00  0.00    +0.000 C 
ATOM     16  O   UNL     1      -1.232  10.220  19.348  0.00  0.00    +0.000 OA
ATOM     17  N   UNL     1       0.878  10.271  20.312  0.00  0.00    +0.000 N 
ATOM     18  H   UNL     1       1.382  10.635  21.107  0.00  0.00    +0.000 HD
BRANCH  15  25
ATOM     19  C   UNL     1      -1.046  10.523  23.197  0.00  0.00    +0.000 C 
ATOM     20  C   UNL     1      -1.163  11.773  22.371  0.00  0.00    +0.000 A 
ATOM     21  C   UNL     1      -1.523  12.961  23.043  0.00  0.00    +0.000 A 
ATOM     22  C   UNL     1      -1.622  14.181  22.373  0.00  0.00    +0.000 A 
ATOM     23  C   UNL     1      -1.377  14.241  21.008  0.00  0.00    +0.000 A 
ATOM     24  C   UNL     1      -1.025  13.079  20.324  0.00  0.00    +0.000 A 
ATOM     25  C   UNL     1      -0.909  11.839  20.987  0.00  0.00    +0.000 A 
ENDBRANCH  15  25
ENDBRANCH   1  17
TORSDOF 2
ENDMDL
MODEL 8
REMARK VINA RESULT:      -7.6      5.884      7.785
REMARK  Name = 
REMARK  3 active torsions:
REMARK  status: ('A' for Active; 'I' for Inactive)
REMARK    1  A    between atoms: C_1  and  C_2
REMARK    2  A    between atoms: C_7  and  C_8
REMARK    3  A    between atoms: N_10  and  C_11
REMARK                            x       y       z     vdW  Elec       q    Type
REMARK                         _______ _______ _______ _____ _____    ______ ____
ROOT
ATOM      1  C   UNL     1       1.616   8.018  20.192  0.00  0.00    +0.000 A 
ATOM      2  C   UNL     1       1.429   6.745  20.726  0.00  0.00    +0.000 A 
ATOM      3  C   UNL     1       2.055   5.632  20.153  0.00  0.00    +0.000 A 
ATOM      4  C   UNL     1       2.869   5.764  19.039  0.00  0.00    +0.000 A 
ATOM      5  N   UNL     1       3.464   4.671  18.532  0.00  0.00    +0.000 NA
ATOM      6  C   UNL     1       4.237   4.840  17.446  0.00  0.00    +0.000 A 
ATOM      7  C   UNL     1       4.866   3.739  16.877  0.00  0.00    +0.000 A 
ATOM      8  C   UNL     1       5.659   3.864  15.736  0.00  0.00    +0.000 A 
ATOM      9  C   UNL     1       5.832   5.116  15.162  0.00  0.00    +0.000 A 
ATOM     10  C   UNL     1       5.213   6.230  15.734  0.00  0.00    +0.000 A 
ATOM     11  C   UNL     1       4.412   6.115  16.863  0.00  0.00    +0.000 A 
ATOM     12  N   UNL     1       3.815   7.209  17.378  0.00  0.00    +0.000 NA
ATOM     13  C   UNL     1       3.042   7.042  18.467  0.00  0.00    +0.000 A 
ATOM     14  C   UNL     1       2.407   8.143  19.045  0.00  0.00    +0.000 A 
ENDROOT
BRANCH   1  17
ATOM     15  C   UNL     1       0.071   9.976  20.186  0.00  0.00    +0.000 C 
ATOM     16  O   UNL     1      -0.486   9.728  19.118  0.00  0.00    +0.000 OA
ATOM     17  N   UNL     1       1.065   9.196  20.759  0.00  0.00    +0.000 N 
ATOM     18  H   UNL     1       1.305   9.388  21.721  0.00  0.00    +0.000 HD
BRANCH  15  25
ATOM     19  C   UNL     1      -0.733   9.954  23.226  0.00  0.00    +0.000 C 
ATOM     20  C   UNL     1      -0.774  11.160  22.331  0.00  0.00    +0.000 A 
ATOM     21  C   UNL     1      -1.142  12.390  22.917  0.00  0.00    +0.000 A 
ATOM     22  C   UNL     1      -1.173  13.574  22.179  0.00  0.00    +0.000 A 
ATOM     23  C   UNL     1      -0.850  13.555  20.829  0.00  0.00    +0.000 A 
ATOM     24  C   UNL     1      -0.488  12.351  20.229  0.00  0.00    +0.000 A 
ATOM     25  C   UNL     1      -0.440  11.147  20.962  0.00  0.00    +0.000 A 
ENDBRANCH  15  25
ENDBRANCH   1  17
TORSDOF 2
ENDMDL
MODEL 9
REMARK VINA RESULT:      -7.5      7.013      9.661
REMARK  Name = 
REMARK  3 active torsions:
REMARK  status: ('A' for Active; 'I' for Inactive)
REMARK    1  A    between atoms: C_1  and  C_2
REMARK    2  A    between atoms: C_7  and  C_8
REMARK    3  A    between atoms: N_10  and  C_11
REMARK                            x       y       z     vdW  Elec       q    Type
REMARK                         _______ _______ _______ _____ _____    ______ ____
ROOT
ATOM      1  C   UNL     1       1.413   8.556  20.487  0.00  0.00    +0.000 A 
ATOM      2  C   UNL     1       1.515   8.497  21.875  0.00  0.00    +0.000 A 
ATOM      3  C   UNL     1       0.753   9.346  22.684  0.00  0.00    +0.000 A 
ATOM      4  C   UNL     1      -0.116  10.274  22.129  0.00  0.00    +0.000 A 
ATOM      5  N   UNL     1      -0.841  11.058  22.943  0.00  0.00    +0.000 NA
ATOM      6  C   UNL     1      -1.663  11.950  22.366  0.00  0.00    +0.000 A 
ATOM      7  C   UNL     1      -2.427  12.793  23.165  0.00  0.00    +0.000 A 
ATOM      8  C   UNL     1      -3.277  13.748  22.608  0.00  0.00    +0.000 A 
ATOM      9  C   UNL     1      -3.370  13.855  21.227  0.00  0.00    +0.000 A 
ATOM     10  C   UNL     1      -2.615  13.003  20.417  0.00  0.00    +0.000 A 
ATOM     11  C   UNL     1      -1.757  12.056  20.960  0.00  0.00    +0.000 A 
ATOM     12  N   UNL     1      -1.030  11.264  20.147  0.00  0.00    +0.000 NA
ATOM     13  C   UNL     1      -0.206  10.369  20.724  0.00  0.00    +0.000 A 
ATOM     14  C   UNL     1       0.564   9.518  19.929  0.00  0.00    +0.000 A 
ENDROOT
BRANCH   1  17
ATOM     15  C   UNL     1       2.293   6.322  19.813  0.00  0.00    +0.000 C 
ATOM     16  O   UNL     1       1.855   5.690  20.771  0.00  0.00    +0.000 OA
ATOM     17  N   UNL     1       2.106   7.682  19.610  0.00  0.00    +0.000 N 
ATOM     18  H   UNL     1       2.339   8.050  18.699  0.00  0.00    +0.000 HD
BRANCH  15  25
ATOM     19  C   UNL     1       1.239   3.667  18.497  0.00  0.00    +0.000 C 
ATOM     20  C   UNL     1       2.514   4.369  18.124  0.00  0.00    +0.000 A 
ATOM     21  C   UNL     1       3.264   3.827  17.058  0.00  0.00    +0.000 A 
ATOM     22  C   UNL     1       4.443   4.426  16.611  0.00  0.00    +0.000 A 
ATOM     23  C   UNL     1       4.910   5.577  17.230  0.00  0.00    +0.000 A 
ATOM     24  C   UNL     1       4.188   6.127  18.287  0.00  0.00    +0.000 A 
ATOM     25  C   UNL     1       2.989   5.542  18.745  0.00  0.00    +0.000 A 
ENDBRANCH  15  25
ENDBRANCH   1  17
TORSDOF 2
ENDMDL
