MODEL 1
REMARK VINA RESULT:      -7.0      0.000      0.000
REMARK  Name = 
REMARK  6 active torsions:
REMARK  status: ('A' for Active; 'I' for Inactive)
REMARK    1  A    between atoms: C_2  and  O_3
REMARK    2  A    between atoms: C_2  and  C_4
REMARK    3  A    between atoms: N_6  and  C_7
REMARK    4  A    between atoms: N_6  and  C_16
REMARK    5  A    between atoms: C_12  and  C_13
REMARK    6  A    between atoms: C_13  and  O_15
REMARK                            x       y       z     vdW  Elec       q    Type
REMARK                         _______ _______ _______ _____ _____    ______ ____
ROOT
ATOM      1  C   UNL     1      -0.209  12.996  19.253  0.00  0.00    +0.000 C 
ATOM      2  O   UNL     1      -0.682  14.082  18.919  0.00  0.00    +0.000 OA
ATOM      3  N   UNL     1      -0.964  11.852  19.602  0.00  0.00    +0.000 N 
ENDROOT
BRANCH   3   4
ATOM      4  C   UNL     1      -0.412  10.748  20.339  0.00  0.00    +0.000 A 
ATOM      5  C   UNL     1      -0.628  10.726  21.728  0.00  0.00    +0.000 A 
ATOM      6  C   UNL     1       0.029   9.818  22.548  0.00  0.00    +0.000 A 
ATOM      7  C   UNL     1       0.900   8.902  21.984  0.00  0.00    +0.000 A 
ATOM      8  C   UNL     1       1.091   8.842  20.592  0.00  0.00    +0.000 A 
ATOM      9  C   UNL     1       0.418   9.745  19.746  0.00  0.00    +0.000 A 
ATOM     10  C   UNL     1       0.635   9.662  18.258  0.00  0.00    +0.000 C 
ATOM     11  C   UNL     1       1.585   8.605  17.688  0.00  0.00    +0.000 C 
ATOM     12  C   UNL     1       2.314   7.666  18.629  0.00  0.00    +0.000 C 
ATOM     13  C   UNL     1       2.083   7.819  20.118  0.00  0.00    +0.000 C 
ENDBRANCH   3   4
BRANCH   3  14
ATOM     14  C   UNL     1      -2.390  11.998  19.560  0.00  0.00    +0.000 A 
ATOM     15  C   UNL     1      -3.034  12.672  20.614  0.00  0.00    +0.000 A 
ATOM     16  C   UNL     1      -4.397  12.977  20.545  0.00  0.00    +0.000 A 
ATOM     17  C   UNL     1      -5.151  12.566  19.450  0.00  0.00    +0.000 A 
ATOM     18  C   UNL     1      -4.537  11.876  18.403  0.00  0.00    +0.000 A 
ATOM     19  C   UNL     1      -3.149  11.631  18.421  0.00  0.00    +0.000 A 
BRANCH  19  20
ATOM     20  C   UNL     1      -2.505  10.920  17.270  0.00  0.00    +0.000 C 
ATOM     21  O   UNL     1      -2.466   9.705  17.152  0.00  0.00    +0.000 OA
BRANCH  20  22
ATOM     22  O   UNL     1      -1.931  11.740  16.362  0.00  0.00    +0.000 OA
ATOM     23  H   UNL     1      -1.145  11.374  15.914  0.00  0.00    +0.000 HD
ENDBRANCH  20  22
ENDBRANCH  19  20
ENDBRANCH   3  14
BRANCH   1  25
ATOM     24  O   UNL     1       2.046  12.890  20.150  0.00  0.00    +0.000 OA
ATOM     25  C   UNL     1       1.322  12.839  19.168  0.00  0.00    +0.000 C 
BRANCH  25  26
ATOM     26  O   UNL     1       1.746  12.738  17.897  0.00  0.00    +0.000 OA
ATOM     27  H   UNL     1       1.107  13.132  17.260  0.00  0.00    +0.000 HD
ENDBRANCH  25  26
ENDBRANCH   1  25
TORSDOF 6
ENDMDL
MODEL 2
REMARK VINA RESULT:      -6.8      5.151      8.886
REMARK  Name = 
REMARK  6 active torsions:
REMARK  status: ('A' for Active; 'I' for Inactive)
REMARK    1  A    between atoms: C_2  and  O_3
REMARK    2  A    between atoms: C_2  and  C_4
REMARK    3  A    between atoms: N_6  and  C_7
REMARK    4  A    between atoms: N_6  and  C_16
REMARK    5  A    between atoms: C_12  and  C_13
REMARK    6  A    between atoms: C_13  and  O_15
REMARK                            x       y       z     vdW  Elec       q    Type
REMARK                         _______ _______ _______ _____ _____    ______ ____
ROOT
ATOM      1  C   UNL     1       3.817   3.864  17.566  0.00  0.00    +0.000 C 
ATOM      2  O   UNL     1       4.667   3.182  16.995  0.00  0.00    +0.000 OA
ATOM      3  N   UNL     1       4.066   5.089  18.228  0.00  0.00    +0.000 N 
ENDROOT
BRANCH   3   4
ATOM      4  C   UNL     1       3.160   5.655  19.190  0.00  0.00    +0.000 A 
ATOM      5  C   UNL     1       2.766   4.839  20.265  0.00  0.00    +0.000 A 
ATOM      6  C   UNL     1       1.748   5.220  21.128  0.00  0.00    +0.000 A 
ATOM      7  C   UNL     1       1.120   6.439  20.939  0.00  0.00    +0.000 A 
ATOM      8  C   UNL     1       1.530   7.318  19.920  0.00  0.00    +0.000 A 
ATOM      9  C   UNL     1       2.573   6.952  19.048  0.00  0.00    +0.000 A 
ATOM     10  C   UNL     1       2.999   7.909  17.965  0.00  0.00    +0.000 C 
ATOM     11  C   UNL     1       2.290   9.259  17.825  0.00  0.00    +0.000 C 
ATOM     12  C   UNL     1       1.153   9.610  18.764  0.00  0.00    +0.000 C 
ATOM     13  C   UNL     1       0.745   8.593  19.811  0.00  0.00    +0.000 C 
ENDBRANCH   3   4
BRANCH   3  14
ATOM     14  C   UNL     1       5.425   5.546  18.221  0.00  0.00    +0.000 A 
ATOM     15  C   UNL     1       6.193   5.409  19.393  0.00  0.00    +0.000 A 
ATOM     16  C   UNL     1       7.561   5.694  19.392  0.00  0.00    +0.000 A 
ATOM     17  C   UNL     1       8.176   6.173  18.238  0.00  0.00    +0.000 A 
ATOM     18  C   UNL     1       7.429   6.338  17.071  0.00  0.00    +0.000 A 
ATOM     19  C   UNL     1       6.066   5.980  17.034  0.00  0.00    +0.000 A 
BRANCH  19  20
ATOM     20  C   UNL     1       5.292   6.132  15.760  0.00  0.00    +0.000 C 
ATOM     21  O   UNL     1       4.707   7.154  15.432  0.00  0.00    +0.000 OA
BRANCH  20  22
ATOM     22  O   UNL     1       5.262   5.021  14.992  0.00  0.00    +0.000 OA
ATOM     23  H   UNL     1       4.564   4.379  15.220  0.00  0.00    +0.000 HD
ENDBRANCH  20  22
ENDBRANCH  19  20
ENDBRANCH   3  14
BRANCH   1  25
ATOM     24  O   UNL     1       1.443   4.164  17.141  0.00  0.00    +0.000 OA
ATOM     25  C   UNL     1       2.350   3.406  17.448  0.00  0.00    +0.000 C 
BRANCH  25  26
ATOM     26  O   UNL     1       2.195   2.121  17.812  0.00  0.00    +0.000 OA
ATOM     27  H   UNL     1       1.571   2.021  18.567  0.00  0.00    +0.000 HD
ENDBRANCH  25  26
ENDBRANCH   1  25
TORSDOF 6
ENDMDL
MODEL 3
REMARK VINA RESULT:      -6.7      6.293      8.424
REMARK  Name = 
REMARK  6 active torsions:
REMARK  status: ('A' for Active; 'I' for Inactive)
REMARK    1  A    between atoms: C_2  and  O_3
REMARK    2  A    between atoms: C_2  and  C_4
REMARK    3  A    between atoms: N_6  and  C_7
REMARK    4  A    between atoms: N_6  and  C_16
REMARK    5  A    between atoms: C_12  and  C_13
REMARK    6  A    between atoms: C_13  and  O_15
REMARK                            x       y       z     vdW  Elec       q    Type
REMARK                         _______ _______ _______ _____ _____    ______ ____
ROOT
ATOM      1  C   UNL     1       2.879   6.597  18.708  0.00  0.00    +0.000 C 
ATOM      2  O   UNL     1       1.814   6.906  19.243  0.00  0.00    +0.000 OA
ATOM      3  N   UNL     1       3.515   5.340  18.826  0.00  0.00    +0.000 N 
ENDROOT
BRANCH   3   4
ATOM      4  C   UNL     1       4.905   5.137  18.520  0.00  0.00    +0.000 A 
ATOM      5  C   UNL     1       5.835   5.372  19.549  0.00  0.00    +0.000 A 
ATOM      6  C   UNL     1       7.200   5.398  19.298  0.00  0.00    +0.000 A 
ATOM      7  C   UNL     1       7.658   5.169  18.012  0.00  0.00    +0.000 A 
ATOM      8  C   UNL     1       6.768   4.859  16.968  0.00  0.00    +0.000 A 
ATOM      9  C   UNL     1       5.381   4.812  17.211  0.00  0.00    +0.000 A 
ATOM     10  C   UNL     1       4.445   4.476  16.079  0.00  0.00    +0.000 C 
ATOM     11  C   UNL     1       5.012   4.198  14.684  0.00  0.00    +0.000 C 
ATOM     12  C   UNL     1       6.508   4.284  14.451  0.00  0.00    +0.000 C 
ATOM     13  C   UNL     1       7.396   4.660  15.619  0.00  0.00    +0.000 C 
ENDBRANCH   3   4
BRANCH   3  14
ATOM     14  C   UNL     1       2.849   4.368  19.644  0.00  0.00    +0.000 A 
ATOM     15  C   UNL     1       3.046   4.404  21.037  0.00  0.00    +0.000 A 
ATOM     16  C   UNL     1       2.301   3.582  21.888  0.00  0.00    +0.000 A 
ATOM     17  C   UNL     1       1.388   2.673  21.361  0.00  0.00    +0.000 A 
ATOM     18  C   UNL     1       1.194   2.604  19.981  0.00  0.00    +0.000 A 
ATOM     19  C   UNL     1       1.878   3.481  19.115  0.00  0.00    +0.000 A 
BRANCH  19  20
ATOM     20  C   UNL     1       1.627   3.414  17.639  0.00  0.00    +0.000 C 
ATOM     21  O   UNL     1       0.970   4.236  17.018  0.00  0.00    +0.000 OA
BRANCH  20  22
ATOM     22  O   UNL     1       2.172   2.337  17.032  0.00  0.00    +0.000 OA
ATOM     23  H   UNL     1       3.099   2.447  16.748  0.00  0.00    +0.000 HD
ENDBRANCH  20  22
ENDBRANCH  19  20
ENDBRANCH   3  14
BRANCH   1  25
ATOM     24  O   UNL     1       4.708   7.707  17.556  0.00  0.00    +0.000 OA
ATOM     25  C   UNL     1       3.504   7.622  17.740  0.00  0.00    +0.000 C 
BRANCH  25  26
ATOM     26  O   UNL     1       2.579   8.446  17.218  0.00  0.00    +0.000 OA
ATOM     27  H   UNL     1       2.972   9.290  16.898  0.00  0.00    +0.000 HD
ENDBRANCH  25  26
ENDBRANCH   1  25
TORSDOF 6
ENDMDL
MODEL 4
REMARK VINA RESULT:      -6.6      1.988      5.243
REMARK  Name = 
REMARK  6 active torsions:
REMARK  status: ('A' for Active; 'I' for Inactive)
REMARK    1  A    between atoms: C_2  and  O_3
REMARK    2  A    between atoms: C_2  and  C_4
REMARK    3  A    between atoms: N_6  and  C_7
REMARK    4  A    between atoms: N_6  and  C_16
REMARK    5  A    between atoms: C_12  and  C_13
REMARK    6  A    between atoms: C_13  and  O_15
REMARK                            x       y       z     vdW  Elec       q    Type
REMARK                         _______ _______ _______ _____ _____    ______ ____
ROOT
ATOM      1  C   UNL     1      -0.210  13.181  20.033  0.00  0.00    +0.000 C 
ATOM      2  O   UNL     1       0.979  12.968  20.271  0.00  0.00    +0.000 OA
ATOM      3  N   UNL     1      -1.281  12.342  20.419  0.00  0.00    +0.000 N 
ENDROOT
BRANCH   3   4
ATOM      4  C   UNL     1      -2.583  12.409  19.812  0.00  0.00    +0.000 A 
ATOM      5  C   UNL     1      -3.612  13.014  20.555  0.00  0.00    +0.000 A 
ATOM      6  C   UNL     1      -4.936  12.948  20.145  0.00  0.00    +0.000 A 
ATOM      7  C   UNL     1      -5.249  12.290  18.967  0.00  0.00    +0.000 A 
ATOM      8  C   UNL     1      -4.243  11.734  18.156  0.00  0.00    +0.000 A 
ATOM      9  C   UNL     1      -2.893  11.807  18.552  0.00  0.00    +0.000 A 
ATOM     10  C   UNL     1      -1.832  11.207  17.668  0.00  0.00    +0.000 C 
ATOM     11  C   UNL     1      -2.234  10.521  16.359  0.00  0.00    +0.000 C 
ATOM     12  C   UNL     1      -3.699  10.436  15.977  0.00  0.00    +0.000 C 
ATOM     13  C   UNL     1      -4.724  11.027  16.922  0.00  0.00    +0.000 C 
ENDBRANCH   3   4
BRANCH   3  14
ATOM     14  C   UNL     1      -0.926  11.154  21.140  0.00  0.00    +0.000 A 
ATOM     15  C   UNL     1      -0.312  10.096  20.444  0.00  0.00    +0.000 A 
ATOM     16  C   UNL     1       0.193   8.985  21.126  0.00  0.00    +0.000 A 
ATOM     17  C   UNL     1       0.045   8.886  22.507  0.00  0.00    +0.000 A 
ATOM     18  C   UNL     1      -0.581   9.913  23.214  0.00  0.00    +0.000 A 
ATOM     19  C   UNL     1      -1.024  11.075  22.552  0.00  0.00    +0.000 A 
BRANCH  19  20
ATOM     20  C   UNL     1      -1.661  12.181  23.336  0.00  0.00    +0.000 C 
ATOM     21  O   UNL     1      -1.099  13.225  23.629  0.00  0.00    +0.000 OA
BRANCH  20  22
ATOM     22  O   UNL     1      -2.928  11.923  23.732  0.00  0.00    +0.000 OA
ATOM     23  H   UNL     1      -3.621  12.388  23.226  0.00  0.00    +0.000 HD
ENDBRANCH  20  22
ENDBRANCH  19  20
ENDBRANCH   3  14
BRANCH   1  25
ATOM     24  O   UNL     1      -0.997  15.479  19.991  0.00  0.00    +0.000 OA
ATOM     25  C   UNL     1      -0.564  14.524  19.365  0.00  0.00    +0.000 C 
BRANCH  25  26
ATOM     26  O   UNL     1      -0.428  14.472  18.029  0.00  0.00    +0.000 OA
ATOM     27  H   UNL     1       0.228  13.792  17.749  0.00  0.00    +0.000 HD
ENDBRANCH  25  26
ENDBRANCH   1  25
TORSDOF 6
ENDMDL
MODEL 5
REMARK VINA RESULT:      -6.6      1.730      4.380
REMARK  Name = 
REMARK  6 active torsions:
REMARK  status: ('A' for Active; 'I' for Inactive)
REMARK    1  A    between atoms: C_2  and  O_3
REMARK    2  A    between atoms: C_2  and  C_4
REMARK    3  A    between atoms: N_6  and  C_7
REMARK    4  A    between atoms: N_6  and  C_16
REMARK    5  A    between atoms: C_12  and  C_13
REMARK    6  A    between atoms: C_13  and  O_15
REMARK                            x       y       z     vdW  Elec       q    Type
REMARK                         _______ _______ _______ _____ _____    ______ ____
ROOT
ATOM      1  C   UNL     1      -0.786  12.179  18.592  0.00  0.00    +0.000 C 
ATOM      2  O   UNL     1      -0.789  13.088  17.763  0.00  0.00    +0.000 OA
ATOM      3  N   UNL     1       0.216  11.970  19.568  0.00  0.00    +0.000 N 
ENDROOT
BRANCH   3   4
ATOM      4  C   UNL     1       0.391  10.717  20.251  0.00  0.00    +0.000 A 
ATOM      5  C   UNL     1      -0.005  10.653  21.598  0.00  0.00    +0.000 A 
ATOM      6  C   UNL     1       0.307   9.559  22.393  0.00  0.00    +0.000 A 
ATOM      7  C   UNL     1       1.005   8.498  21.843  0.00  0.00    +0.000 A 
ATOM      8  C   UNL     1       1.359   8.488  20.482  0.00  0.00    +0.000 A 
ATOM      9  C   UNL     1       1.034   9.585  19.659  0.00  0.00    +0.000 A 
ATOM     10  C   UNL     1       1.420   9.553  18.203  0.00  0.00    +0.000 C 
ATOM     11  C   UNL     1       2.162   8.337  17.642  0.00  0.00    +0.000 C 
ATOM     12  C   UNL     1       2.520   7.186  18.562  0.00  0.00    +0.000 C 
ATOM     13  C   UNL     1       2.137   7.289  20.023  0.00  0.00    +0.000 C 
ENDBRANCH   3   4
BRANCH   3  14
ATOM     14  C   UNL     1       1.304  12.904  19.567  0.00  0.00    +0.000 A 
ATOM     15  C   UNL     1       2.323  12.756  18.608  0.00  0.00    +0.000 A 
ATOM     16  C   UNL     1       3.320  13.726  18.465  0.00  0.00    +0.000 A 
ATOM     17  C   UNL     1       3.349  14.830  19.312  0.00  0.00    +0.000 A 
ATOM     18  C   UNL     1       2.362  14.985  20.285  0.00  0.00    +0.000 A 
ATOM     19  C   UNL     1       1.304  14.058  20.390  0.00  0.00    +0.000 A 
BRANCH  19  20
ATOM     20  C   UNL     1       0.235  14.263  21.419  0.00  0.00    +0.000 C 
ATOM     21  O   UNL     1       0.353  13.964  22.598  0.00  0.00    +0.000 OA
BRANCH  20  22
ATOM     22  O   UNL     1      -0.910  14.790  20.933  0.00  0.00    +0.000 OA
ATOM     23  H   UNL     1      -1.172  15.643  21.328  0.00  0.00    +0.000 HD
ENDBRANCH  20  22
ENDBRANCH  19  20
ENDBRANCH   3  14
BRANCH   1  25
ATOM     24  O   UNL     1      -2.088  10.196  18.063  0.00  0.00    +0.000 OA
ATOM     25  C   UNL     1      -2.030  11.269  18.644  0.00  0.00    +0.000 C 
BRANCH  25  26
ATOM     26  O   UNL     1      -3.043  11.844  19.313  0.00  0.00    +0.000 OA
ATOM     27  H   UNL     1      -2.771  12.683  19.750  0.00  0.00    +0.000 HD
ENDBRANCH  25  26
ENDBRANCH   1  25
TORSDOF 6
ENDMDL
MODEL 6
REMARK VINA RESULT:      -6.6      1.370      2.136
REMARK  Name = 
REMARK  6 active torsions:
REMARK  status: ('A' for Active; 'I' for Inactive)
REMARK    1  A    between atoms: C_2  and  O_3
REMARK    2  A    between atoms: C_2  and  C_4
REMARK    3  A    between atoms: N_6  and  C_7
REMARK    4  A    between atoms: N_6  and  C_16
REMARK    5  A    between atoms: C_12  and  C_13
REMARK    6  A    between atoms: C_13  and  O_15
REMARK                            x       y       z     vdW  Elec       q    Type
REMARK                         _______ _______ _______ _____ _____    ______ ____
ROOT
ATOM      1  C   UNL     1       0.239  12.582  18.603  0.00  0.00    +0.000 C 
ATOM      2  O   UNL     1      -0.239  13.599  18.102  0.00  0.00    +0.000 OA
ATOM      3  N   UNL     1      -0.450  11.359  18.778  0.00  0.00    +0.000 N 
ENDROOT
BRANCH   3   4
ATOM      4  C   UNL     1      -0.008  10.338  19.688  0.00  0.00    +0.000 A 
ATOM      5  C   UNL     1      -0.354  10.485  21.043  0.00  0.00    +0.000 A 
ATOM      6  C   UNL     1       0.191   9.666  22.022  0.00  0.00    +0.000 A 
ATOM      7  C   UNL     1       1.080   8.670  21.655  0.00  0.00    +0.000 A 
ATOM      8  C   UNL     1       1.399   8.441  20.305  0.00  0.00    +0.000 A 
ATOM      9  C   UNL     1       0.840   9.253  19.299  0.00  0.00    +0.000 A 
ATOM     10  C   UNL     1       1.193   8.990  17.858  0.00  0.00    +0.000 C 
ATOM     11  C   UNL     1       2.155   7.851  17.510  0.00  0.00    +0.000 C 
ATOM     12  C   UNL     1       2.760   7.014  18.619  0.00  0.00    +0.000 C 
ATOM     13  C   UNL     1       2.396   7.347  20.051  0.00  0.00    +0.000 C 
ENDBRANCH   3   4
BRANCH   3  14
ATOM     14  C   UNL     1      -1.813  11.332  18.334  0.00  0.00    +0.000 A 
ATOM     15  C   UNL     1      -2.151  10.526  17.231  0.00  0.00    +0.000 A 
ATOM     16  C   UNL     1      -3.486  10.344  16.858  0.00  0.00    +0.000 A 
ATOM     17  C   UNL     1      -4.501  11.006  17.543  0.00  0.00    +0.000 A 
ATOM     18  C   UNL     1      -4.186  11.829  18.626  0.00  0.00    +0.000 A 
ATOM     19  C   UNL     1      -2.853  11.960  19.064  0.00  0.00    +0.000 A 
BRANCH  19  20
ATOM     20  C   UNL     1      -2.542  12.820  20.251  0.00  0.00    +0.000 C 
ATOM     21  O   UNL     1      -2.516  12.414  21.403  0.00  0.00    +0.000 OA
BRANCH  20  22
ATOM     22  O   UNL     1      -2.314  14.118  19.951  0.00  0.00    +0.000 OA
ATOM     23  H   UNL     1      -1.612  14.273  19.291  0.00  0.00    +0.000 HD
ENDBRANCH  20  22
ENDBRANCH  19  20
ENDBRANCH   3  14
BRANCH   1  25
ATOM     24  O   UNL     1       2.154  12.929  20.058  0.00  0.00    +0.000 OA
ATOM     25  C   UNL     1       1.740  12.609  18.955  0.00  0.00    +0.000 C 
BRANCH  25  26
ATOM     26  O   UNL     1       2.510  12.334  17.889  0.00  0.00    +0.000 OA
ATOM     27  H   UNL     1       3.457  12.221  18.133  0.00  0.00    +0.000 HD
ENDBRANCH  25  26
ENDBRANCH   1  25
TORSDOF 6
ENDMDL
MODEL 7
REMARK VINA RESULT:      -6.5      1.548      5.679
REMARK  Name = 
REMARK  6 active torsions:
REMARK  status: ('A' for Active; 'I' for Inactive)
REMARK    1  A    between atoms: C_2  and  O_3
REMARK    2  A    between atoms: C_2  and  C_4
REMARK    3  A    between atoms: N_6  and  C_7
REMARK    4  A    between atoms: N_6  and  C_16
REMARK    5  A    between atoms: C_12  and  C_13
REMARK    6  A    between atoms: C_13  and  O_15
REMARK                            x       y       z     vdW  Elec       q    Type
REMARK                         _______ _______ _______ _____ _____    ______ ____
ROOT
ATOM      1  C   UNL     1       0.108  12.623  19.622  0.00  0.00    +0.000 C 
ATOM      2  O   UNL     1       1.217  12.785  20.130  0.00  0.00    +0.000 OA
ATOM      3  N   UNL     1      -0.724  11.497  19.826  0.00  0.00    +0.000 N 
ENDROOT
BRANCH   3   4
ATOM      4  C   UNL     1      -1.809  11.160  18.946  0.00  0.00    +0.000 A 
ATOM      5  C   UNL     1      -1.528  10.295  17.873  0.00  0.00    +0.000 A 
ATOM      6  C   UNL     1      -2.452  10.072  16.862  0.00  0.00    +0.000 A 
ATOM      7  C   UNL     1      -3.686  10.698  16.921  0.00  0.00    +0.000 A 
ATOM      8  C   UNL     1      -4.036  11.513  18.011  0.00  0.00    +0.000 A 
ATOM      9  C   UNL     1      -3.115  11.736  19.053  0.00  0.00    +0.000 A 
ATOM     10  C   UNL     1      -3.511  12.611  20.214  0.00  0.00    +0.000 C 
ATOM     11  C   UNL     1      -4.902  13.249  20.241  0.00  0.00    +0.000 C 
ATOM     12  C   UNL     1      -5.860  13.011  19.089  0.00  0.00    +0.000 C 
ATOM     13  C   UNL     1      -5.393  12.151  17.934  0.00  0.00    +0.000 C 
ENDBRANCH   3   4
BRANCH   3  14
ATOM     14  C   UNL     1      -0.208  10.478  20.693  0.00  0.00    +0.000 A 
ATOM     15  C   UNL     1       0.553   9.434  20.136  0.00  0.00    +0.000 A 
ATOM     16  C   UNL     1       1.207   8.507  20.953  0.00  0.00    +0.000 A 
ATOM     17  C   UNL     1       1.067   8.572  22.336  0.00  0.00    +0.000 A 
ATOM     18  C   UNL     1       0.298   9.586  22.910  0.00  0.00    +0.000 A 
ATOM     19  C   UNL     1      -0.302  10.575  22.104  0.00  0.00    +0.000 A 
BRANCH  19  20
ATOM     20  C   UNL     1      -1.094  11.675  22.744  0.00  0.00    +0.000 C 
ATOM     21  O   UNL     1      -2.259  11.565  23.094  0.00  0.00    +0.000 OA
BRANCH  20  22
ATOM     22  O   UNL     1      -0.418  12.836  22.884  0.00  0.00    +0.000 OA
ATOM     23  H   UNL     1       0.457  12.861  22.452  0.00  0.00    +0.000 HD
ENDBRANCH  20  22
ENDBRANCH  19  20
ENDBRANCH   3  14
BRANCH   1  25
ATOM     24  O   UNL     1      -0.876  14.822  19.305  0.00  0.00    +0.000 OA
ATOM     25  C   UNL     1      -0.466  13.791  18.795  0.00  0.00    +0.000 C 
BRANCH  25  26
ATOM     26  O   UNL     1      -0.540  13.490  17.488  0.00  0.00    +0.000 OA
ATOM     27  H   UNL     1       0.119  13.989  16.953  0.00  0.00    +0.000 HD
ENDBRANCH  25  26
ENDBRANCH   1  25
TORSDOF 6
ENDMDL
MODEL 8
REMARK VINA RESULT:      -6.5      1.899      5.666
REMARK  Name = 
REMARK  6 active torsions:
REMARK  status: ('A' for Active; 'I' for Inactive)
REMARK    1  A    between atoms: C_2  and  O_3
REMARK    2  A    between atoms: C_2  and  C_4
REMARK    3  A    between atoms: N_6  and  C_7
REMARK    4  A    between atoms: N_6  and  C_16
REMARK    5  A    between atoms: C_12  and  C_13
REMARK    6  A    between atoms: C_13  and  O_15
REMARK                            x       y       z     vdW  Elec       q    Type
REMARK                         _______ _______ _______ _____ _____    ______ ____
ROOT
ATOM      1  C   UNL     1      -0.110  12.866  19.903  0.00  0.00    +0.000 C 
ATOM      2  O   UNL     1       0.890  13.091  20.585  0.00  0.00    +0.000 OA
ATOM      3  N   UNL     1      -0.961  11.747  20.051  0.00  0.00    +0.000 N 
ENDROOT
BRANCH   3   4
ATOM      4  C   UNL     1      -1.871  11.317  19.025  0.00  0.00    +0.000 A 
ATOM      5  C   UNL     1      -1.361  10.480  18.017  0.00  0.00    +0.000 A 
ATOM      6  C   UNL     1      -2.102  10.178  16.883  0.00  0.00    +0.000 A 
ATOM      7  C   UNL     1      -3.379  10.696  16.750  0.00  0.00    +0.000 A 
ATOM      8  C   UNL     1      -3.956  11.479  17.765  0.00  0.00    +0.000 A 
ATOM      9  C   UNL     1      -3.222  11.780  18.929  0.00  0.00    +0.000 A 
ATOM     10  C   UNL     1      -3.859  12.619  20.007  0.00  0.00    +0.000 C 
ATOM     11  C   UNL     1      -5.288  13.136  19.818  0.00  0.00    +0.000 C 
ATOM     12  C   UNL     1      -6.039  12.816  18.541  0.00  0.00    +0.000 C 
ATOM     13  C   UNL     1      -5.335  11.998  17.479  0.00  0.00    +0.000 C 
ENDBRANCH   3   4
BRANCH   3  14
ATOM     14  C   UNL     1      -0.606  10.813  21.080  0.00  0.00    +0.000 A 
ATOM     15  C   UNL     1       0.241   9.737  20.756  0.00  0.00    +0.000 A 
ATOM     16  C   UNL     1       0.741   8.892  21.752  0.00  0.00    +0.000 A 
ATOM     17  C   UNL     1       0.361   9.073  23.079  0.00  0.00    +0.000 A 
ATOM     18  C   UNL     1      -0.496  10.120  23.420  0.00  0.00    +0.000 A 
ATOM     19  C   UNL     1      -0.945  11.029  22.439  0.00  0.00    +0.000 A 
BRANCH  19  20
ATOM     20  C   UNL     1      -1.836  12.167  22.833  0.00  0.00    +0.000 C 
ATOM     21  O   UNL     1      -1.473  13.332  22.891  0.00  0.00    +0.000 OA
BRANCH  20  22
ATOM     22  O   UNL     1      -3.096  11.800  23.156  0.00  0.00    +0.000 OA
ATOM     23  H   UNL     1      -3.165  10.995  23.703  0.00  0.00    +0.000 HD
ENDBRANCH  20  22
ENDBRANCH  19  20
ENDBRANCH   3  14
BRANCH   1  25
ATOM     24  O   UNL     1      -0.174  13.937  17.723  0.00  0.00    +0.000 OA
ATOM     25  C   UNL     1      -0.530  13.950  18.891  0.00  0.00    +0.000 C 
BRANCH  25  26
ATOM     26  O   UNL     1      -1.240  14.931  19.474  0.00  0.00    +0.000 OA
ATOM     27  H   UNL     1      -0.669  15.549  19.986  0.00  0.00    +0.000 HD
ENDBRANCH  25  26
ENDBRANCH   1  25
TORSDOF 6
ENDMDL
MODEL 9
REMARK VINA RESULT:      -6.4      1.529      5.714
REMARK  Name = 
REMARK  6 active torsions:
REMARK  status: ('A' for Active; 'I' for Inactive)
REMARK    1  A    between atoms: C_2  and  O_3
REMARK    2  A    between atoms: C_2  and  C_4
REMARK    3  A    between atoms: N_6  and  C_7
REMARK    4  A    between atoms: N_6  and  C_16
REMARK    5  A    between atoms: C_12  and  C_13
REMARK    6  A    between atoms: C_13  and  O_15
REMARK                            x       y       z     vdW  Elec       q    Type
REMARK                         _______ _______ _______ _____ _____    ______ ____
ROOT
ATOM      1  C   UNL     1       0.916  12.008  18.617  0.00  0.00    +0.000 C 
ATOM      2  O   UNL     1       2.146  12.006  18.585  0.00  0.00    +0.000 OA
ATOM      3  N   UNL     1       0.105  10.870  18.837  0.00  0.00    +0.000 N 
ENDROOT
BRANCH   3   4
ATOM      4  C   UNL     1      -1.291  10.828  18.495  0.00  0.00    +0.000 A 
ATOM      5  C   UNL     1      -1.639  10.221  17.276  0.00  0.00    +0.000 A 
ATOM      6  C   UNL     1      -2.927  10.309  16.766  0.00  0.00    +0.000 A 
ATOM      7  C   UNL     1      -3.896  10.991  17.483  0.00  0.00    +0.000 A 
ATOM      8  C   UNL     1      -3.609  11.552  18.741  0.00  0.00    +0.000 A 
ATOM      9  C   UNL     1      -2.310  11.456  19.278  0.00  0.00    +0.000 A 
ATOM     10  C   UNL     1      -2.024  12.061  20.628  0.00  0.00    +0.000 C 
ATOM     11  C   UNL     1      -3.144  12.774  21.391  0.00  0.00    +0.000 C 
ATOM     12  C   UNL     1      -4.524  12.883  20.771  0.00  0.00    +0.000 C 
ATOM     13  C   UNL     1      -4.742  12.286  19.397  0.00  0.00    +0.000 C 
ENDBRANCH   3   4
BRANCH   3  14
ATOM     14  C   UNL     1       0.797   9.629  19.032  0.00  0.00    +0.000 A 
ATOM     15  C   UNL     1       1.411   9.015  17.924  0.00  0.00    +0.000 A 
ATOM     16  C   UNL     1       2.226   7.891  18.088  0.00  0.00    +0.000 A 
ATOM     17  C   UNL     1       2.397   7.328  19.350  0.00  0.00    +0.000 A 
ATOM     18  C   UNL     1       1.779   7.908  20.458  0.00  0.00    +0.000 A 
ATOM     19  C   UNL     1       1.019   9.087  20.322  0.00  0.00    +0.000 A 
BRANCH  19  20
ATOM     20  C   UNL     1       0.393   9.712  21.531  0.00  0.00    +0.000 C 
ATOM     21  O   UNL     1       0.803  10.732  22.065  0.00  0.00    +0.000 OA
BRANCH  20  22
ATOM     22  O   UNL     1      -0.669   9.035  22.020  0.00  0.00    +0.000 OA
ATOM     23  H   UNL     1      -0.715   8.095  21.761  0.00  0.00    +0.000 HD
ENDBRANCH  20  22
ENDBRANCH  19  20
ENDBRANCH   3  14
BRANCH   1  25
ATOM     24  O   UNL     1       0.284  14.216  19.411  0.00  0.00    +0.000 OA
ATOM     25  C   UNL     1       0.211  13.376  18.527  0.00  0.00    +0.000 C 
BRANCH  25  26
ATOM     26  O   UNL     1      -0.549  13.477  17.423  0.00  0.00    +0.000 OA
ATOM     27  H   UNL     1      -0.595  12.629  16.925  0.00  0.00    +0.000 HD
ENDBRANCH  25  26
ENDBRANCH   1  25
TORSDOF 6
ENDMDL
