MODEL 1
REMARK VINA RESULT:      -8.0      0.000      0.000
REMARK  Name = 
REMARK  5 active torsions:
REMARK  status: ('A' for Active; 'I' for Inactive)
REMARK    1  A    between atoms: C_2  and  C_24
REMARK    2  A    between atoms: N_3  and  C_4
REMARK    3  A    between atoms: C_10  and  C_11
REMARK    4  A    between atoms: N_13  and  C_14
REMARK    5  A    between atoms: C_18  and  C_19
REMARK                            x       y       z     vdW  Elec       q    Type
REMARK                         _______ _______ _______ _____ _____    ______ ____
ROOT
ATOM      1  C   UNL     1       4.865   4.422  17.035  0.00  0.00    +0.000 A 
ATOM      2  C   UNL     1       5.385   3.359  16.276  0.00  0.00    +0.000 A 
ATOM      3  C   UNL     1       6.079   3.592  15.089  0.00  0.00    +0.000 A 
ATOM      4  C   UNL     1       6.284   4.896  14.662  0.00  0.00    +0.000 A 
ATOM      5 CL   UNL     1       7.203   5.196  13.238  0.00  0.00    +0.000 Cl
ATOM      6  C   UNL     1       5.756   5.969  15.380  0.00  0.00    +0.000 A 
ATOM      7  C   UNL     1       4.998   5.742  16.545  0.00  0.00    +0.000 A 
ENDROOT
BRANCH   1  10
ATOM      8  O   UNL     1       2.316   3.340  17.240  0.00  0.00    +0.000 OA
ATOM      9  C   UNL     1       2.953   3.555  18.267  0.00  0.00    +0.000 C 
ATOM     10  N   UNL     1       4.235   4.104  18.269  0.00  0.00    +0.000 N 
ATOM     11  H   UNL     1       4.819   3.788  19.042  0.00  0.00    +0.000 HD
BRANCH   9  12
ATOM     12  C   UNL     1       2.403   3.199  19.569  0.00  0.00    +0.000 A 
ATOM     13  C   UNL     1       1.107   3.338  20.047  0.00  0.00    +0.000 A 
ATOM     14  C   UNL     1       1.119   2.946  21.401  0.00  0.00    +0.000 A 
ATOM     15  C   UNL     1       2.422   2.573  21.676  0.00  0.00    +0.000 A 
ATOM     16  O   UNL     1       3.203   2.710  20.569  0.00  0.00    +0.000 OA
ENDBRANCH   9  12
ENDBRANCH   1  10
BRANCH   7  17
ATOM     17  C   UNL     1       4.486   6.919  17.303  0.00  0.00    +0.000 C 
ATOM     18  O   UNL     1       5.302   7.736  17.716  0.00  0.00    +0.000 OA
ATOM     19  N   UNL     1       3.112   6.958  17.529  0.00  0.00    +0.000 N 
ATOM     20  H   UNL     1       2.574   6.119  17.347  0.00  0.00    +0.000 HD
BRANCH  19  21
ATOM     21  C   UNL     1       2.410   8.022  18.140  0.00  0.00    +0.000 A 
ATOM     22  C   UNL     1       2.256   9.263  17.523  0.00  0.00    +0.000 A 
ATOM     23  C   UNL     1       1.587  10.307  18.156  0.00  0.00    +0.000 A 
ATOM     24  C   UNL     1       1.057  10.123  19.427  0.00  0.00    +0.000 A 
ATOM     25  C   UNL     1       1.177   8.883  20.073  0.00  0.00    +0.000 A 
ATOM     26  C   UNL     1       1.840   7.827  19.410  0.00  0.00    +0.000 A 
BRANCH  25  27
ATOM     27  C   UNL     1       0.616   8.709  21.465  0.00  0.00    +0.000 C 
ATOM     28  F   UNL     1       1.563   8.447  22.406  0.00  0.00    +0.000 F 
ATOM     29  F   UNL     1      -0.050   9.815  21.903  0.00  0.00    +0.000 F 
ATOM     30  F   UNL     1      -0.276   7.682  21.539  0.00  0.00    +0.000 F 
ENDBRANCH  25  27
ENDBRANCH  19  21
ENDBRANCH   7  17
TORSDOF 5
ENDMDL
MODEL 2
REMARK VINA RESULT:      -8.0      3.062      5.469
REMARK  Name = 
REMARK  5 active torsions:
REMARK  status: ('A' for Active; 'I' for Inactive)
REMARK    1  A    between atoms: C_2  and  C_24
REMARK    2  A    between atoms: N_3  and  C_4
REMARK    3  A    between atoms: C_10  and  C_11
REMARK    4  A    between atoms: N_13  and  C_14
REMARK    5  A    between atoms: C_18  and  C_19
REMARK                            x       y       z     vdW  Elec       q    Type
REMARK                         _______ _______ _______ _____ _____    ______ ____
ROOT
ATOM      1  C   UNL     1       6.944   4.980  14.827  0.00  0.00    +0.000 A 
ATOM      2  C   UNL     1       7.456   4.954  13.518  0.00  0.00    +0.000 A 
ATOM      3  C   UNL     1       6.828   4.220  12.513  0.00  0.00    +0.000 A 
ATOM      4  C   UNL     1       5.663   3.524  12.801  0.00  0.00    +0.000 A 
ATOM      5 CL   UNL     1       4.840   2.677  11.549  0.00  0.00    +0.000 Cl
ATOM      6  C   UNL     1       5.147   3.510  14.097  0.00  0.00    +0.000 A 
ATOM      7  C   UNL     1       5.809   4.195  15.134  0.00  0.00    +0.000 A 
ENDROOT
BRANCH   1  10
ATOM      8  O   UNL     1       5.788   7.222  15.988  0.00  0.00    +0.000 OA
ATOM      9  C   UNL     1       6.931   6.912  16.309  0.00  0.00    +0.000 C 
ATOM     10  N   UNL     1       7.602   5.811  15.776  0.00  0.00    +0.000 N 
ATOM     11  H   UNL     1       8.264   5.380  16.418  0.00  0.00    +0.000 HD
BRANCH   9  12
ATOM     12  C   UNL     1       7.651   7.676  17.320  0.00  0.00    +0.000 A 
ATOM     13  C   UNL     1       8.184   7.254  18.530  0.00  0.00    +0.000 A 
ATOM     14  C   UNL     1       8.682   8.398  19.187  0.00  0.00    +0.000 A 
ATOM     15  C   UNL     1       8.439   9.459  18.334  0.00  0.00    +0.000 A 
ATOM     16  O   UNL     1       7.828   9.028  17.196  0.00  0.00    +0.000 OA
ENDBRANCH   9  12
ENDBRANCH   1  10
BRANCH   7  17
ATOM     17  C   UNL     1       5.202   4.185  16.496  0.00  0.00    +0.000 C 
ATOM     18  O   UNL     1       5.801   3.594  17.388  0.00  0.00    +0.000 OA
ATOM     19  N   UNL     1       3.962   4.808  16.623  0.00  0.00    +0.000 N 
ATOM     20  H   UNL     1       3.461   5.054  15.778  0.00  0.00    +0.000 HD
BRANCH  19  21
ATOM     21  C   UNL     1       3.259   4.994  17.836  0.00  0.00    +0.000 A 
ATOM     22  C   UNL     1       3.254   6.212  18.514  0.00  0.00    +0.000 A 
ATOM     23  C   UNL     1       2.579   6.364  19.722  0.00  0.00    +0.000 A 
ATOM     24  C   UNL     1       1.891   5.290  20.274  0.00  0.00    +0.000 A 
ATOM     25  C   UNL     1       1.858   4.054  19.611  0.00  0.00    +0.000 A 
ATOM     26  C   UNL     1       2.531   3.920  18.376  0.00  0.00    +0.000 A 
BRANCH  25  27
ATOM     27  C   UNL     1       1.126   2.890  20.238  0.00  0.00    +0.000 C 
ATOM     28  F   UNL     1      -0.155   2.751  19.801  0.00  0.00    +0.000 F 
ATOM     29  F   UNL     1       1.736   1.695  19.993  0.00  0.00    +0.000 F 
ATOM     30  F   UNL     1       1.048   2.997  21.594  0.00  0.00    +0.000 F 
ENDBRANCH  25  27
ENDBRANCH  19  21
ENDBRANCH   7  17
TORSDOF 5
ENDMDL
MODEL 3
REMARK VINA RESULT:      -7.7      2.798      4.949
REMARK  Name = 
REMARK  5 active torsions:
REMARK  status: ('A' for Active; 'I' for Inactive)
REMARK    1  A    between atoms: C_2  and  C_24
REMARK    2  A    between atoms: N_3  and  C_4
REMARK    3  A    between atoms: C_10  and  C_11
REMARK    4  A    between atoms: N_13  and  C_14
REMARK    5  A    between atoms: C_18  and  C_19
REMARK                            x       y       z     vdW  Elec       q    Type
REMARK                         _______ _______ _______ _____ _____    ______ ____
ROOT
ATOM      1  C   UNL     1       3.858   3.842  19.517  0.00  0.00    +0.000 A 
ATOM      2  C   UNL     1       4.126   2.643  20.202  0.00  0.00    +0.000 A 
ATOM      3  C   UNL     1       3.251   2.155  21.172  0.00  0.00    +0.000 A 
ATOM      4  C   UNL     1       2.082   2.849  21.449  0.00  0.00    +0.000 A 
ATOM      5 CL   UNL     1       0.960   2.216  22.590  0.00  0.00    +0.000 Cl
ATOM      6  C   UNL     1       1.803   4.055  20.805  0.00  0.00    +0.000 A 
ATOM      7  C   UNL     1       2.711   4.590  19.870  0.00  0.00    +0.000 A 
ENDROOT
BRANCH   1  10
ATOM      8  O   UNL     1       3.673   2.989  16.882  0.00  0.00    +0.000 OA
ATOM      9  C   UNL     1       4.579   3.755  17.194  0.00  0.00    +0.000 C 
ATOM     10  N   UNL     1       4.762   4.231  18.492  0.00  0.00    +0.000 N 
ATOM     11  H   UNL     1       5.169   5.164  18.536  0.00  0.00    +0.000 HD
BRANCH   9  12
ATOM     12  C   UNL     1       5.511   4.250  16.189  0.00  0.00    +0.000 A 
ATOM     13  C   UNL     1       5.394   4.258  14.806  0.00  0.00    +0.000 A 
ATOM     14  C   UNL     1       6.611   4.746  14.288  0.00  0.00    +0.000 A 
ATOM     15  C   UNL     1       7.404   5.025  15.386  0.00  0.00    +0.000 A 
ATOM     16  O   UNL     1       6.741   4.741  16.541  0.00  0.00    +0.000 OA
ENDBRANCH   9  12
ENDBRANCH   1  10
BRANCH   7  17
ATOM     17  C   UNL     1       2.355   5.861  19.177  0.00  0.00    +0.000 C 
ATOM     18  O   UNL     1       2.217   5.831  17.959  0.00  0.00    +0.000 OA
ATOM     19  N   UNL     1       2.267   6.997  19.979  0.00  0.00    +0.000 N 
ATOM     20  H   UNL     1       2.630   6.945  20.923  0.00  0.00    +0.000 HD
BRANCH  19  21
ATOM     21  C   UNL     1       1.855   8.278  19.543  0.00  0.00    +0.000 A 
ATOM     22  C   UNL     1       2.234   8.800  18.307  0.00  0.00    +0.000 A 
ATOM     23  C   UNL     1       1.841  10.076  17.911  0.00  0.00    +0.000 A 
ATOM     24  C   UNL     1       1.055  10.854  18.752  0.00  0.00    +0.000 A 
ATOM     25  C   UNL     1       0.640  10.354  19.997  0.00  0.00    +0.000 A 
ATOM     26  C   UNL     1       1.029   9.051  20.377  0.00  0.00    +0.000 A 
BRANCH  25  27
ATOM     27  C   UNL     1      -0.193  11.224  20.910  0.00  0.00    +0.000 C 
ATOM     28  F   UNL     1      -0.664  10.571  22.006  0.00  0.00    +0.000 F 
ATOM     29  F   UNL     1       0.500  12.298  21.384  0.00  0.00    +0.000 F 
ATOM     30  F   UNL     1      -1.288  11.735  20.281  0.00  0.00    +0.000 F 
ENDBRANCH  25  27
ENDBRANCH  19  21
ENDBRANCH   7  17
TORSDOF 5
ENDMDL
MODEL 4
REMARK VINA RESULT:      -7.6      2.914      5.381
REMARK  Name = 
REMARK  5 active torsions:
REMARK  status: ('A' for Active; 'I' for Inactive)
REMARK    1  A    between atoms: C_2  and  C_24
REMARK    2  A    between atoms: N_3  and  C_4
REMARK    3  A    between atoms: C_10  and  C_11
REMARK    4  A    between atoms: N_13  and  C_14
REMARK    5  A    between atoms: C_18  and  C_19
REMARK                            x       y       z     vdW  Elec       q    Type
REMARK                         _______ _______ _______ _____ _____    ______ ____
ROOT
ATOM      1  C   UNL     1       6.924   4.823  14.763  0.00  0.00    +0.000 A 
ATOM      2  C   UNL     1       7.446   4.944  13.463  0.00  0.00    +0.000 A 
ATOM      3  C   UNL     1       6.873   4.263  12.389  0.00  0.00    +0.000 A 
ATOM      4  C   UNL     1       5.753   3.472  12.601  0.00  0.00    +0.000 A 
ATOM      5 CL   UNL     1       4.996   2.687  11.270  0.00  0.00    +0.000 Cl
ATOM      6  C   UNL     1       5.230   3.312  13.884  0.00  0.00    +0.000 A 
ATOM      7  C   UNL     1       5.839   3.945  14.986  0.00  0.00    +0.000 A 
ENDROOT
BRANCH   1  10
ATOM      8  O   UNL     1       5.757   7.097  15.849  0.00  0.00    +0.000 OA
ATOM      9  C   UNL     1       6.849   6.730  16.275  0.00  0.00    +0.000 C 
ATOM     10  N   UNL     1       7.520   5.609  15.788  0.00  0.00    +0.000 N 
ATOM     11  H   UNL     1       8.096   5.137  16.483  0.00  0.00    +0.000 HD
BRANCH   9  12
ATOM     12  C   UNL     1       7.497   7.444  17.367  0.00  0.00    +0.000 A 
ATOM     13  C   UNL     1       7.799   8.794  17.482  0.00  0.00    +0.000 A 
ATOM     14  C   UNL     1       8.521   8.958  18.681  0.00  0.00    +0.000 A 
ATOM     15  C   UNL     1       8.609   7.699  19.245  0.00  0.00    +0.000 A 
ATOM     16  O   UNL     1       7.979   6.779  18.463  0.00  0.00    +0.000 OA
ENDBRANCH   9  12
ENDBRANCH   1  10
BRANCH   7  17
ATOM     17  C   UNL     1       5.224   3.778  16.333  0.00  0.00    +0.000 C 
ATOM     18  O   UNL     1       5.959   3.849  17.313  0.00  0.00    +0.000 OA
ATOM     19  N   UNL     1       3.860   3.494  16.359  0.00  0.00    +0.000 N 
ATOM     20  H   UNL     1       3.410   3.229  15.491  0.00  0.00    +0.000 HD
BRANCH  19  21
ATOM     21  C   UNL     1       3.065   3.391  17.524  0.00  0.00    +0.000 A 
ATOM     22  C   UNL     1       2.364   2.229  17.845  0.00  0.00    +0.000 A 
ATOM     23  C   UNL     1       1.564   2.159  18.982  0.00  0.00    +0.000 A 
ATOM     24  C   UNL     1       1.453   3.260  19.823  0.00  0.00    +0.000 A 
ATOM     25  C   UNL     1       2.158   4.441  19.542  0.00  0.00    +0.000 A 
ATOM     26  C   UNL     1       2.982   4.490  18.395  0.00  0.00    +0.000 A 
BRANCH  25  27
ATOM     27  C   UNL     1       2.006   5.636  20.453  0.00  0.00    +0.000 C 
ATOM     28  F   UNL     1       0.712   5.988  20.681  0.00  0.00    +0.000 F 
ATOM     29  F   UNL     1       2.559   5.431  21.682  0.00  0.00    +0.000 F 
ATOM     30  F   UNL     1       2.612   6.749  19.953  0.00  0.00    +0.000 F 
ENDBRANCH  25  27
ENDBRANCH  19  21
ENDBRANCH   7  17
TORSDOF 5
ENDMDL
MODEL 5
REMARK VINA RESULT:      -7.5      3.238      5.152
REMARK  Name = 
REMARK  5 active torsions:
REMARK  status: ('A' for Active; 'I' for Inactive)
REMARK    1  A    between atoms: C_2  and  C_24
REMARK    2  A    between atoms: N_3  and  C_4
REMARK    3  A    between atoms: C_10  and  C_11
REMARK    4  A    between atoms: N_13  and  C_14
REMARK    5  A    between atoms: C_18  and  C_19
REMARK                            x       y       z     vdW  Elec       q    Type
REMARK                         _______ _______ _______ _____ _____    ______ ____
ROOT
ATOM      1  C   UNL     1       3.985   4.683  19.107  0.00  0.00    +0.000 A 
ATOM      2  C   UNL     1       4.207   3.301  18.971  0.00  0.00    +0.000 A 
ATOM      3  C   UNL     1       3.143   2.402  18.909  0.00  0.00    +0.000 A 
ATOM      4  C   UNL     1       1.841   2.879  18.956  0.00  0.00    +0.000 A 
ATOM      5 CL   UNL     1       0.522   1.785  18.805  0.00  0.00    +0.000 Cl
ATOM      6  C   UNL     1       1.591   4.242  19.117  0.00  0.00    +0.000 A 
ATOM      7  C   UNL     1       2.658   5.152  19.245  0.00  0.00    +0.000 A 
ENDROOT
BRANCH   1  10
ATOM      8  O   UNL     1       5.236   5.546  16.783  0.00  0.00    +0.000 OA
ATOM      9  C   UNL     1       5.672   5.923  17.866  0.00  0.00    +0.000 C 
ATOM     10  N   UNL     1       5.120   5.538  19.088  0.00  0.00    +0.000 N 
ATOM     11  H   UNL     1       5.208   6.240  19.820  0.00  0.00    +0.000 HD
BRANCH   9  12
ATOM     12  C   UNL     1       6.795   6.850  17.931  0.00  0.00    +0.000 A 
ATOM     13  C   UNL     1       7.925   6.812  18.736  0.00  0.00    +0.000 A 
ATOM     14  C   UNL     1       8.650   7.996  18.491  0.00  0.00    +0.000 A 
ATOM     15  C   UNL     1       7.931   8.690  17.536  0.00  0.00    +0.000 A 
ATOM     16  O   UNL     1       6.814   7.997  17.181  0.00  0.00    +0.000 OA
ENDBRANCH   9  12
ENDBRANCH   1  10
BRANCH   7  17
ATOM     17  C   UNL     1       2.346   6.604  19.378  0.00  0.00    +0.000 C 
ATOM     18  O   UNL     1       2.718   7.355  18.483  0.00  0.00    +0.000 OA
ATOM     19  N   UNL     1       1.701   6.992  20.550  0.00  0.00    +0.000 N 
ATOM     20  H   UNL     1       1.655   6.327  21.313  0.00  0.00    +0.000 HD
BRANCH  19  21
ATOM     21  C   UNL     1       1.232   8.295  20.835  0.00  0.00    +0.000 A 
ATOM     22  C   UNL     1       1.250   8.826  22.125  0.00  0.00    +0.000 A 
ATOM     23  C   UNL     1       0.756  10.101  22.389  0.00  0.00    +0.000 A 
ATOM     24  C   UNL     1       0.235  10.871  21.356  0.00  0.00    +0.000 A 
ATOM     25  C   UNL     1       0.217  10.378  20.043  0.00  0.00    +0.000 A 
ATOM     26  C   UNL     1       0.740   9.091  19.787  0.00  0.00    +0.000 A 
BRANCH  25  27
ATOM     27  C   UNL     1      -0.377  11.219  18.937  0.00  0.00    +0.000 C 
ATOM     28  F   UNL     1       0.468  12.174  18.464  0.00  0.00    +0.000 F 
ATOM     29  F   UNL     1      -0.745  10.476  17.854  0.00  0.00    +0.000 F 
ATOM     30  F   UNL     1      -1.500  11.879  19.335  0.00  0.00    +0.000 F 
ENDBRANCH  25  27
ENDBRANCH  19  21
ENDBRANCH   7  17
TORSDOF 5
ENDMDL
MODEL 6
REMARK VINA RESULT:      -7.5      2.822      5.002
REMARK  Name = 
REMARK  5 active torsions:
REMARK  status: ('A' for Active; 'I' for Inactive)
REMARK    1  A    between atoms: C_2  and  C_24
REMARK    2  A    between atoms: N_3  and  C_4
REMARK    3  A    between atoms: C_10  and  C_11
REMARK    4  A    between atoms: N_13  and  C_14
REMARK    5  A    between atoms: C_18  and  C_19
REMARK                            x       y       z     vdW  Elec       q    Type
REMARK                         _______ _______ _______ _____ _____    ______ ____
ROOT
ATOM      1  C   UNL     1       3.810   3.767  19.647  0.00  0.00    +0.000 A 
ATOM      2  C   UNL     1       4.054   2.578  20.358  0.00  0.00    +0.000 A 
ATOM      3  C   UNL     1       3.152   2.110  21.312  0.00  0.00    +0.000 A 
ATOM      4  C   UNL     1       1.980   2.814  21.548  0.00  0.00    +0.000 A 
ATOM      5 CL   UNL     1       0.826   2.205  22.670  0.00  0.00    +0.000 Cl
ATOM      6  C   UNL     1       1.724   4.010  20.878  0.00  0.00    +0.000 A 
ATOM      7  C   UNL     1       2.658   4.526  19.958  0.00  0.00    +0.000 A 
ENDROOT
BRANCH   1  10
ATOM      8  O   UNL     1       3.667   2.901  17.013  0.00  0.00    +0.000 OA
ATOM      9  C   UNL     1       4.579   3.654  17.341  0.00  0.00    +0.000 C 
ATOM     10  N   UNL     1       4.742   4.135  18.639  0.00  0.00    +0.000 N 
ATOM     11  H   UNL     1       5.163   5.062  18.687  0.00  0.00    +0.000 HD
BRANCH   9  12
ATOM     12  C   UNL     1       5.540   4.128  16.353  0.00  0.00    +0.000 A 
ATOM     13  C   UNL     1       6.738   4.805  16.542  0.00  0.00    +0.000 A 
ATOM     14  C   UNL     1       7.237   5.132  15.264  0.00  0.00    +0.000 A 
ATOM     15  C   UNL     1       6.323   4.623  14.360  0.00  0.00    +0.000 A 
ATOM     16  O   UNL     1       5.300   4.002  15.010  0.00  0.00    +0.000 OA
ENDBRANCH   9  12
ENDBRANCH   1  10
BRANCH   7  17
ATOM     17  C   UNL     1       2.326   5.787  19.236  0.00  0.00    +0.000 C 
ATOM     18  O   UNL     1       2.217   5.738  18.015  0.00  0.00    +0.000 OA
ATOM     19  N   UNL     1       2.226   6.937  20.016  0.00  0.00    +0.000 N 
ATOM     20  H   UNL     1       2.566   6.899  20.969  0.00  0.00    +0.000 HD
BRANCH  19  21
ATOM     21  C   UNL     1       1.833   8.213  19.549  0.00  0.00    +0.000 A 
ATOM     22  C   UNL     1       2.214   8.697  18.298  0.00  0.00    +0.000 A 
ATOM     23  C   UNL     1       1.840   9.968  17.871  0.00  0.00    +0.000 A 
ATOM     24  C   UNL     1       1.070  10.780  18.695  0.00  0.00    +0.000 A 
ATOM     25  C   UNL     1       0.652  10.319  19.954  0.00  0.00    +0.000 A 
ATOM     26  C   UNL     1       1.022   9.020  20.365  0.00  0.00    +0.000 A 
BRANCH  25  27
ATOM     27  C   UNL     1      -0.164  11.225  20.847  0.00  0.00    +0.000 C 
ATOM     28  F   UNL     1       0.410  12.438  21.064  0.00  0.00    +0.000 F 
ATOM     29  F   UNL     1      -1.403  11.483  20.340  0.00  0.00    +0.000 F 
ATOM     30  F   UNL     1      -0.371  10.684  22.081  0.00  0.00    +0.000 F 
ENDBRANCH  25  27
ENDBRANCH  19  21
ENDBRANCH   7  17
TORSDOF 5
ENDMDL
MODEL 7
REMARK VINA RESULT:      -7.5      2.757      5.017
REMARK  Name = 
REMARK  5 active torsions:
REMARK  status: ('A' for Active; 'I' for Inactive)
REMARK    1  A    between atoms: C_2  and  C_24
REMARK    2  A    between atoms: N_3  and  C_4
REMARK    3  A    between atoms: C_10  and  C_11
REMARK    4  A    between atoms: N_13  and  C_14
REMARK    5  A    between atoms: C_18  and  C_19
REMARK                            x       y       z     vdW  Elec       q    Type
REMARK                         _______ _______ _______ _____ _____    ______ ____
ROOT
ATOM      1  C   UNL     1       3.457   3.646  18.676  0.00  0.00    +0.000 A 
ATOM      2  C   UNL     1       3.682   2.383  19.251  0.00  0.00    +0.000 A 
ATOM      3  C   UNL     1       3.036   2.001  20.426  0.00  0.00    +0.000 A 
ATOM      4  C   UNL     1       2.135   2.870  21.025  0.00  0.00    +0.000 A 
ATOM      5 CL   UNL     1       1.277   2.377  22.433  0.00  0.00    +0.000 Cl
ATOM      6  C   UNL     1       1.912   4.139  20.491  0.00  0.00    +0.000 A 
ATOM      7  C   UNL     1       2.608   4.560  19.341  0.00  0.00    +0.000 A 
ENDROOT
BRANCH   1  10
ATOM      8  O   UNL     1       6.137   4.335  18.441  0.00  0.00    +0.000 OA
ATOM      9  C   UNL     1       5.453   4.258  17.424  0.00  0.00    +0.000 C 
ATOM     10  N   UNL     1       4.098   3.930  17.439  0.00  0.00    +0.000 N 
ATOM     11  H   UNL     1       3.785   3.431  16.607  0.00  0.00    +0.000 HD
BRANCH   9  12
ATOM     12  C   UNL     1       6.050   4.473  16.112  0.00  0.00    +0.000 A 
ATOM     13  C   UNL     1       5.577   4.111  14.858  0.00  0.00    +0.000 A 
ATOM     14  C   UNL     1       6.576   4.449  13.923  0.00  0.00    +0.000 A 
ATOM     15  C   UNL     1       7.603   5.016  14.655  0.00  0.00    +0.000 A 
ATOM     16  O   UNL     1       7.286   5.047  15.979  0.00  0.00    +0.000 OA
ENDBRANCH   9  12
ENDBRANCH   1  10
BRANCH   7  17
ATOM     17  C   UNL     1       2.310   5.910  18.782  0.00  0.00    +0.000 C 
ATOM     18  O   UNL     1       2.231   6.022  17.563  0.00  0.00    +0.000 OA
ATOM     19  N   UNL     1       2.206   6.950  19.703  0.00  0.00    +0.000 N 
ATOM     20  H   UNL     1       2.522   6.783  20.651  0.00  0.00    +0.000 HD
BRANCH  19  21
ATOM     21  C   UNL     1       1.841   8.282  19.398  0.00  0.00    +0.000 A 
ATOM     22  C   UNL     1       2.222   8.904  18.210  0.00  0.00    +0.000 A 
ATOM     23  C   UNL     1       1.876  10.226  17.943  0.00  0.00    +0.000 A 
ATOM     24  C   UNL     1       1.136  10.951  18.869  0.00  0.00    +0.000 A 
ATOM     25  C   UNL     1       0.719  10.352  20.068  0.00  0.00    +0.000 A 
ATOM     26  C   UNL     1       1.060   9.004  20.316  0.00  0.00    +0.000 A 
BRANCH  25  27
ATOM     27  C   UNL     1      -0.064  11.163  21.075  0.00  0.00    +0.000 C 
ATOM     28  F   UNL     1      -1.279  11.573  20.620  0.00  0.00    +0.000 F 
ATOM     29  F   UNL     1      -0.309  10.474  22.225  0.00  0.00    +0.000 F 
ATOM     30  F   UNL     1       0.594  12.295  21.451  0.00  0.00    +0.000 F 
ENDBRANCH  25  27
ENDBRANCH  19  21
ENDBRANCH   7  17
TORSDOF 5
ENDMDL
MODEL 8
REMARK VINA RESULT:      -7.5      1.625      2.170
REMARK  Name = 
REMARK  5 active torsions:
REMARK  status: ('A' for Active; 'I' for Inactive)
REMARK    1  A    between atoms: C_2  and  C_24
REMARK    2  A    between atoms: N_3  and  C_4
REMARK    3  A    between atoms: C_10  and  C_11
REMARK    4  A    between atoms: N_13  and  C_14
REMARK    5  A    between atoms: C_18  and  C_19
REMARK                            x       y       z     vdW  Elec       q    Type
REMARK                         _______ _______ _______ _____ _____    ______ ____
ROOT
ATOM      1  C   UNL     1       4.498   4.261  16.674  0.00  0.00    +0.000 A 
ATOM      2  C   UNL     1       5.032   3.320  15.775  0.00  0.00    +0.000 A 
ATOM      3  C   UNL     1       5.982   3.691  14.824  0.00  0.00    +0.000 A 
ATOM      4  C   UNL     1       6.428   5.003  14.779  0.00  0.00    +0.000 A 
ATOM      5 CL   UNL     1       7.655   5.453  13.659  0.00  0.00    +0.000 Cl
ATOM      6  C   UNL     1       5.897   5.963  15.640  0.00  0.00    +0.000 A 
ATOM      7  C   UNL     1       4.890   5.614  16.562  0.00  0.00    +0.000 A 
ENDROOT
BRANCH   1  10
ATOM      8  O   UNL     1       5.233   3.604  19.270  0.00  0.00    +0.000 OA
ATOM      9  C   UNL     1       4.056   3.493  18.941  0.00  0.00    +0.000 C 
ATOM     10  N   UNL     1       3.590   3.787  17.661  0.00  0.00    +0.000 N 
ATOM     11  H   UNL     1       2.631   4.131  17.639  0.00  0.00    +0.000 HD
BRANCH   9  12
ATOM     12  C   UNL     1       3.052   3.073  19.911  0.00  0.00    +0.000 A 
ATOM     13  C   UNL     1       1.674   3.239  19.882  0.00  0.00    +0.000 A 
ATOM     14  C   UNL     1       1.170   2.754  21.106  0.00  0.00    +0.000 A 
ATOM     15  C   UNL     1       2.269   2.302  21.814  0.00  0.00    +0.000 A 
ATOM     16  O   UNL     1       3.410   2.479  21.092  0.00  0.00    +0.000 OA
ENDBRANCH   9  12
ENDBRANCH   1  10
BRANCH   7  17
ATOM     17  C   UNL     1       4.378   6.663  17.489  0.00  0.00    +0.000 C 
ATOM     18  O   UNL     1       5.104   7.621  17.731  0.00  0.00    +0.000 OA
ATOM     19  N   UNL     1       3.126   6.429  18.054  0.00  0.00    +0.000 N 
ATOM     20  H   UNL     1       2.727   5.502  17.966  0.00  0.00    +0.000 HD
BRANCH  19  21
ATOM     21  C   UNL     1       2.418   7.331  18.881  0.00  0.00    +0.000 A 
ATOM     22  C   UNL     1       2.087   7.027  20.202  0.00  0.00    +0.000 A 
ATOM     23  C   UNL     1       1.363   7.918  20.989  0.00  0.00    +0.000 A 
ATOM     24  C   UNL     1       0.958   9.138  20.464  0.00  0.00    +0.000 A 
ATOM     25  C   UNL     1       1.287   9.487  19.145  0.00  0.00    +0.000 A 
ATOM     26  C   UNL     1       2.039   8.582  18.364  0.00  0.00    +0.000 A 
BRANCH  25  27
ATOM     27  C   UNL     1       0.816  10.808  18.582  0.00  0.00    +0.000 C 
ATOM     28  F   UNL     1       1.766  11.466  17.863  0.00  0.00    +0.000 F 
ATOM     29  F   UNL     1      -0.254  10.669  17.748  0.00  0.00    +0.000 F 
ATOM     30  F   UNL     1       0.419  11.674  19.556  0.00  0.00    +0.000 F 
ENDBRANCH  25  27
ENDBRANCH  19  21
ENDBRANCH   7  17
TORSDOF 5
ENDMDL
MODEL 9
REMARK VINA RESULT:      -7.3      3.253      5.172
REMARK  Name = 
REMARK  5 active torsions:
REMARK  status: ('A' for Active; 'I' for Inactive)
REMARK    1  A    between atoms: C_2  and  C_24
REMARK    2  A    between atoms: N_3  and  C_4
REMARK    3  A    between atoms: C_10  and  C_11
REMARK    4  A    between atoms: N_13  and  C_14
REMARK    5  A    between atoms: C_18  and  C_19
REMARK                            x       y       z     vdW  Elec       q    Type
REMARK                         _______ _______ _______ _____ _____    ______ ____
ROOT
ATOM      1  C   UNL     1       3.957   4.620  19.124  0.00  0.00    +0.000 A 
ATOM      2  C   UNL     1       4.198   3.239  19.018  0.00  0.00    +0.000 A 
ATOM      3  C   UNL     1       3.146   2.325  18.961  0.00  0.00    +0.000 A 
ATOM      4  C   UNL     1       1.838   2.787  18.983  0.00  0.00    +0.000 A 
ATOM      5 CL   UNL     1       0.534   1.673  18.838  0.00  0.00    +0.000 Cl
ATOM      6  C   UNL     1       1.569   4.149  19.115  0.00  0.00    +0.000 A 
ATOM      7  C   UNL     1       2.623   5.075  19.237  0.00  0.00    +0.000 A 
ENDROOT
BRANCH   1  10
ATOM      8  O   UNL     1       5.237   5.438  16.799  0.00  0.00    +0.000 OA
ATOM      9  C   UNL     1       5.650   5.849  17.880  0.00  0.00    +0.000 C 
ATOM     10  N   UNL     1       5.082   5.489  19.101  0.00  0.00    +0.000 N 
ATOM     11  H   UNL     1       5.148   6.211  19.817  0.00  0.00    +0.000 HD
BRANCH   9  12
ATOM     12  C   UNL     1       6.760   6.792  17.939  0.00  0.00    +0.000 A 
ATOM     13  C   UNL     1       7.904   6.760  18.725  0.00  0.00    +0.000 A 
ATOM     14  C   UNL     1       8.607   7.957  18.485  0.00  0.00    +0.000 A 
ATOM     15  C   UNL     1       7.861   8.654  17.551  0.00  0.00    +0.000 A 
ATOM     16  O   UNL     1       6.749   7.949  17.205  0.00  0.00    +0.000 OA
ENDBRANCH   9  12
ENDBRANCH   1  10
BRANCH   7  17
ATOM     17  C   UNL     1       2.291   6.525  19.337  0.00  0.00    +0.000 C 
ATOM     18  O   UNL     1       2.562   7.244  18.381  0.00  0.00    +0.000 OA
ATOM     19  N   UNL     1       1.747   6.952  20.547  0.00  0.00    +0.000 N 
ATOM     20  H   UNL     1       1.787   6.320  21.339  0.00  0.00    +0.000 HD
BRANCH  19  21
ATOM     21  C   UNL     1       1.278   8.257  20.820  0.00  0.00    +0.000 A 
ATOM     22  C   UNL     1       0.589   8.570  21.992  0.00  0.00    +0.000 A 
ATOM     23  C   UNL     1       0.109   9.856  22.226  0.00  0.00    +0.000 A 
ATOM     24  C   UNL     1       0.315  10.857  21.285  0.00  0.00    +0.000 A 
ATOM     25  C   UNL     1       1.019  10.584  20.102  0.00  0.00    +0.000 A 
ATOM     26  C   UNL     1       1.518   9.280  19.887  0.00  0.00    +0.000 A 
BRANCH  25  27
ATOM     27  C   UNL     1       1.212  11.678  19.078  0.00  0.00    +0.000 C 
ATOM     28  F   UNL     1       0.046  12.158  18.566  0.00  0.00    +0.000 F 
ATOM     29  F   UNL     1       1.869  12.760  19.585  0.00  0.00    +0.000 F 
ATOM     30  F   UNL     1       1.946  11.263  18.009  0.00  0.00    +0.000 F 
ENDBRANCH  25  27
ENDBRANCH  19  21
ENDBRANCH   7  17
TORSDOF 5
ENDMDL
