MODEL 1
REMARK VINA RESULT:      -6.0      0.000      0.000
REMARK  Name = 
REMARK  15 active torsions:
REMARK  status: ('A' for Active; 'I' for Inactive)
REMARK    1  A    between atoms: P_2  and  O_3
REMARK    2  A    between atoms: P_2  and  O_4
REMARK    3  A    between atoms: P_2  and  O_5
REMARK    4  A    between atoms: O_5  and  C_6
REMARK    5  A    between atoms: C_8  and  C_9
REMARK    6  A    between atoms: C_9  and  O_10
REMARK    7  A    between atoms: C_11  and  O_12
REMARK    8  A    between atoms: O_12  and  P_13
REMARK    9  A    between atoms: P_13  and  O_15
REMARK   10  A    between atoms: P_13  and  O_16
REMARK   11  A    between atoms: C_17  and  O_18
REMARK   12  A    between atoms: O_18  and  P_19
REMARK   13  A    between atoms: P_19  and  O_21
REMARK   14  A    between atoms: P_19  and  O_22
REMARK   15  A    between atoms: C_23  and  O_24
REMARK                            x       y       z     vdW  Elec       q    Type
REMARK                         _______ _______ _______ _____ _____    ______ ____
ROOT
ATOM      1  C   UNL     1       3.053   7.435  17.891  0.00  0.00    +0.000 C 
ATOM      2  O   UNL     1       2.712   7.110  19.212  0.00  0.00    +0.000 OA
ATOM      3  C   UNL     1       2.582   5.711  19.475  0.00  0.00    +0.000 C 
ATOM      4  C   UNL     1       4.033   5.055  19.415  0.00  0.00    +0.000 C 
ATOM      5  C   UNL     1       4.762   5.529  18.128  0.00  0.00    +0.000 C 
ATOM      6  C   UNL     1       4.511   7.010  17.691  0.00  0.00    +0.000 C 
ENDROOT
BRANCH   6   7
ATOM      7  O   UNL     1       4.911   7.231  16.334  0.00  0.00    +0.000 OA
ATOM      8  H   UNL     1       4.564   8.086  16.022  0.00  0.00    +0.000 HD
ENDBRANCH   6   7
BRANCH   1   9
ATOM      9  O   UNL     1       2.914   8.835  17.751  0.00  0.00    +0.000 OA
BRANCH   9  11
ATOM     10  O   UNL     1       0.311   8.814  17.381  0.00  0.00    +0.000 OA
ATOM     11  P   UNL     1       1.468   9.430  18.091  0.00  0.00    +0.000 P 
BRANCH  11  12
ATOM     12  O   UNL     1       1.622  10.994  17.815  0.00  0.00    +0.000 OA
ATOM     13  H   UNL     1       2.091  11.435  18.545  0.00  0.00    +0.000 HD
ENDBRANCH  11  12
BRANCH  11  14
ATOM     14  O   UNL     1       1.354   9.394  19.684  0.00  0.00    +0.000 OA
ATOM     15  H   UNL     1       1.047  10.263  20.029  0.00  0.00    +0.000 HD
ENDBRANCH  11  14
ENDBRANCH   9  11
ENDBRANCH   1   9
BRANCH   3  16
ATOM     16  C   UNL     1       1.819   5.795  20.826  0.00  0.00    +0.000 C 
BRANCH  16  17
ATOM     17  O   UNL     1       1.665   7.176  21.208  0.00  0.00    +0.000 OA
ATOM     18  H   UNL     1       1.101   7.190  22.005  0.00  0.00    +0.000 HD
ENDBRANCH  16  17
ENDBRANCH   3  16
BRANCH   4  19
ATOM     19  O   UNL     1       4.123   3.554  19.598  0.00  0.00    +0.000 OA
BRANCH  19  20
ATOM     20  P   UNL     1       2.974   3.057  18.404  0.00  0.00    +0.000 P 
ATOM     21  O   UNL     1       3.975   2.115  17.753  0.00  0.00    +0.000 OA
BRANCH  20  22
ATOM     22  O   UNL     1       2.147   2.209  19.513  0.00  0.00    +0.000 OA
ATOM     23  H   UNL     1       1.491   1.586  19.150  0.00  0.00    +0.000 HD
ENDBRANCH  20  22
BRANCH  20  24
ATOM     24  O   UNL     1       1.824   2.561  17.210  0.00  0.00    +0.000 OA
ATOM     25  H   UNL     1       1.582   1.662  17.524  0.00  0.00    +0.000 HD
ENDBRANCH  20  24
ENDBRANCH  19  20
ENDBRANCH   4  19
BRANCH   5  26
ATOM     26  O   UNL     1       6.179   5.305  18.216  0.00  0.00    +0.000 OA
BRANCH  26  27
ATOM     27  P   UNL     1       6.988   4.743  16.951  0.00  0.00    +0.000 P 
ATOM     28  O   UNL     1       7.375   5.721  15.898  0.00  0.00    +0.000 OA
BRANCH  27  29
ATOM     29  O   UNL     1       8.230   3.996  17.605  0.00  0.00    +0.000 OA
ATOM     30  H   UNL     1       7.929   3.310  18.237  0.00  0.00    +0.000 HD
ENDBRANCH  27  29
BRANCH  27  31
ATOM     31  O   UNL     1       6.130   3.523  16.383  0.00  0.00    +0.000 OA
ATOM     32  H   UNL     1       6.677   2.935  15.822  0.00  0.00    +0.000 HD
ENDBRANCH  27  31
ENDBRANCH  26  27
ENDBRANCH   5  26
TORSDOF 15
ENDMDL
MODEL 2
REMARK VINA RESULT:      -5.9      2.318      4.896
REMARK  Name = 
REMARK  15 active torsions:
REMARK  status: ('A' for Active; 'I' for Inactive)
REMARK    1  A    between atoms: P_2  and  O_3
REMARK    2  A    between atoms: P_2  and  O_4
REMARK    3  A    between atoms: P_2  and  O_5
REMARK    4  A    between atoms: O_5  and  C_6
REMARK    5  A    between atoms: C_8  and  C_9
REMARK    6  A    between atoms: C_9  and  O_10
REMARK    7  A    between atoms: C_11  and  O_12
REMARK    8  A    between atoms: O_12  and  P_13
REMARK    9  A    between atoms: P_13  and  O_15
REMARK   10  A    between atoms: P_13  and  O_16
REMARK   11  A    between atoms: C_17  and  O_18
REMARK   12  A    between atoms: O_18  and  P_19
REMARK   13  A    between atoms: P_19  and  O_21
REMARK   14  A    between atoms: P_19  and  O_22
REMARK   15  A    between atoms: C_23  and  O_24
REMARK                            x       y       z     vdW  Elec       q    Type
REMARK                         _______ _______ _______ _____ _____    ______ ____
ROOT
ATOM      1  C   UNL     1       3.294   4.236  18.066  0.00  0.00    +0.000 C 
ATOM      2  O   UNL     1       3.307   5.576  17.651  0.00  0.00    +0.000 OA
ATOM      3  C   UNL     1       4.527   6.276  17.906  0.00  0.00    +0.000 C 
ATOM      4  C   UNL     1       5.648   5.695  16.934  0.00  0.00    +0.000 C 
ATOM      5  C   UNL     1       5.627   4.143  16.990  0.00  0.00    +0.000 C 
ATOM      6  C   UNL     1       4.221   3.469  17.118  0.00  0.00    +0.000 C 
ENDROOT
BRANCH   6   7
ATOM      7  O   UNL     1       4.330   2.102  17.528  0.00  0.00    +0.000 OA
ATOM      8  H   UNL     1       3.468   1.659  17.436  0.00  0.00    +0.000 HD
ENDBRANCH   6   7
BRANCH   1   9
ATOM      9  O   UNL     1       1.964   3.771  17.952  0.00  0.00    +0.000 OA
BRANCH   9  11
ATOM     10  O   UNL     1       0.803   4.181  20.276  0.00  0.00    +0.000 OA
ATOM     11  P   UNL     1       1.314   3.184  19.292  0.00  0.00    +0.000 P 
BRANCH  11  12
ATOM     12  O   UNL     1       2.450   2.233  19.886  0.00  0.00    +0.000 OA
ATOM     13  H   UNL     1       2.403   2.195  20.857  0.00  0.00    +0.000 HD
ENDBRANCH  11  12
BRANCH  11  14
ATOM     14  O   UNL     1       0.224   2.121  18.810  0.00  0.00    +0.000 OA
ATOM     15  H   UNL     1      -0.159   2.386  17.943  0.00  0.00    +0.000 HD
ENDBRANCH  11  14
ENDBRANCH   9  11
ENDBRANCH   1   9
BRANCH   3  16
ATOM     16  C   UNL     1       4.009   7.729  17.720  0.00  0.00    +0.000 C 
BRANCH  16  17
ATOM     17  O   UNL     1       2.585   7.765  17.942  0.00  0.00    +0.000 OA
ATOM     18  H   UNL     1       2.375   8.652  18.294  0.00  0.00    +0.000 HD
ENDBRANCH  16  17
ENDBRANCH   3  16
BRANCH   4  19
ATOM     19  O   UNL     1       7.050   6.249  17.083  0.00  0.00    +0.000 OA
BRANCH  19  20
ATOM     20  P   UNL     1       7.345   5.821  18.734  0.00  0.00    +0.000 P 
ATOM     21  O   UNL     1       8.179   4.615  18.328  0.00  0.00    +0.000 OA
BRANCH  20  22
ATOM     22  O   UNL     1       8.353   7.081  18.909  0.00  0.00    +0.000 OA
ATOM     23  H   UNL     1       9.133   7.068  18.326  0.00  0.00    +0.000 HD
ENDBRANCH  20  22
BRANCH  20  24
ATOM     24  O   UNL     1       7.641   5.393  20.383  0.00  0.00    +0.000 OA
ATOM     25  H   UNL     1       7.636   6.271  20.824  0.00  0.00    +0.000 HD
ENDBRANCH  20  24
ENDBRANCH  19  20
ENDBRANCH   4  19
BRANCH   5  26
ATOM     26  O   UNL     1       6.316   3.569  15.867  0.00  0.00    +0.000 OA
BRANCH  26  27
ATOM     27  P   UNL     1       6.202   4.247  14.418  0.00  0.00    +0.000 P 
ATOM     28  O   UNL     1       4.956   5.000  14.112  0.00  0.00    +0.000 OA
BRANCH  27  29
ATOM     29  O   UNL     1       7.517   5.137  14.319  0.00  0.00    +0.000 OA
ATOM     30  H   UNL     1       7.397   5.986  14.796  0.00  0.00    +0.000 HD
ENDBRANCH  27  29
BRANCH  27  31
ATOM     31  O   UNL     1       6.507   3.090  13.362  0.00  0.00    +0.000 OA
ATOM     32  H   UNL     1       6.568   3.447  12.453  0.00  0.00    +0.000 HD
ENDBRANCH  27  31
ENDBRANCH  26  27
ENDBRANCH   5  26
TORSDOF 15
ENDMDL
MODEL 3
REMARK VINA RESULT:      -5.8      1.430      4.600
REMARK  Name = 
REMARK  15 active torsions:
REMARK  status: ('A' for Active; 'I' for Inactive)
REMARK    1  A    between atoms: P_2  and  O_3
REMARK    2  A    between atoms: P_2  and  O_4
REMARK    3  A    between atoms: P_2  and  O_5
REMARK    4  A    between atoms: O_5  and  C_6
REMARK    5  A    between atoms: C_8  and  C_9
REMARK    6  A    between atoms: C_9  and  O_10
REMARK    7  A    between atoms: C_11  and  O_12
REMARK    8  A    between atoms: O_12  and  P_13
REMARK    9  A    between atoms: P_13  and  O_15
REMARK   10  A    between atoms: P_13  and  O_16
REMARK   11  A    between atoms: C_17  and  O_18
REMARK   12  A    between atoms: O_18  and  P_19
REMARK   13  A    between atoms: P_19  and  O_21
REMARK   14  A    between atoms: P_19  and  O_22
REMARK   15  A    between atoms: C_23  and  O_24
REMARK                            x       y       z     vdW  Elec       q    Type
REMARK                         _______ _______ _______ _____ _____    ______ ____
ROOT
ATOM      1  C   UNL     1       2.873   7.449  18.177  0.00  0.00    +0.000 C 
ATOM      2  O   UNL     1       3.470   6.785  17.096  0.00  0.00    +0.000 OA
ATOM      3  C   UNL     1       4.763   6.236  17.363  0.00  0.00    +0.000 C 
ATOM      4  C   UNL     1       4.586   5.003  18.357  0.00  0.00    +0.000 C 
ATOM      5  C   UNL     1       3.669   5.419  19.539  0.00  0.00    +0.000 C 
ATOM      6  C   UNL     1       2.479   6.374  19.195  0.00  0.00    +0.000 C 
ENDROOT
BRANCH   6   7
ATOM      7  O   UNL     1       1.936   6.981  20.373  0.00  0.00    +0.000 OA
ATOM      8  H   UNL     1       2.602   7.563  20.781  0.00  0.00    +0.000 HD
ENDBRANCH   6   7
BRANCH   1   9
ATOM      9  O   UNL     1       1.729   8.116  17.684  0.00  0.00    +0.000 OA
BRANCH   9  11
ATOM     10  O   UNL     1       1.503   9.695  19.774  0.00  0.00    +0.000 OA
ATOM     11  P   UNL     1       1.456   9.572  18.289  0.00  0.00    +0.000 P 
BRANCH  11  12
ATOM     12  O   UNL     1       0.049   9.992  17.663  0.00  0.00    +0.000 OA
ATOM     13  H   UNL     1       0.130  10.804  17.133  0.00  0.00    +0.000 HD
ENDBRANCH  11  12
BRANCH  11  14
ATOM     14  O   UNL     1       2.455  10.551  17.518  0.00  0.00    +0.000 OA
ATOM     15  H   UNL     1       2.890  10.084  16.769  0.00  0.00    +0.000 HD
ENDBRANCH  11  14
ENDBRANCH   9  11
ENDBRANCH   1   9
BRANCH   3  16
ATOM     16  C   UNL     1       5.226   5.999  15.899  0.00  0.00    +0.000 C 
BRANCH  16  17
ATOM     17  O   UNL     1       5.519   4.600  15.707  0.00  0.00    +0.000 OA
ATOM     18  H   UNL     1       5.026   4.110  16.394  0.00  0.00    +0.000 HD
ENDBRANCH  16  17
ENDBRANCH   3  16
BRANCH   4  19
ATOM     19  O   UNL     1       5.845   4.309  18.832  0.00  0.00    +0.000 OA
BRANCH  19  20
ATOM     20  P   UNL     1       6.955   5.631  18.712  0.00  0.00    +0.000 P 
ATOM     21  O   UNL     1       7.459   5.408  20.129  0.00  0.00    +0.000 OA
BRANCH  20  22
ATOM     22  O   UNL     1       7.905   4.779  17.710  0.00  0.00    +0.000 OA
ATOM     23  H   UNL     1       8.027   3.844  17.954  0.00  0.00    +0.000 HD
ENDBRANCH  20  22
BRANCH  20  24
ATOM     24  O   UNL     1       8.064   6.953  18.592  0.00  0.00    +0.000 OA
ATOM     25  H   UNL     1       8.090   7.280  19.518  0.00  0.00    +0.000 HD
ENDBRANCH  20  24
ENDBRANCH  19  20
ENDBRANCH   4  19
BRANCH   5  26
ATOM     26  O   UNL     1       3.155   4.270  20.233  0.00  0.00    +0.000 OA
BRANCH  26  27
ATOM     27  P   UNL     1       1.869   3.495  19.671  0.00  0.00    +0.000 P 
ATOM     28  O   UNL     1       1.681   3.465  18.194  0.00  0.00    +0.000 OA
BRANCH  27  29
ATOM     29  O   UNL     1       1.992   2.048  20.319  0.00  0.00    +0.000 OA
ATOM     30  H   UNL     1       1.384   1.418  19.878  0.00  0.00    +0.000 HD
ENDBRANCH  27  29
BRANCH  27  31
ATOM     31  O   UNL     1       0.613   4.100  20.447  0.00  0.00    +0.000 OA
ATOM     32  H   UNL     1       0.894   4.735  21.137  0.00  0.00    +0.000 HD
ENDBRANCH  27  31
ENDBRANCH  26  27
ENDBRANCH   5  26
TORSDOF 15
ENDMDL
MODEL 4
REMARK VINA RESULT:      -5.8      0.560      1.028
REMARK  Name = 
REMARK  15 active torsions:
REMARK  status: ('A' for Active; 'I' for Inactive)
REMARK    1  A    between atoms: P_2  and  O_3
REMARK    2  A    between atoms: P_2  and  O_4
REMARK    3  A    between atoms: P_2  and  O_5
REMARK    4  A    between atoms: O_5  and  C_6
REMARK    5  A    between atoms: C_8  and  C_9
REMARK    6  A    between atoms: C_9  and  O_10
REMARK    7  A    between atoms: C_11  and  O_12
REMARK    8  A    between atoms: O_12  and  P_13
REMARK    9  A    between atoms: P_13  and  O_15
REMARK   10  A    between atoms: P_13  and  O_16
REMARK   11  A    between atoms: C_17  and  O_18
REMARK   12  A    between atoms: O_18  and  P_19
REMARK   13  A    between atoms: P_19  and  O_21
REMARK   14  A    between atoms: P_19  and  O_22
REMARK   15  A    between atoms: C_23  and  O_24
REMARK                            x       y       z     vdW  Elec       q    Type
REMARK                         _______ _______ _______ _____ _____    ______ ____
ROOT
ATOM      1  C   UNL     1       2.991   7.465  17.792  0.00  0.00    +0.000 C 
ATOM      2  O   UNL     1       2.721   7.154  19.132  0.00  0.00    +0.000 OA
ATOM      3  C   UNL     1       2.618   5.756  19.418  0.00  0.00    +0.000 C 
ATOM      4  C   UNL     1       4.071   5.113  19.291  0.00  0.00    +0.000 C 
ATOM      5  C   UNL     1       4.728   5.578  17.964  0.00  0.00    +0.000 C 
ATOM      6  C   UNL     1       4.441   7.052  17.523  0.00  0.00    +0.000 C 
ENDROOT
BRANCH   6   7
ATOM      7  O   UNL     1       4.770   7.260  16.145  0.00  0.00    +0.000 OA
ATOM      8  H   UNL     1       5.736   7.227  16.028  0.00  0.00    +0.000 HD
ENDBRANCH   6   7
BRANCH   1   9
ATOM      9  O   UNL     1       2.832   8.862  17.643  0.00  0.00    +0.000 OA
BRANCH   9  11
ATOM     10  O   UNL     1       0.214   8.880  17.396  0.00  0.00    +0.000 OA
ATOM     11  P   UNL     1       1.410   9.453  18.078  0.00  0.00    +0.000 P 
BRANCH  11  12
ATOM     12  O   UNL     1       1.566  11.027  17.868  0.00  0.00    +0.000 OA
ATOM     13  H   UNL     1       1.942  11.451  18.659  0.00  0.00    +0.000 HD
ENDBRANCH  11  12
BRANCH  11  14
ATOM     14  O   UNL     1       1.370   9.344  19.671  0.00  0.00    +0.000 OA
ATOM     15  H   UNL     1       1.943  10.032  20.080  0.00  0.00    +0.000 HD
ENDBRANCH  11  14
ENDBRANCH   9  11
ENDBRANCH   1   9
BRANCH   3  16
ATOM     16  C   UNL     1       1.924   5.850  20.805  0.00  0.00    +0.000 C 
BRANCH  16  17
ATOM     17  O   UNL     1       2.324   4.731  21.621  0.00  0.00    +0.000 OA
ATOM     18  H   UNL     1       2.857   4.141  21.052  0.00  0.00    +0.000 HD
ENDBRANCH  16  17
ENDBRANCH   3  16
BRANCH   4  19
ATOM     19  O   UNL     1       4.185   3.615  19.487  0.00  0.00    +0.000 OA
BRANCH  19  20
ATOM     20  P   UNL     1       2.916   3.099  18.431  0.00  0.00    +0.000 P 
ATOM     21  O   UNL     1       3.820   2.082  17.752  0.00  0.00    +0.000 OA
BRANCH  20  22
ATOM     22  O   UNL     1       2.163   2.348  19.657  0.00  0.00    +0.000 OA
ATOM     23  H   UNL     1       1.891   1.431  19.473  0.00  0.00    +0.000 HD
ENDBRANCH  20  22
BRANCH  20  24
ATOM     24  O   UNL     1       1.647   2.582  17.375  0.00  0.00    +0.000 OA
ATOM     25  H   UNL     1       0.853   2.963  17.810  0.00  0.00    +0.000 HD
ENDBRANCH  20  24
ENDBRANCH  19  20
ENDBRANCH   4  19
BRANCH   5  26
ATOM     26  O   UNL     1       6.150   5.369  17.982  0.00  0.00    +0.000 OA
BRANCH  26  27
ATOM     27  P   UNL     1       6.882   4.688  16.729  0.00  0.00    +0.000 P 
ATOM     28  O   UNL     1       6.083   3.746  15.899  0.00  0.00    +0.000 OA
BRANCH  27  29
ATOM     29  O   UNL     1       7.446   5.928  15.908  0.00  0.00    +0.000 OA
ATOM     30  H   UNL     1       8.313   6.214  16.264  0.00  0.00    +0.000 HD
ENDBRANCH  27  29
BRANCH  27  31
ATOM     31  O   UNL     1       8.221   4.034  17.300  0.00  0.00    +0.000 OA
ATOM     32  H   UNL     1       8.981   4.207  16.708  0.00  0.00    +0.000 HD
ENDBRANCH  27  31
ENDBRANCH  26  27
ENDBRANCH   5  26
TORSDOF 15
ENDMDL
MODEL 5
REMARK VINA RESULT:      -5.7      2.970      4.596
REMARK  Name = 
REMARK  15 active torsions:
REMARK  status: ('A' for Active; 'I' for Inactive)
REMARK    1  A    between atoms: P_2  and  O_3
REMARK    2  A    between atoms: P_2  and  O_4
REMARK    3  A    between atoms: P_2  and  O_5
REMARK    4  A    between atoms: O_5  and  C_6
REMARK    5  A    between atoms: C_8  and  C_9
REMARK    6  A    between atoms: C_9  and  O_10
REMARK    7  A    between atoms: C_11  and  O_12
REMARK    8  A    between atoms: O_12  and  P_13
REMARK    9  A    between atoms: P_13  and  O_15
REMARK   10  A    between atoms: P_13  and  O_16
REMARK   11  A    between atoms: C_17  and  O_18
REMARK   12  A    between atoms: O_18  and  P_19
REMARK   13  A    between atoms: P_19  and  O_21
REMARK   14  A    between atoms: P_19  and  O_22
REMARK   15  A    between atoms: C_23  and  O_24
REMARK                            x       y       z     vdW  Elec       q    Type
REMARK                         _______ _______ _______ _____ _____    ______ ____
ROOT
ATOM      1  C   UNL     1       5.271   5.159  19.377  0.00  0.00    +0.000 C 
ATOM      2  O   UNL     1       5.337   3.768  19.539  0.00  0.00    +0.000 OA
ATOM      3  C   UNL     1       4.128   3.067  19.237  0.00  0.00    +0.000 C 
ATOM      4  C   UNL     1       3.892   3.133  17.663  0.00  0.00    +0.000 C 
ATOM      5  C   UNL     1       4.074   4.595  17.173  0.00  0.00    +0.000 C 
ATOM      6  C   UNL     1       5.200   5.428  17.872  0.00  0.00    +0.000 C 
ENDROOT
BRANCH   6   7
ATOM      7  O   UNL     1       5.044   6.830  17.624  0.00  0.00    +0.000 OA
ATOM      8  H   UNL     1       4.580   7.248  18.371  0.00  0.00    +0.000 HD
ENDBRANCH   6   7
BRANCH   1   9
ATOM      9  O   UNL     1       6.453   5.705  19.929  0.00  0.00    +0.000 OA
BRANCH   9  11
ATOM     10  O   UNL     1       8.058   6.787  18.149  0.00  0.00    +0.000 OA
ATOM     11  P   UNL     1       7.761   5.608  19.011  0.00  0.00    +0.000 P 
BRANCH  11  12
ATOM     12  O   UNL     1       7.552   4.257  18.187  0.00  0.00    +0.000 OA
ATOM     13  H   UNL     1       7.278   4.443  17.272  0.00  0.00    +0.000 HD
ENDBRANCH  11  12
BRANCH  11  14
ATOM     14  O   UNL     1       8.948   5.201  19.998  0.00  0.00    +0.000 OA
ATOM     15  H   UNL     1       8.683   4.440  20.565  0.00  0.00    +0.000 HD
ENDBRANCH  11  14
ENDBRANCH   9  11
ENDBRANCH   1   9
BRANCH   3  16
ATOM     16  C   UNL     1       4.463   1.712  19.921  0.00  0.00    +0.000 C 
BRANCH  16  17
ATOM     17  O   UNL     1       4.480   0.664  18.931  0.00  0.00    +0.000 OA
ATOM     18  H   UNL     1       5.242   0.840  18.344  0.00  0.00    +0.000 HD
ENDBRANCH  16  17
ENDBRANCH   3  16
BRANCH   4  19
ATOM     19  O   UNL     1       2.621   2.508  17.125  0.00  0.00    +0.000 OA
BRANCH  19  20
ATOM     20  P   UNL     1       1.528   2.973  18.384  0.00  0.00    +0.000 P 
ATOM     21  O   UNL     1       0.811   3.957  17.473  0.00  0.00    +0.000 OA
BRANCH  20  22
ATOM     22  O   UNL     1       0.757   1.549  18.277  0.00  0.00    +0.000 OA
ATOM     23  H   UNL     1      -0.134   1.533  18.670  0.00  0.00    +0.000 HD
ENDBRANCH  20  22
BRANCH  20  24
ATOM     24  O   UNL     1       0.436   3.437  19.642  0.00  0.00    +0.000 OA
ATOM     25  H   UNL     1       0.521   2.686  20.271  0.00  0.00    +0.000 HD
ENDBRANCH  20  24
ENDBRANCH  19  20
ENDBRANCH   4  19
BRANCH   5  26
ATOM     26  O   UNL     1       4.271   4.651  15.751  0.00  0.00    +0.000 OA
BRANCH  26  27
ATOM     27  P   UNL     1       5.735   4.446  15.130  0.00  0.00    +0.000 P 
ATOM     28  O   UNL     1       6.719   5.545  15.323  0.00  0.00    +0.000 OA
BRANCH  27  29
ATOM     29  O   UNL     1       6.210   3.058  15.745  0.00  0.00    +0.000 OA
ATOM     30  H   UNL     1       6.061   2.328  15.108  0.00  0.00    +0.000 HD
ENDBRANCH  27  29
BRANCH  27  31
ATOM     31  O   UNL     1       5.516   4.068  13.595  0.00  0.00    +0.000 OA
ATOM     32  H   UNL     1       6.127   3.358  13.313  0.00  0.00    +0.000 HD
ENDBRANCH  27  31
ENDBRANCH  26  27
ENDBRANCH   5  26
TORSDOF 15
ENDMDL
MODEL 6
REMARK VINA RESULT:      -5.7      2.293      4.910
REMARK  Name = 
REMARK  15 active torsions:
REMARK  status: ('A' for Active; 'I' for Inactive)
REMARK    1  A    between atoms: P_2  and  O_3
REMARK    2  A    between atoms: P_2  and  O_4
REMARK    3  A    between atoms: P_2  and  O_5
REMARK    4  A    between atoms: O_5  and  C_6
REMARK    5  A    between atoms: C_8  and  C_9
REMARK    6  A    between atoms: C_9  and  O_10
REMARK    7  A    between atoms: C_11  and  O_12
REMARK    8  A    between atoms: O_12  and  P_13
REMARK    9  A    between atoms: P_13  and  O_15
REMARK   10  A    between atoms: P_13  and  O_16
REMARK   11  A    between atoms: C_17  and  O_18
REMARK   12  A    between atoms: O_18  and  P_19
REMARK   13  A    between atoms: P_19  and  O_21
REMARK   14  A    between atoms: P_19  and  O_22
REMARK   15  A    between atoms: C_23  and  O_24
REMARK                            x       y       z     vdW  Elec       q    Type
REMARK                         _______ _______ _______ _____ _____    ______ ____
ROOT
ATOM      1  C   UNL     1       3.445   4.278  18.662  0.00  0.00    +0.000 C 
ATOM      2  O   UNL     1       2.933   5.574  18.511  0.00  0.00    +0.000 OA
ATOM      3  C   UNL     1       3.907   6.577  18.212  0.00  0.00    +0.000 C 
ATOM      4  C   UNL     1       4.435   6.334  16.728  0.00  0.00    +0.000 C 
ATOM      5  C   UNL     1       4.797   4.835  16.548  0.00  0.00    +0.000 C 
ATOM      6  C   UNL     1       3.868   3.802  17.269  0.00  0.00    +0.000 C 
ENDROOT
BRANCH   6   7
ATOM      7  O   UNL     1       4.483   2.512  17.350  0.00  0.00    +0.000 OA
ATOM      8  H   UNL     1       3.805   1.817  17.276  0.00  0.00    +0.000 HD
ENDBRANCH   6   7
BRANCH   1   9
ATOM      9  O   UNL     1       2.404   3.469  19.173  0.00  0.00    +0.000 OA
BRANCH   9  11
ATOM     10  O   UNL     1       3.178   2.536  21.506  0.00  0.00    +0.000 OA
ATOM     11  P   UNL     1       2.257   3.445  20.766  0.00  0.00    +0.000 P 
BRANCH  11  12
ATOM     12  O   UNL     1       0.714   3.116  21.006  0.00  0.00    +0.000 OA
ATOM     13  H   UNL     1       0.339   2.629  20.252  0.00  0.00    +0.000 HD
ENDBRANCH  11  12
BRANCH  11  14
ATOM     14  O   UNL     1       2.334   4.973  21.227  0.00  0.00    +0.000 OA
ATOM     15  H   UNL     1       3.140   5.131  21.769  0.00  0.00    +0.000 HD
ENDBRANCH  11  14
ENDBRANCH   9  11
ENDBRANCH   1   9
BRANCH   3  16
ATOM     16  C   UNL     1       3.059   7.837  18.542  0.00  0.00    +0.000 C 
BRANCH  16  17
ATOM     17  O   UNL     1       2.223   7.568  19.686  0.00  0.00    +0.000 OA
ATOM     18  H   UNL     1       2.699   7.904  20.471  0.00  0.00    +0.000 HD
ENDBRANCH  16  17
ENDBRANCH   3  16
BRANCH   4  19
ATOM     19  O   UNL     1       5.534   7.247  16.225  0.00  0.00    +0.000 OA
BRANCH  19  20
ATOM     20  P   UNL     1       6.715   6.969  17.458  0.00  0.00    +0.000 P 
ATOM     21  O   UNL     1       7.753   6.524  16.440  0.00  0.00    +0.000 OA
BRANCH  20  22
ATOM     22  O   UNL     1       6.898   8.566  17.682  0.00  0.00    +0.000 OA
ATOM     23  H   UNL     1       7.376   9.029  16.971  0.00  0.00    +0.000 HD
ENDBRANCH  20  22
BRANCH  20  24
ATOM     24  O   UNL     1       7.896   6.691  18.691  0.00  0.00    +0.000 OA
ATOM     25  H   UNL     1       8.733   6.901  18.220  0.00  0.00    +0.000 HD
ENDBRANCH  20  24
ENDBRANCH  19  20
ENDBRANCH   4  19
BRANCH   5  26
ATOM     26  O   UNL     1       4.889   4.482  15.157  0.00  0.00    +0.000 OA
BRANCH  26  27
ATOM     27  P   UNL     1       6.300   4.057  14.524  0.00  0.00    +0.000 P 
ATOM     28  O   UNL     1       6.279   3.063  13.417  0.00  0.00    +0.000 OA
BRANCH  27  29
ATOM     29  O   UNL     1       6.957   5.445  14.112  0.00  0.00    +0.000 OA
ATOM     30  H   UNL     1       7.323   5.399  13.203  0.00  0.00    +0.000 HD
ENDBRANCH  27  29
BRANCH  27  31
ATOM     31  O   UNL     1       7.218   3.607  15.749  0.00  0.00    +0.000 OA
ATOM     32  H   UNL     1       8.101   4.026  15.703  0.00  0.00    +0.000 HD
ENDBRANCH  27  31
ENDBRANCH  26  27
ENDBRANCH   5  26
TORSDOF 15
ENDMDL
MODEL 7
REMARK VINA RESULT:      -5.7      1.357      2.143
REMARK  Name = 
REMARK  15 active torsions:
REMARK  status: ('A' for Active; 'I' for Inactive)
REMARK    1  A    between atoms: P_2  and  O_3
REMARK    2  A    between atoms: P_2  and  O_4
REMARK    3  A    between atoms: P_2  and  O_5
REMARK    4  A    between atoms: O_5  and  C_6
REMARK    5  A    between atoms: C_8  and  C_9
REMARK    6  A    between atoms: C_9  and  O_10
REMARK    7  A    between atoms: C_11  and  O_12
REMARK    8  A    between atoms: O_12  and  P_13
REMARK    9  A    between atoms: P_13  and  O_15
REMARK   10  A    between atoms: P_13  and  O_16
REMARK   11  A    between atoms: C_17  and  O_18
REMARK   12  A    between atoms: O_18  and  P_19
REMARK   13  A    between atoms: P_19  and  O_21
REMARK   14  A    between atoms: P_19  and  O_22
REMARK   15  A    between atoms: C_23  and  O_24
REMARK                            x       y       z     vdW  Elec       q    Type
REMARK                         _______ _______ _______ _____ _____    ______ ____
ROOT
ATOM      1  C   UNL     1       2.111   7.529  18.699  0.00  0.00    +0.000 C 
ATOM      2  O   UNL     1       1.963   6.586  19.726  0.00  0.00    +0.000 OA
ATOM      3  C   UNL     1       1.868   5.228  19.289  0.00  0.00    +0.000 C 
ATOM      4  C   UNL     1       3.292   4.781  18.731  0.00  0.00    +0.000 C 
ATOM      5  C   UNL     1       3.829   5.865  17.757  0.00  0.00    +0.000 C 
ATOM      6  C   UNL     1       3.523   7.353  18.133  0.00  0.00    +0.000 C 
ENDROOT
BRANCH   6   7
ATOM      7  O   UNL     1       3.724   8.227  17.017  0.00  0.00    +0.000 OA
ATOM      8  H   UNL     1       3.847   7.704  16.205  0.00  0.00    +0.000 HD
ENDBRANCH   6   7
BRANCH   1   9
ATOM      9  O   UNL     1       1.959   8.811  19.277  0.00  0.00    +0.000 OA
BRANCH   9  11
ATOM     10  O   UNL     1      -0.116   9.299  17.737  0.00  0.00    +0.000 OA
ATOM     11  P   UNL     1       1.075   9.852  18.442  0.00  0.00    +0.000 P 
BRANCH  11  12
ATOM     12  O   UNL     1       2.125  10.548  17.462  0.00  0.00    +0.000 OA
ATOM     13  H   UNL     1       2.856  10.952  17.961  0.00  0.00    +0.000 HD
ENDBRANCH  11  12
BRANCH  11  14
ATOM     14  O   UNL     1       0.744  11.042  19.455  0.00  0.00    +0.000 OA
ATOM     15  H   UNL     1       0.942  10.774  20.381  0.00  0.00    +0.000 HD
ENDBRANCH  11  14
ENDBRANCH   9  11
ENDBRANCH   1   9
BRANCH   3  16
ATOM     16  C   UNL     1       1.308   4.599  20.595  0.00  0.00    +0.000 C 
BRANCH  16  17
ATOM     17  O   UNL     1       0.492   3.456  20.268  0.00  0.00    +0.000 OA
ATOM     18  H   UNL     1       0.988   2.663  20.550  0.00  0.00    +0.000 HD
ENDBRANCH  16  17
ENDBRANCH   3  16
BRANCH   4  19
ATOM     19  O   UNL     1       3.402   3.388  18.147  0.00  0.00    +0.000 OA
BRANCH  19  20
ATOM     20  P   UNL     1       4.189   2.594  19.467  0.00  0.00    +0.000 P 
ATOM     21  O   UNL     1       4.032   1.230  18.812  0.00  0.00    +0.000 OA
BRANCH  20  22
ATOM     22  O   UNL     1       5.625   3.198  19.011  0.00  0.00    +0.000 OA
ATOM     23  H   UNL     1       5.708   3.387  18.059  0.00  0.00    +0.000 HD
ENDBRANCH  20  22
BRANCH  20  24
ATOM     24  O   UNL     1       4.976   1.799  20.787  0.00  0.00    +0.000 OA
ATOM     25  H   UNL     1       4.519   0.930  20.801  0.00  0.00    +0.000 HD
ENDBRANCH  20  24
ENDBRANCH  19  20
ENDBRANCH   4  19
BRANCH   5  26
ATOM     26  O   UNL     1       5.242   5.722  17.542  0.00  0.00    +0.000 OA
BRANCH  26  27
ATOM     27  P   UNL     1       5.809   5.398  16.078  0.00  0.00    +0.000 P 
ATOM     28  O   UNL     1       7.276   5.190  15.944  0.00  0.00    +0.000 OA
BRANCH  27  29
ATOM     29  O   UNL     1       4.949   4.142  15.615  0.00  0.00    +0.000 OA
ATOM     30  H   UNL     1       5.136   3.922  14.678  0.00  0.00    +0.000 HD
ENDBRANCH  27  29
BRANCH  27  31
ATOM     31  O   UNL     1       5.252   6.549  15.123  0.00  0.00    +0.000 OA
ATOM     32  H   UNL     1       4.800   6.174  14.340  0.00  0.00    +0.000 HD
ENDBRANCH  27  31
ENDBRANCH  26  27
ENDBRANCH   5  26
TORSDOF 15
ENDMDL
MODEL 8
REMARK VINA RESULT:      -5.7      0.529      1.007
REMARK  Name = 
REMARK  15 active torsions:
REMARK  status: ('A' for Active; 'I' for Inactive)
REMARK    1  A    between atoms: P_2  and  O_3
REMARK    2  A    between atoms: P_2  and  O_4
REMARK    3  A    between atoms: P_2  and  O_5
REMARK    4  A    between atoms: O_5  and  C_6
REMARK    5  A    between atoms: C_8  and  C_9
REMARK    6  A    between atoms: C_9  and  O_10
REMARK    7  A    between atoms: C_11  and  O_12
REMARK    8  A    between atoms: O_12  and  P_13
REMARK    9  A    between atoms: P_13  and  O_15
REMARK   10  A    between atoms: P_13  and  O_16
REMARK   11  A    between atoms: C_17  and  O_18
REMARK   12  A    between atoms: O_18  and  P_19
REMARK   13  A    between atoms: P_19  and  O_21
REMARK   14  A    between atoms: P_19  and  O_22
REMARK   15  A    between atoms: C_23  and  O_24
REMARK                            x       y       z     vdW  Elec       q    Type
REMARK                         _______ _______ _______ _____ _____    ______ ____
ROOT
ATOM      1  C   UNL     1       3.017   7.505  17.719  0.00  0.00    +0.000 C 
ATOM      2  O   UNL     1       2.706   7.220  19.056  0.00  0.00    +0.000 OA
ATOM      3  C   UNL     1       2.610   5.828  19.370  0.00  0.00    +0.000 C 
ATOM      4  C   UNL     1       4.073   5.200  19.305  0.00  0.00    +0.000 C 
ATOM      5  C   UNL     1       4.769   5.643  17.990  0.00  0.00    +0.000 C 
ATOM      6  C   UNL     1       4.480   7.104  17.507  0.00  0.00    +0.000 C 
ENDROOT
BRANCH   6   7
ATOM      7  O   UNL     1       4.851   7.285  16.136  0.00  0.00    +0.000 OA
ATOM      8  H   UNL     1       5.321   6.495  15.814  0.00  0.00    +0.000 HD
ENDBRANCH   6   7
BRANCH   1   9
ATOM      9  O   UNL     1       2.847   8.896  17.533  0.00  0.00    +0.000 OA
BRANCH   9  11
ATOM     10  O   UNL     1       1.303   9.188  19.641  0.00  0.00    +0.000 OA
ATOM     11  P   UNL     1       1.548   9.537  18.213  0.00  0.00    +0.000 P 
BRANCH  11  12
ATOM     12  O   UNL     1       0.355   9.108  17.243  0.00  0.00    +0.000 OA
ATOM     13  H   UNL     1       0.103   8.179  17.387  0.00  0.00    +0.000 HD
ENDBRANCH  11  12
BRANCH  11  14
ATOM     14  O   UNL     1       1.644  11.106  17.928  0.00  0.00    +0.000 OA
ATOM     15  H   UNL     1       2.346  11.295  17.264  0.00  0.00    +0.000 HD
ENDBRANCH  11  14
ENDBRANCH   9  11
ENDBRANCH   1   9
BRANCH   3  16
ATOM     16  C   UNL     1       1.870   5.944  20.731  0.00  0.00    +0.000 C 
BRANCH  16  17
ATOM     17  O   UNL     1       2.271   4.860  21.592  0.00  0.00    +0.000 OA
ATOM     18  H   UNL     1       1.728   4.924  22.402  0.00  0.00    +0.000 HD
ENDBRANCH  16  17
ENDBRANCH   3  16
BRANCH   4  19
ATOM     19  O   UNL     1       4.198   3.709  19.538  0.00  0.00    +0.000 OA
BRANCH  19  20
ATOM     20  P   UNL     1       2.963   3.154  18.460  0.00  0.00    +0.000 P 
ATOM     21  O   UNL     1       3.900   2.139  17.823  0.00  0.00    +0.000 OA
BRANCH  20  22
ATOM     22  O   UNL     1       2.192   2.413  19.681  0.00  0.00    +0.000 OA
ATOM     23  H   UNL     1       1.317   2.050  19.455  0.00  0.00    +0.000 HD
ENDBRANCH  20  22
BRANCH  20  24
ATOM     24  O   UNL     1       1.729   2.599  17.383  0.00  0.00    +0.000 OA
ATOM     25  H   UNL     1       1.637   3.361  16.771  0.00  0.00    +0.000 HD
ENDBRANCH  20  24
ENDBRANCH  19  20
ENDBRANCH   4  19
BRANCH   5  26
ATOM     26  O   UNL     1       6.191   5.451  18.059  0.00  0.00    +0.000 OA
BRANCH  26  27
ATOM     27  P   UNL     1       6.974   4.765  16.840  0.00  0.00    +0.000 P 
ATOM     28  O   UNL     1       7.392   5.645  15.715  0.00  0.00    +0.000 OA
BRANCH  27  29
ATOM     29  O   UNL     1       8.192   4.026  17.548  0.00  0.00    +0.000 OA
ATOM     30  H   UNL     1       7.922   3.138  17.864  0.00  0.00    +0.000 HD
ENDBRANCH  27  29
BRANCH  27  31
ATOM     31  O   UNL     1       6.071   3.537  16.369  0.00  0.00    +0.000 OA
ATOM     32  H   UNL     1       6.617   2.827  15.972  0.00  0.00    +0.000 HD
ENDBRANCH  27  31
ENDBRANCH  26  27
ENDBRANCH   5  26
TORSDOF 15
ENDMDL
MODEL 9
REMARK VINA RESULT:      -5.6      2.199      4.905
REMARK  Name = 
REMARK  15 active torsions:
REMARK  status: ('A' for Active; 'I' for Inactive)
REMARK    1  A    between atoms: P_2  and  O_3
REMARK    2  A    between atoms: P_2  and  O_4
REMARK    3  A    between atoms: P_2  and  O_5
REMARK    4  A    between atoms: O_5  and  C_6
REMARK    5  A    between atoms: C_8  and  C_9
REMARK    6  A    between atoms: C_9  and  O_10
REMARK    7  A    between atoms: C_11  and  O_12
REMARK    8  A    between atoms: O_12  and  P_13
REMARK    9  A    between atoms: P_13  and  O_15
REMARK   10  A    between atoms: P_13  and  O_16
REMARK   11  A    between atoms: C_17  and  O_18
REMARK   12  A    between atoms: O_18  and  P_19
REMARK   13  A    between atoms: P_19  and  O_21
REMARK   14  A    between atoms: P_19  and  O_22
REMARK   15  A    between atoms: C_23  and  O_24
REMARK                            x       y       z     vdW  Elec       q    Type
REMARK                         _______ _______ _______ _____ _____    ______ ____
ROOT
ATOM      1  C   UNL     1       3.469   4.343  18.644  0.00  0.00    +0.000 C 
ATOM      2  O   UNL     1       2.921   5.623  18.481  0.00  0.00    +0.000 OA
ATOM      3  C   UNL     1       3.870   6.656  18.205  0.00  0.00    +0.000 C 
ATOM      4  C   UNL     1       4.439   6.430  16.733  0.00  0.00    +0.000 C 
ATOM      5  C   UNL     1       4.851   4.943  16.560  0.00  0.00    +0.000 C 
ATOM      6  C   UNL     1       3.938   3.882  17.261  0.00  0.00    +0.000 C 
ENDROOT
BRANCH   6   7
ATOM      7  O   UNL     1       4.591   2.611  17.356  0.00  0.00    +0.000 OA
ATOM      8  H   UNL     1       4.464   2.112  16.530  0.00  0.00    +0.000 HD
ENDBRANCH   6   7
BRANCH   1   9
ATOM      9  O   UNL     1       2.442   3.502  19.131  0.00  0.00    +0.000 OA
BRANCH   9  11
ATOM     10  O   UNL     1       3.158   2.530  21.467  0.00  0.00    +0.000 OA
ATOM     11  P   UNL     1       2.268   3.465  20.722  0.00  0.00    +0.000 P 
BRANCH  11  12
ATOM     12  O   UNL     1       0.714   3.164  20.931  0.00  0.00    +0.000 OA
ATOM     13  H   UNL     1       0.581   2.340  21.431  0.00  0.00    +0.000 HD
ENDBRANCH  11  12
BRANCH  11  14
ATOM     14  O   UNL     1       2.367   4.986  21.199  0.00  0.00    +0.000 OA
ATOM     15  H   UNL     1       2.488   5.585  20.428  0.00  0.00    +0.000 HD
ENDBRANCH  11  14
ENDBRANCH   9  11
ENDBRANCH   1   9
BRANCH   3  16
ATOM     16  C   UNL     1       2.976   7.888  18.516  0.00  0.00    +0.000 C 
BRANCH  16  17
ATOM     17  O   UNL     1       2.637   8.560  17.286  0.00  0.00    +0.000 OA
ATOM     18  H   UNL     1       2.425   7.865  16.632  0.00  0.00    +0.000 HD
ENDBRANCH  16  17
ENDBRANCH   3  16
BRANCH   4  19
ATOM     19  O   UNL     1       5.520   7.378  16.255  0.00  0.00    +0.000 OA
BRANCH  19  20
ATOM     20  P   UNL     1       6.723   7.058  17.457  0.00  0.00    +0.000 P 
ATOM     21  O   UNL     1       7.737   6.632  16.407  0.00  0.00    +0.000 OA
BRANCH  20  22
ATOM     22  O   UNL     1       6.922   8.648  17.719  0.00  0.00    +0.000 OA
ATOM     23  H   UNL     1       6.106   9.135  17.932  0.00  0.00    +0.000 HD
ENDBRANCH  20  22
BRANCH  20  24
ATOM     24  O   UNL     1       7.925   6.740  18.658  0.00  0.00    +0.000 OA
ATOM     25  H   UNL     1       8.338   5.916  18.318  0.00  0.00    +0.000 HD
ENDBRANCH  20  24
ENDBRANCH  19  20
ENDBRANCH   4  19
BRANCH   5  26
ATOM     26  O   UNL     1       4.985   4.595  15.173  0.00  0.00    +0.000 OA
BRANCH  26  27
ATOM     27  P   UNL     1       6.427   4.250  14.562  0.00  0.00    +0.000 P 
ATOM     28  O   UNL     1       7.169   5.356  13.898  0.00  0.00    +0.000 OA
BRANCH  27  29
ATOM     29  O   UNL     1       7.211   3.616  15.792  0.00  0.00    +0.000 OA
ATOM     30  H   UNL     1       6.684   2.901  16.207  0.00  0.00    +0.000 HD
ENDBRANCH  27  29
BRANCH  27  31
ATOM     31  O   UNL     1       6.216   2.983  13.616  0.00  0.00    +0.000 OA
ATOM     32  H   UNL     1       6.838   2.998  12.860  0.00  0.00    +0.000 HD
ENDBRANCH  27  31
ENDBRANCH  26  27
ENDBRANCH   5  26
TORSDOF 15
ENDMDL
