MODEL 1
REMARK VINA RESULT:      -7.4      0.000      0.000
REMARK  Name = 
REMARK  4 active torsions:
REMARK  status: ('A' for Active; 'I' for Inactive)
REMARK    1  A    between atoms: C_1  and  C_2
REMARK    2  A    between atoms: C_2  and  O_3
REMARK    3  A    between atoms: O_3  and  C_4
REMARK    4  A    between atoms: C_9  and  N_10
REMARK                            x       y       z     vdW  Elec       q    Type
REMARK                         _______ _______ _______ _____ _____    ______ ____
ROOT
ATOM      1  N   UNL     1       5.899   4.048  18.794  0.00  0.00    +0.000 N 
ATOM      2  C   UNL     1       4.576   4.024  19.219  0.00  0.00    +0.000 C 
ATOM      3  O   UNL     1       3.760   4.916  19.000  0.00  0.00    +0.000 OA
ATOM      4  N   UNL     1       4.297   2.906  19.977  0.00  0.00    +0.000 N 
ATOM      5  C   UNL     1       3.077   2.760  20.619  0.00  0.00    +0.000 A 
ATOM      6  C   UNL     1       1.792   3.158  20.181  0.00  0.00    +0.000 A 
ATOM      7  C   UNL     1       0.965   2.865  21.233  0.00  0.00    +0.000 A 
ATOM      8  O   UNL     1       1.689   2.288  22.223  0.00  0.00    +0.000 OA
ATOM      9  N   UNL     1       3.009   2.175  21.821  0.00  0.00    +0.000 NA
ATOM     10  H   UNL     1       6.324   3.162  18.547  0.00  0.00    +0.000 HD
ATOM     11  H   UNL     1       5.067   2.502  20.489  0.00  0.00    +0.000 HD
ENDROOT
BRANCH   1  17
ATOM     12  C   UNL     1       6.384   5.639  16.993  0.00  0.00    +0.000 A 
ATOM     13  C   UNL     1       7.015   6.825  16.560  0.00  0.00    +0.000 A 
ATOM     14  C   UNL     1       7.891   7.509  17.392  0.00  0.00    +0.000 A 
ATOM     15  C   UNL     1       8.151   7.029  18.667  0.00  0.00    +0.000 A 
ATOM     16  C   UNL     1       7.490   5.890  19.130  0.00  0.00    +0.000 A 
ATOM     17  C   UNL     1       6.578   5.201  18.317  0.00  0.00    +0.000 A 
BRANCH  12  18
ATOM     18  O   UNL     1       5.582   4.869  16.174  0.00  0.00    +0.000 OA
BRANCH  18  20
ATOM     19  C   UNL     1       5.925   4.070  13.920  0.00  0.00    +0.000 C 
ATOM     20  C   UNL     1       6.287   3.900  15.383  0.00  0.00    +0.000 C 
ENDBRANCH  18  20
ENDBRANCH  12  18
ENDBRANCH   1  17
TORSDOF 3
ENDMDL
MODEL 2
REMARK VINA RESULT:      -7.3      2.118      6.230
REMARK  Name = 
REMARK  4 active torsions:
REMARK  status: ('A' for Active; 'I' for Inactive)
REMARK    1  A    between atoms: C_1  and  C_2
REMARK    2  A    between atoms: C_2  and  O_3
REMARK    3  A    between atoms: O_3  and  C_4
REMARK    4  A    between atoms: C_9  and  N_10
REMARK                            x       y       z     vdW  Elec       q    Type
REMARK                         _______ _______ _______ _____ _____    ______ ____
ROOT
ATOM      1  N   UNL     1       4.762   3.107  19.134  0.00  0.00    +0.000 N 
ATOM      2  C   UNL     1       5.435   4.319  19.042  0.00  0.00    +0.000 C 
ATOM      3  O   UNL     1       5.193   5.303  19.737  0.00  0.00    +0.000 OA
ATOM      4  N   UNL     1       6.372   4.315  18.029  0.00  0.00    +0.000 N 
ATOM      5  C   UNL     1       7.050   5.471  17.674  0.00  0.00    +0.000 A 
ATOM      6  C   UNL     1       7.507   6.521  18.505  0.00  0.00    +0.000 A 
ATOM      7  C   UNL     1       8.018   7.448  17.636  0.00  0.00    +0.000 A 
ATOM      8  O   UNL     1       7.921   6.975  16.369  0.00  0.00    +0.000 OA
ATOM      9  N   UNL     1       7.357   5.710  16.393  0.00  0.00    +0.000 NA
ATOM     10  H   UNL     1       5.296   2.264  18.955  0.00  0.00    +0.000 HD
ATOM     11  H   UNL     1       6.190   3.704  17.248  0.00  0.00    +0.000 HD
ENDROOT
BRANCH   1  17
ATOM     12  C   UNL     1       2.311   3.061  19.121  0.00  0.00    +0.000 A 
ATOM     13  C   UNL     1       1.100   2.797  19.796  0.00  0.00    +0.000 A 
ATOM     14  C   UNL     1       1.092   2.484  21.149  0.00  0.00    +0.000 A 
ATOM     15  C   UNL     1       2.287   2.425  21.851  0.00  0.00    +0.000 A 
ATOM     16  C   UNL     1       3.497   2.626  21.184  0.00  0.00    +0.000 A 
ATOM     17  C   UNL     1       3.529   2.912  19.812  0.00  0.00    +0.000 A 
BRANCH  12  18
ATOM     18  O   UNL     1       2.367   3.471  17.803  0.00  0.00    +0.000 OA
BRANCH  18  20
ATOM     19  C   UNL     1       2.239   5.870  18.054  0.00  0.00    +0.000 C 
ATOM     20  C   UNL     1       1.570   4.626  17.500  0.00  0.00    +0.000 C 
ENDBRANCH  18  20
ENDBRANCH  12  18
ENDBRANCH   1  17
TORSDOF 3
ENDMDL
MODEL 3
REMARK VINA RESULT:      -7.1      4.329      5.380
REMARK  Name = 
REMARK  4 active torsions:
REMARK  status: ('A' for Active; 'I' for Inactive)
REMARK    1  A    between atoms: C_1  and  C_2
REMARK    2  A    between atoms: C_2  and  O_3
REMARK    3  A    between atoms: O_3  and  C_4
REMARK    4  A    between atoms: C_9  and  N_10
REMARK                            x       y       z     vdW  Elec       q    Type
REMARK                         _______ _______ _______ _____ _____    ______ ____
ROOT
ATOM      1  N   UNL     1       2.845   5.838  20.019  0.00  0.00    +0.000 N 
ATOM      2  C   UNL     1       2.229   7.078  19.911  0.00  0.00    +0.000 C 
ATOM      3  O   UNL     1       2.172   7.739  18.877  0.00  0.00    +0.000 OA
ATOM      4  N   UNL     1       1.739   7.519  21.124  0.00  0.00    +0.000 N 
ATOM      5  C   UNL     1       1.216   8.795  21.266  0.00  0.00    +0.000 A 
ATOM      6  C   UNL     1       0.459   9.551  20.341  0.00  0.00    +0.000 A 
ATOM      7  C   UNL     1       0.288  10.766  20.948  0.00  0.00    +0.000 A 
ATOM      8  O   UNL     1       0.862  10.736  22.176  0.00  0.00    +0.000 OA
ATOM      9  N   UNL     1       1.404   9.481  22.400  0.00  0.00    +0.000 NA
ATOM     10  H   UNL     1       2.436   5.169  20.661  0.00  0.00    +0.000 HD
ATOM     11  H   UNL     1       2.213   7.188  21.950  0.00  0.00    +0.000 HD
ENDROOT
BRANCH   1  17
ATOM     12  C   UNL     1       3.245   4.523  17.988  0.00  0.00    +0.000 A 
ATOM     13  C   UNL     1       4.144   4.046  17.010  0.00  0.00    +0.000 A 
ATOM     14  C   UNL     1       5.511   4.246  17.142  0.00  0.00    +0.000 A 
ATOM     15  C   UNL     1       6.007   4.926  18.244  0.00  0.00    +0.000 A 
ATOM     16  C   UNL     1       5.127   5.454  19.191  0.00  0.00    +0.000 A 
ATOM     17  C   UNL     1       3.740   5.291  19.060  0.00  0.00    +0.000 A 
BRANCH  12  18
ATOM     18  O   UNL     1       1.888   4.268  17.955  0.00  0.00    +0.000 OA
BRANCH  18  20
ATOM     19  C   UNL     1       0.832   2.917  19.656  0.00  0.00    +0.000 C 
ATOM     20  C   UNL     1       1.522   2.924  18.306  0.00  0.00    +0.000 C 
ENDBRANCH  18  20
ENDBRANCH  12  18
ENDBRANCH   1  17
TORSDOF 3
ENDMDL
MODEL 4
REMARK VINA RESULT:      -7.1      2.602      6.692
REMARK  Name = 
REMARK  4 active torsions:
REMARK  status: ('A' for Active; 'I' for Inactive)
REMARK    1  A    between atoms: C_1  and  C_2
REMARK    2  A    between atoms: C_2  and  O_3
REMARK    3  A    between atoms: O_3  and  C_4
REMARK    4  A    between atoms: C_9  and  N_10
REMARK                            x       y       z     vdW  Elec       q    Type
REMARK                         _______ _______ _______ _____ _____    ______ ____
ROOT
ATOM      1  N   UNL     1       4.836   3.295  16.821  0.00  0.00    +0.000 N 
ATOM      2  C   UNL     1       5.512   4.087  15.902  0.00  0.00    +0.000 C 
ATOM      3  O   UNL     1       5.568   5.313  15.950  0.00  0.00    +0.000 OA
ATOM      4  N   UNL     1       6.067   3.339  14.884  0.00  0.00    +0.000 N 
ATOM      5  C   UNL     1       6.660   3.946  13.788  0.00  0.00    +0.000 A 
ATOM      6  C   UNL     1       7.423   5.137  13.739  0.00  0.00    +0.000 A 
ATOM      7  C   UNL     1       7.679   5.326  12.408  0.00  0.00    +0.000 A 
ATOM      8  O   UNL     1       7.147   4.299  11.700  0.00  0.00    +0.000 OA
ATOM      9  N   UNL     1       6.548   3.403  12.570  0.00  0.00    +0.000 NA
ATOM     10  H   UNL     1       5.232   2.386  17.032  0.00  0.00    +0.000 HD
ATOM     11  H   UNL     1       5.606   2.471  14.658  0.00  0.00    +0.000 HD
ENDROOT
BRANCH   1  17
ATOM     12  C   UNL     1       4.302   4.270  19.007  0.00  0.00    +0.000 A 
ATOM     13  C   UNL     1       3.343   4.803  19.895  0.00  0.00    +0.000 A 
ATOM     14  C   UNL     1       1.990   4.760  19.590  0.00  0.00    +0.000 A 
ATOM     15  C   UNL     1       1.567   4.190  18.399  0.00  0.00    +0.000 A 
ATOM     16  C   UNL     1       2.507   3.711  17.484  0.00  0.00    +0.000 A 
ATOM     17  C   UNL     1       3.881   3.774  17.758  0.00  0.00    +0.000 A 
BRANCH  12  18
ATOM     18  O   UNL     1       5.649   4.201  19.303  0.00  0.00    +0.000 OA
BRANCH  18  20
ATOM     19  C   UNL     1       7.682   5.351  18.685  0.00  0.00    +0.000 C 
ATOM     20  C   UNL     1       6.320   5.470  19.343  0.00  0.00    +0.000 C 
ENDBRANCH  18  20
ENDBRANCH  12  18
ENDBRANCH   1  17
TORSDOF 3
ENDMDL
MODEL 5
REMARK VINA RESULT:      -6.8      2.433      6.346
REMARK  Name = 
REMARK  4 active torsions:
REMARK  status: ('A' for Active; 'I' for Inactive)
REMARK    1  A    between atoms: C_1  and  C_2
REMARK    2  A    between atoms: C_2  and  O_3
REMARK    3  A    between atoms: O_3  and  C_4
REMARK    4  A    between atoms: C_9  and  N_10
REMARK                            x       y       z     vdW  Elec       q    Type
REMARK                         _______ _______ _______ _____ _____    ______ ____
ROOT
ATOM      1  N   UNL     1       3.878   5.362  18.896  0.00  0.00    +0.000 N 
ATOM      2  C   UNL     1       4.314   5.052  17.613  0.00  0.00    +0.000 C 
ATOM      3  O   UNL     1       3.789   4.214  16.884  0.00  0.00    +0.000 OA
ATOM      4  N   UNL     1       5.453   5.751  17.271  0.00  0.00    +0.000 N 
ATOM      5  C   UNL     1       6.134   5.483  16.094  0.00  0.00    +0.000 A 
ATOM      6  C   UNL     1       5.610   5.121  14.830  0.00  0.00    +0.000 A 
ATOM      7  C   UNL     1       6.715   4.882  14.057  0.00  0.00    +0.000 A 
ATOM      8  O   UNL     1       7.832   5.126  14.785  0.00  0.00    +0.000 OA
ATOM      9  N   UNL     1       7.470   5.552  16.053  0.00  0.00    +0.000 NA
ATOM     10  H   UNL     1       3.981   6.322  19.202  0.00  0.00    +0.000 HD
ATOM     11  H   UNL     1       6.060   6.025  18.029  0.00  0.00    +0.000 HD
ENDROOT
BRANCH   1  17
ATOM     12  C   UNL     1       3.391   3.343  20.199  0.00  0.00    +0.000 A 
ATOM     13  C   UNL     1       2.498   2.610  21.009  0.00  0.00    +0.000 A 
ATOM     14  C   UNL     1       1.192   3.041  21.201  0.00  0.00    +0.000 A 
ATOM     15  C   UNL     1       0.754   4.209  20.595  0.00  0.00    +0.000 A 
ATOM     16  C   UNL     1       1.642   4.976  19.838  0.00  0.00    +0.000 A 
ATOM     17  C   UNL     1       2.973   4.575  19.658  0.00  0.00    +0.000 A 
BRANCH  12  18
ATOM     18  O   UNL     1       4.667   2.910  19.898  0.00  0.00    +0.000 OA
BRANCH  18  20
ATOM     19  C   UNL     1       3.873   1.217  18.367  0.00  0.00    +0.000 C 
ATOM     20  C   UNL     1       4.763   1.517  19.558  0.00  0.00    +0.000 C 
ENDBRANCH  18  20
ENDBRANCH  12  18
ENDBRANCH   1  17
TORSDOF 3
ENDMDL
MODEL 6
REMARK VINA RESULT:      -6.7      4.323      5.186
REMARK  Name = 
REMARK  4 active torsions:
REMARK  status: ('A' for Active; 'I' for Inactive)
REMARK    1  A    between atoms: C_1  and  C_2
REMARK    2  A    between atoms: C_2  and  O_3
REMARK    3  A    between atoms: O_3  and  C_4
REMARK    4  A    between atoms: C_9  and  N_10
REMARK                            x       y       z     vdW  Elec       q    Type
REMARK                         _______ _______ _______ _____ _____    ______ ____
ROOT
ATOM      1  N   UNL     1       3.009   6.101  19.411  0.00  0.00    +0.000 N 
ATOM      2  C   UNL     1       2.232   7.243  19.552  0.00  0.00    +0.000 C 
ATOM      3  O   UNL     1       1.905   7.981  18.626  0.00  0.00    +0.000 OA
ATOM      4  N   UNL     1       1.918   7.495  20.872  0.00  0.00    +0.000 N 
ATOM      5  C   UNL     1       1.273   8.663  21.247  0.00  0.00    +0.000 A 
ATOM      6  C   UNL     1       0.271   9.384  20.555  0.00  0.00    +0.000 A 
ATOM      7  C   UNL     1       0.061  10.500  21.319  0.00  0.00    +0.000 A 
ATOM      8  O   UNL     1       0.847  10.441  22.422  0.00  0.00    +0.000 OA
ATOM      9  N   UNL     1       1.575   9.263  22.405  0.00  0.00    +0.000 NA
ATOM     10  H   UNL     1       2.811   5.324  20.030  0.00  0.00    +0.000 HD
ATOM     11  H   UNL     1       2.572   7.161  21.564  0.00  0.00    +0.000 HD
ENDROOT
BRANCH   1  17
ATOM     12  C   UNL     1       3.873   4.443  17.823  0.00  0.00    +0.000 A 
ATOM     13  C   UNL     1       4.585   4.155  16.640  0.00  0.00    +0.000 A 
ATOM     14  C   UNL     1       5.263   5.154  15.955  0.00  0.00    +0.000 A 
ATOM     15  C   UNL     1       5.243   6.455  16.434  0.00  0.00    +0.000 A 
ATOM     16  C   UNL     1       4.496   6.767  17.572  0.00  0.00    +0.000 A 
ATOM     17  C   UNL     1       3.777   5.779  18.259  0.00  0.00    +0.000 A 
BRANCH  12  18
ATOM     18  O   UNL     1       3.263   3.472  18.593  0.00  0.00    +0.000 OA
BRANCH  18  20
ATOM     19  C   UNL     1       1.036   2.542  18.700  0.00  0.00    +0.000 C 
ATOM     20  C   UNL     1       2.312   2.659  17.888  0.00  0.00    +0.000 C 
ENDBRANCH  18  20
ENDBRANCH  12  18
ENDBRANCH   1  17
TORSDOF 3
ENDMDL
MODEL 7
REMARK VINA RESULT:      -6.7      2.594      6.766
REMARK  Name = 
REMARK  4 active torsions:
REMARK  status: ('A' for Active; 'I' for Inactive)
REMARK    1  A    between atoms: C_1  and  C_2
REMARK    2  A    between atoms: C_2  and  O_3
REMARK    3  A    between atoms: O_3  and  C_4
REMARK    4  A    between atoms: C_9  and  N_10
REMARK                            x       y       z     vdW  Elec       q    Type
REMARK                         _______ _______ _______ _____ _____    ______ ____
ROOT
ATOM      1  N   UNL     1       4.038   5.511  18.669  0.00  0.00    +0.000 N 
ATOM      2  C   UNL     1       4.493   5.101  17.421  0.00  0.00    +0.000 C 
ATOM      3  O   UNL     1       4.058   4.131  16.808  0.00  0.00    +0.000 OA
ATOM      4  N   UNL     1       5.542   5.878  16.974  0.00  0.00    +0.000 N 
ATOM      5  C   UNL     1       6.236   5.550  15.819  0.00  0.00    +0.000 A 
ATOM      6  C   UNL     1       5.744   4.985  14.619  0.00  0.00    +0.000 A 
ATOM      7  C   UNL     1       6.860   4.780  13.853  0.00  0.00    +0.000 A 
ATOM      8  O   UNL     1       7.950   5.231  14.521  0.00  0.00    +0.000 OA
ATOM      9  N   UNL     1       7.555   5.761  15.739  0.00  0.00    +0.000 NA
ATOM     10  H   UNL     1       4.036   6.506  18.860  0.00  0.00    +0.000 HD
ATOM     11  H   UNL     1       6.123   6.304  17.680  0.00  0.00    +0.000 HD
ENDROOT
BRANCH   1  17
ATOM     12  C   UNL     1       2.034   5.243  20.056  0.00  0.00    +0.000 A 
ATOM     13  C   UNL     1       1.220   4.420  20.863  0.00  0.00    +0.000 A 
ATOM     14  C   UNL     1       1.633   3.146  21.226  0.00  0.00    +0.000 A 
ATOM     15  C   UNL     1       2.859   2.667  20.790  0.00  0.00    +0.000 A 
ATOM     16  C   UNL     1       3.650   3.446  19.943  0.00  0.00    +0.000 A 
ATOM     17  C   UNL     1       3.237   4.723  19.539  0.00  0.00    +0.000 A 
BRANCH  12  18
ATOM     18  O   UNL     1       1.714   6.550  19.746  0.00  0.00    +0.000 OA
BRANCH  18  20
ATOM     19  C   UNL     1       1.100   8.781  20.441  0.00  0.00    +0.000 C 
ATOM     20  C   UNL     1       1.647   7.435  20.875  0.00  0.00    +0.000 C 
ENDBRANCH  18  20
ENDBRANCH  12  18
ENDBRANCH   1  17
TORSDOF 3
ENDMDL
MODEL 8
REMARK VINA RESULT:      -6.7      1.514      1.557
REMARK  Name = 
REMARK  4 active torsions:
REMARK  status: ('A' for Active; 'I' for Inactive)
REMARK    1  A    between atoms: C_1  and  C_2
REMARK    2  A    between atoms: C_2  and  O_3
REMARK    3  A    between atoms: O_3  and  C_4
REMARK    4  A    between atoms: C_9  and  N_10
REMARK                            x       y       z     vdW  Elec       q    Type
REMARK                         _______ _______ _______ _____ _____    ______ ____
ROOT
ATOM      1  N   UNL     1       6.051   4.202  17.822  0.00  0.00    +0.000 N 
ATOM      2  C   UNL     1       4.670   4.115  17.949  0.00  0.00    +0.000 C 
ATOM      3  O   UNL     1       3.905   5.074  17.898  0.00  0.00    +0.000 OA
ATOM      4  N   UNL     1       4.256   2.824  18.206  0.00  0.00    +0.000 N 
ATOM      5  C   UNL     1       2.933   2.542  18.511  0.00  0.00    +0.000 A 
ATOM      6  C   UNL     1       1.758   3.141  17.998  0.00  0.00    +0.000 A 
ATOM      7  C   UNL     1       0.740   2.558  18.704  0.00  0.00    +0.000 A 
ATOM      8  O   UNL     1       1.255   1.637  19.554  0.00  0.00    +0.000 OA
ATOM      9  N   UNL     1       2.631   1.588  19.400  0.00  0.00    +0.000 NA
ATOM     10  H   UNL     1       6.526   3.429  17.371  0.00  0.00    +0.000 HD
ATOM     11  H   UNL     1       4.911   2.225  18.685  0.00  0.00    +0.000 HD
ENDROOT
BRANCH   1  17
ATOM     12  C   UNL     1       6.844   6.295  16.820  0.00  0.00    +0.000 A 
ATOM     13  C   UNL     1       7.537   7.517  16.955  0.00  0.00    +0.000 A 
ATOM     14  C   UNL     1       8.247   7.809  18.111  0.00  0.00    +0.000 A 
ATOM     15  C   UNL     1       8.277   6.894  19.153  0.00  0.00    +0.000 A 
ATOM     16  C   UNL     1       7.549   5.707  19.058  0.00  0.00    +0.000 A 
ATOM     17  C   UNL     1       6.800   5.406  17.912  0.00  0.00    +0.000 A 
BRANCH  12  18
ATOM     18  O   UNL     1       6.204   5.914  15.657  0.00  0.00    +0.000 OA
BRANCH  18  20
ATOM     19  C   UNL     1       6.016   4.075  14.101  0.00  0.00    +0.000 C 
ATOM     20  C   UNL     1       6.958   5.019  14.823  0.00  0.00    +0.000 C 
ENDBRANCH  18  20
ENDBRANCH  12  18
ENDBRANCH   1  17
TORSDOF 3
ENDMDL
MODEL 9
REMARK VINA RESULT:      -6.7      2.099      6.693
REMARK  Name = 
REMARK  4 active torsions:
REMARK  status: ('A' for Active; 'I' for Inactive)
REMARK    1  A    between atoms: C_1  and  C_2
REMARK    2  A    between atoms: C_2  and  O_3
REMARK    3  A    between atoms: O_3  and  C_4
REMARK    4  A    between atoms: C_9  and  N_10
REMARK                            x       y       z     vdW  Elec       q    Type
REMARK                         _______ _______ _______ _____ _____    ______ ____
ROOT
ATOM      1  N   UNL     1       4.743   3.254  18.785  0.00  0.00    +0.000 N 
ATOM      2  C   UNL     1       5.506   4.411  18.882  0.00  0.00    +0.000 C 
ATOM      3  O   UNL     1       5.415   5.230  19.793  0.00  0.00    +0.000 OA
ATOM      4  N   UNL     1       6.343   4.571  17.796  0.00  0.00    +0.000 N 
ATOM      5  C   UNL     1       7.083   5.730  17.625  0.00  0.00    +0.000 A 
ATOM      6  C   UNL     1       7.702   6.539  18.606  0.00  0.00    +0.000 A 
ATOM      7  C   UNL     1       8.211   7.600  17.905  0.00  0.00    +0.000 A 
ATOM      8  O   UNL     1       7.958   7.426  16.585  0.00  0.00    +0.000 OA
ATOM      9  N   UNL     1       7.291   6.226  16.399  0.00  0.00    +0.000 NA
ATOM     10  H   UNL     1       5.184   2.439  18.373  0.00  0.00    +0.000 HD
ATOM     11  H   UNL     1       6.038   4.160  16.926  0.00  0.00    +0.000 HD
ENDROOT
BRANCH   1  17
ATOM     12  C   UNL     1       3.655   2.407  20.813  0.00  0.00    +0.000 A 
ATOM     13  C   UNL     1       2.478   2.220  21.568  0.00  0.00    +0.000 A 
ATOM     14  C   UNL     1       1.233   2.521  21.033  0.00  0.00    +0.000 A 
ATOM     15  C   UNL     1       1.137   3.015  19.741  0.00  0.00    +0.000 A 
ATOM     16  C   UNL     1       2.296   3.261  19.002  0.00  0.00    +0.000 A 
ATOM     17  C   UNL     1       3.565   2.994  19.535  0.00  0.00    +0.000 A 
BRANCH  12  18
ATOM     18  O   UNL     1       4.907   2.035  21.260  0.00  0.00    +0.000 OA
BRANCH  18  20
ATOM     19  C   UNL     1       6.101   0.118  22.120  0.00  0.00    +0.000 C 
ATOM     20  C   UNL     1       5.261   0.671  20.984  0.00  0.00    +0.000 C 
ENDBRANCH  18  20
ENDBRANCH  12  18
ENDBRANCH   1  17
TORSDOF 3
ENDMDL
