MODEL 1
REMARK VINA RESULT:      -7.6      0.000      0.000
REMARK  Name = 
REMARK  4 active torsions:
REMARK  status: ('A' for Active; 'I' for Inactive)
REMARK    1  A    between atoms: C_1  and  C_2
REMARK    2  A    between atoms: C_7  and  N_8
REMARK    3  A    between atoms: N_11  and  C_12
REMARK    4  A    between atoms: C_12  and  C_13
REMARK                            x       y       z     vdW  Elec       q    Type
REMARK                         _______ _______ _______ _____ _____    ______ ____
ROOT
ATOM      1  N   UNL     1       6.934   7.519  16.786  0.00  0.00    +0.000 N 
ATOM      2  C   UNL     1       7.771   7.819  17.843  0.00  0.00    +0.000 C 
ATOM      3  O   UNL     1       8.166   7.018  18.682  0.00  0.00    +0.000 OA
ATOM      4  N   UNL     1       8.175   9.139  17.869  0.00  0.00    +0.000 N 
ATOM      5  H   UNL     1       6.992   8.145  15.996  0.00  0.00    +0.000 HD
ATOM      6  H   UNL     1       7.483   9.817  17.587  0.00  0.00    +0.000 HD
ENDROOT
BRANCH   1  13
ATOM      7  C   UNL     1       4.072   7.059  17.569  0.00  0.00    +0.000 C 
ATOM      8  C   UNL     1       4.971   6.019  16.977  0.00  0.00    +0.000 A 
ATOM      9  N   UNL     1       4.373   4.814  16.781  0.00  0.00    +0.000 NA
ATOM     10  N   UNL     1       5.056   3.786  16.212  0.00  0.00    +0.000 NA
ATOM     11  C   UNL     1       6.336   3.973  15.862  0.00  0.00    +0.000 A 
ATOM     12  C   UNL     1       6.990   5.172  16.055  0.00  0.00    +0.000 A 
ATOM     13  C   UNL     1       6.300   6.253  16.605  0.00  0.00    +0.000 A 
ENDBRANCH   1  13
BRANCH   4  14
ATOM     14  C   UNL     1       8.982   9.528  19.015  0.00  0.00    +0.000 C 
BRANCH  14  15
ATOM     15  C   UNL     1       9.604  10.890  18.918  0.00  0.00    +0.000 A 
ATOM     16  C   UNL     1      10.345  11.266  17.784  0.00  0.00    +0.000 A 
ATOM     17  C   UNL     1      11.000  12.509  17.719  0.00  0.00    +0.000 A 
ATOM     18  C   UNL     1      10.930  13.406  18.787  0.00  0.00    +0.000 A 
ATOM     19  C   UNL     1      10.221  13.020  19.910  0.00  0.00    +0.000 A 
ATOM     20  C   UNL     1       9.574  11.792  19.968  0.00  0.00    +0.000 A 
ATOM     21  O   UNL     1       8.924  11.580  21.159  0.00  0.00    +0.000 OA
ATOM     22  C   UNL     1       9.452  12.618  22.022  0.00  0.00    +0.000 C 
ATOM     23  C   UNL     1       9.966  13.770  21.160  0.00  0.00    +0.000 C 
ENDBRANCH  14  15
ENDBRANCH   4  14
TORSDOF 3
ENDMDL
MODEL 2
REMARK VINA RESULT:      -7.4      4.694      7.160
REMARK  Name = 
REMARK  4 active torsions:
REMARK  status: ('A' for Active; 'I' for Inactive)
REMARK    1  A    between atoms: C_1  and  C_2
REMARK    2  A    between atoms: C_7  and  N_8
REMARK    3  A    between atoms: N_11  and  C_12
REMARK    4  A    between atoms: C_12  and  C_13
REMARK                            x       y       z     vdW  Elec       q    Type
REMARK                         _______ _______ _______ _____ _____    ______ ____
ROOT
ATOM      1  N   UNL     1       5.241   5.559  18.600  0.00  0.00    +0.000 N 
ATOM      2  C   UNL     1       3.869   5.562  18.748  0.00  0.00    +0.000 C 
ATOM      3  O   UNL     1       3.063   5.227  17.887  0.00  0.00    +0.000 OA
ATOM      4  N   UNL     1       3.450   5.954  20.003  0.00  0.00    +0.000 N 
ATOM      5  H   UNL     1       5.771   5.490  19.457  0.00  0.00    +0.000 HD
ATOM      6  H   UNL     1       3.989   6.689  20.438  0.00  0.00    +0.000 HD
ENDROOT
BRANCH   1  13
ATOM      7  C   UNL     1       7.433   7.339  17.578  0.00  0.00    +0.000 C 
ATOM      8  C   UNL     1       6.924   6.122  16.870  0.00  0.00    +0.000 A 
ATOM      9  N   UNL     1       7.566   5.849  15.703  0.00  0.00    +0.000 NA
ATOM     10  N   UNL     1       7.238   4.750  14.973  0.00  0.00    +0.000 NA
ATOM     11  C   UNL     1       6.258   3.949  15.412  0.00  0.00    +0.000 A 
ATOM     12  C   UNL     1       5.567   4.193  16.580  0.00  0.00    +0.000 A 
ATOM     13  C   UNL     1       5.910   5.295  17.366  0.00  0.00    +0.000 A 
ENDBRANCH   1  13
BRANCH   4  14
ATOM     14  C   UNL     1       2.010   6.064  20.183  0.00  0.00    +0.000 C 
BRANCH  14  15
ATOM     15  C   UNL     1       1.514   7.448  20.479  0.00  0.00    +0.000 A 
ATOM     16  C   UNL     1       0.809   7.725  21.664  0.00  0.00    +0.000 A 
ATOM     17  C   UNL     1       0.270   9.000  21.911  0.00  0.00    +0.000 A 
ATOM     18  C   UNL     1       0.421  10.029  20.979  0.00  0.00    +0.000 A 
ATOM     19  C   UNL     1       1.092   9.744  19.804  0.00  0.00    +0.000 A 
ATOM     20  C   UNL     1       1.626   8.483  19.566  0.00  0.00    +0.000 A 
ATOM     21  O   UNL     1       2.254   8.385  18.349  0.00  0.00    +0.000 OA
ATOM     22  C   UNL     1       1.822   9.577  17.647  0.00  0.00    +0.000 C 
ATOM     23  C   UNL     1       1.414  10.637  18.669  0.00  0.00    +0.000 C 
ENDBRANCH  14  15
ENDBRANCH   4  14
TORSDOF 3
ENDMDL
MODEL 3
REMARK VINA RESULT:      -7.4      2.342      8.265
REMARK  Name = 
REMARK  4 active torsions:
REMARK  status: ('A' for Active; 'I' for Inactive)
REMARK    1  A    between atoms: C_1  and  C_2
REMARK    2  A    between atoms: C_7  and  N_8
REMARK    3  A    between atoms: N_11  and  C_12
REMARK    4  A    between atoms: C_12  and  C_13
REMARK                            x       y       z     vdW  Elec       q    Type
REMARK                         _______ _______ _______ _____ _____    ______ ____
ROOT
ATOM      1  N   UNL     1       8.443  10.470  17.537  0.00  0.00    +0.000 N 
ATOM      2  C   UNL     1       8.414   9.230  18.144  0.00  0.00    +0.000 C 
ATOM      3  O   UNL     1       8.960   8.948  19.205  0.00  0.00    +0.000 OA
ATOM      4  N   UNL     1       7.664   8.297  17.456  0.00  0.00    +0.000 N 
ATOM      5  H   UNL     1       7.680  10.662  16.904  0.00  0.00    +0.000 HD
ATOM      6  H   UNL     1       7.715   8.346  16.449  0.00  0.00    +0.000 HD
ENDROOT
BRANCH   1  13
ATOM      7  C   UNL     1       7.452  13.302  17.408  0.00  0.00    +0.000 C 
ATOM      8  C   UNL     1       8.793  12.891  17.932  0.00  0.00    +0.000 A 
ATOM      9  N   UNL     1       9.550  13.923  18.391  0.00  0.00    +0.000 NA
ATOM     10  N   UNL     1      10.774  13.695  18.935  0.00  0.00    +0.000 NA
ATOM     11  C   UNL     1      11.234  12.438  18.994  0.00  0.00    +0.000 A 
ATOM     12  C   UNL     1      10.510  11.361  18.527  0.00  0.00    +0.000 A 
ATOM     13  C   UNL     1       9.235  11.565  17.997  0.00  0.00    +0.000 A 
ENDBRANCH   1  13
BRANCH   4  14
ATOM     14  C   UNL     1       7.678   6.949  18.004  0.00  0.00    +0.000 C 
BRANCH  14  15
ATOM     15  C   UNL     1       6.545   6.073  17.557  0.00  0.00    +0.000 A 
ATOM     16  C   UNL     1       5.550   5.661  18.462  0.00  0.00    +0.000 A 
ATOM     17  C   UNL     1       4.531   4.774  18.071  0.00  0.00    +0.000 A 
ATOM     18  C   UNL     1       4.483   4.277  16.767  0.00  0.00    +0.000 A 
ATOM     19  C   UNL     1       5.478   4.665  15.889  0.00  0.00    +0.000 A 
ATOM     20  C   UNL     1       6.481   5.544  16.279  0.00  0.00    +0.000 A 
ATOM     21  O   UNL     1       7.381   5.813  15.277  0.00  0.00    +0.000 OA
ATOM     22  C   UNL     1       7.095   4.799  14.283  0.00  0.00    +0.000 C 
ATOM     23  C   UNL     1       5.657   4.316  14.462  0.00  0.00    +0.000 C 
ENDBRANCH  14  15
ENDBRANCH   4  14
TORSDOF 3
ENDMDL
MODEL 4
REMARK VINA RESULT:      -7.3      1.615      2.361
REMARK  Name = 
REMARK  4 active torsions:
REMARK  status: ('A' for Active; 'I' for Inactive)
REMARK    1  A    between atoms: C_1  and  C_2
REMARK    2  A    between atoms: C_7  and  N_8
REMARK    3  A    between atoms: N_11  and  C_12
REMARK    4  A    between atoms: C_12  and  C_13
REMARK                            x       y       z     vdW  Elec       q    Type
REMARK                         _______ _______ _______ _____ _____    ______ ____
ROOT
ATOM      1  N   UNL     1       7.592   6.436  18.042  0.00  0.00    +0.000 N 
ATOM      2  C   UNL     1       7.614   7.777  17.714  0.00  0.00    +0.000 C 
ATOM      3  O   UNL     1       6.907   8.310  16.867  0.00  0.00    +0.000 OA
ATOM      4  N   UNL     1       8.506   8.514  18.467  0.00  0.00    +0.000 N 
ATOM      5  H   UNL     1       7.927   6.209  18.968  0.00  0.00    +0.000 HD
ATOM      6  H   UNL     1       9.375   8.054  18.697  0.00  0.00    +0.000 HD
ENDROOT
BRANCH   1  13
ATOM      7  C   UNL     1       5.136   5.181  19.229  0.00  0.00    +0.000 C 
ATOM      8  C   UNL     1       5.694   4.851  17.881  0.00  0.00    +0.000 A 
ATOM      9  N   UNL     1       4.969   3.931  17.189  0.00  0.00    +0.000 NA
ATOM     10  N   UNL     1       5.334   3.565  15.932  0.00  0.00    +0.000 NA
ATOM     11  C   UNL     1       6.431   4.111  15.390  0.00  0.00    +0.000 A 
ATOM     12  C   UNL     1       7.207   5.036  16.058  0.00  0.00    +0.000 A 
ATOM     13  C   UNL     1       6.833   5.454  17.335  0.00  0.00    +0.000 A 
ENDBRANCH   1  13
BRANCH   4  14
ATOM     14  C   UNL     1       8.636   9.915  18.097  0.00  0.00    +0.000 C 
BRANCH  14  15
ATOM     15  C   UNL     1       9.458  10.745  19.040  0.00  0.00    +0.000 A 
ATOM     16  C   UNL     1       9.107  10.857  20.397  0.00  0.00    +0.000 A 
ATOM     17  C   UNL     1       9.823  11.696  21.269  0.00  0.00    +0.000 A 
ATOM     18  C   UNL     1      10.906  12.446  20.804  0.00  0.00    +0.000 A 
ATOM     19  C   UNL     1      11.230  12.352  19.463  0.00  0.00    +0.000 A 
ATOM     20  C   UNL     1      10.521  11.518  18.607  0.00  0.00    +0.000 A 
ATOM     21  O   UNL     1      10.983  11.556  17.314  0.00  0.00    +0.000 OA
ATOM     22  C   UNL     1      11.846  12.719  17.295  0.00  0.00    +0.000 C 
ATOM     23  C   UNL     1      12.328  13.005  18.717  0.00  0.00    +0.000 C 
ENDBRANCH  14  15
ENDBRANCH   4  14
TORSDOF 3
ENDMDL
MODEL 5
REMARK VINA RESULT:      -7.2      6.797      8.283
REMARK  Name = 
REMARK  4 active torsions:
REMARK  status: ('A' for Active; 'I' for Inactive)
REMARK    1  A    between atoms: C_1  and  C_2
REMARK    2  A    between atoms: C_7  and  N_8
REMARK    3  A    between atoms: N_11  and  C_12
REMARK    4  A    between atoms: C_12  and  C_13
REMARK                            x       y       z     vdW  Elec       q    Type
REMARK                         _______ _______ _______ _____ _____    ______ ____
ROOT
ATOM      1  N   UNL     1       2.662   6.584  20.051  0.00  0.00    +0.000 N 
ATOM      2  C   UNL     1       2.228   7.390  19.017  0.00  0.00    +0.000 C 
ATOM      3  O   UNL     1       2.268   7.098  17.827  0.00  0.00    +0.000 OA
ATOM      4  N   UNL     1       1.689   8.588  19.441  0.00  0.00    +0.000 N 
ATOM      5  H   UNL     1       2.244   6.769  20.951  0.00  0.00    +0.000 HD
ATOM      6  H   UNL     1       2.139   9.016  20.237  0.00  0.00    +0.000 HD
ENDROOT
BRANCH   1  13
ATOM      7  C   UNL     1       1.392   3.949  20.729  0.00  0.00    +0.000 C 
ATOM      8  C   UNL     1       2.777   4.112  20.187  0.00  0.00    +0.000 A 
ATOM      9  N   UNL     1       3.437   2.940  19.985  0.00  0.00    +0.000 NA
ATOM     10  N   UNL     1       4.689   2.933  19.457  0.00  0.00    +0.000 NA
ATOM     11  C   UNL     1       5.273   4.100  19.154  0.00  0.00    +0.000 A 
ATOM     12  C   UNL     1       4.651   5.315  19.356  0.00  0.00    +0.000 A 
ATOM     13  C   UNL     1       3.351   5.347  19.863  0.00  0.00    +0.000 A 
ENDBRANCH   1  13
BRANCH   4  14
ATOM     14  C   UNL     1       1.302   9.513  18.387  0.00  0.00    +0.000 C 
BRANCH  14  15
ATOM     15  C   UNL     1      -0.035  10.165  18.577  0.00  0.00    +0.000 A 
ATOM     16  C   UNL     1      -1.055  10.015  17.621  0.00  0.00    +0.000 A 
ATOM     17  C   UNL     1      -2.283  10.688  17.751  0.00  0.00    +0.000 A 
ATOM     18  C   UNL     1      -2.520  11.531  18.839  0.00  0.00    +0.000 A 
ATOM     19  C   UNL     1      -1.504  11.695  19.763  0.00  0.00    +0.000 A 
ATOM     20  C   UNL     1      -0.293  11.025  19.631  0.00  0.00    +0.000 A 
ATOM     21  O   UNL     1       0.594  11.313  20.639  0.00  0.00    +0.000 OA
ATOM     22  C   UNL     1       0.014  12.474  21.281  0.00  0.00    +0.000 C 
ATOM     23  C   UNL     1      -1.489  12.497  21.007  0.00  0.00    +0.000 C 
ENDBRANCH  14  15
ENDBRANCH   4  14
TORSDOF 3
ENDMDL
MODEL 6
REMARK VINA RESULT:      -7.1      1.369      1.781
REMARK  Name = 
REMARK  4 active torsions:
REMARK  status: ('A' for Active; 'I' for Inactive)
REMARK    1  A    between atoms: C_1  and  C_2
REMARK    2  A    between atoms: C_7  and  N_8
REMARK    3  A    between atoms: N_11  and  C_12
REMARK    4  A    between atoms: C_12  and  C_13
REMARK                            x       y       z     vdW  Elec       q    Type
REMARK                         _______ _______ _______ _____ _____    ______ ____
ROOT
ATOM      1  N   UNL     1       7.010   7.632  16.830  0.00  0.00    +0.000 N 
ATOM      2  C   UNL     1       7.840   7.917  17.896  0.00  0.00    +0.000 C 
ATOM      3  O   UNL     1       8.239   7.103  18.720  0.00  0.00    +0.000 OA
ATOM      4  N   UNL     1       8.234   9.239  17.949  0.00  0.00    +0.000 N 
ATOM      5  H   UNL     1       7.066   8.273  16.052  0.00  0.00    +0.000 HD
ATOM      6  H   UNL     1       7.537   9.918  17.678  0.00  0.00    +0.000 HD
ENDROOT
BRANCH   1  13
ATOM      7  C   UNL     1       4.121   7.162  17.502  0.00  0.00    +0.000 C 
ATOM      8  C   UNL     1       5.045   6.126  16.942  0.00  0.00    +0.000 A 
ATOM      9  N   UNL     1       4.458   4.919  16.720  0.00  0.00    +0.000 NA
ATOM     10  N   UNL     1       5.165   3.895  16.174  0.00  0.00    +0.000 NA
ATOM     11  C   UNL     1       6.457   4.086  15.874  0.00  0.00    +0.000 A 
ATOM     12  C   UNL     1       7.101   5.286  16.096  0.00  0.00    +0.000 A 
ATOM     13  C   UNL     1       6.386   6.364  16.621  0.00  0.00    +0.000 A 
ENDBRANCH   1  13
BRANCH   4  14
ATOM     14  C   UNL     1       9.033   9.613  19.106  0.00  0.00    +0.000 C 
BRANCH  14  15
ATOM     15  C   UNL     1       9.739  10.931  18.988  0.00  0.00    +0.000 A 
ATOM     16  C   UNL     1      10.962  11.157  19.645  0.00  0.00    +0.000 A 
ATOM     17  C   UNL     1      11.589  12.415  19.607  0.00  0.00    +0.000 A 
ATOM     18  C   UNL     1      11.008  13.478  18.912  0.00  0.00    +0.000 A 
ATOM     19  C   UNL     1       9.793  13.257  18.289  0.00  0.00    +0.000 A 
ATOM     20  C   UNL     1       9.179  12.011  18.328  0.00  0.00    +0.000 A 
ATOM     21  O   UNL     1       7.981  11.981  17.658  0.00  0.00    +0.000 OA
ATOM     22  C   UNL     1       7.677  13.381  17.441  0.00  0.00    +0.000 C 
ATOM     23  C   UNL     1       8.976  14.184  17.475  0.00  0.00    +0.000 C 
ENDBRANCH  14  15
ENDBRANCH   4  14
TORSDOF 3
ENDMDL
MODEL 7
REMARK VINA RESULT:      -7.1      0.581      1.479
REMARK  Name = 
REMARK  4 active torsions:
REMARK  status: ('A' for Active; 'I' for Inactive)
REMARK    1  A    between atoms: C_1  and  C_2
REMARK    2  A    between atoms: C_7  and  N_8
REMARK    3  A    between atoms: N_11  and  C_12
REMARK    4  A    between atoms: C_12  and  C_13
REMARK                            x       y       z     vdW  Elec       q    Type
REMARK                         _______ _______ _______ _____ _____    ______ ____
ROOT
ATOM      1  N   UNL     1       6.590   7.463  16.919  0.00  0.00    +0.000 N 
ATOM      2  C   UNL     1       7.565   7.708  17.865  0.00  0.00    +0.000 C 
ATOM      3  O   UNL     1       7.987   6.890  18.674  0.00  0.00    +0.000 OA
ATOM      4  N   UNL     1       8.078   8.988  17.808  0.00  0.00    +0.000 N 
ATOM      5  H   UNL     1       6.607   8.067  16.110  0.00  0.00    +0.000 HD
ATOM      6  H   UNL     1       7.417   9.719  17.589  0.00  0.00    +0.000 HD
ENDROOT
BRANCH   1  13
ATOM      7  C   UNL     1       7.407   5.196  15.126  0.00  0.00    +0.000 C 
ATOM      8  C   UNL     1       6.196   5.193  16.006  0.00  0.00    +0.000 A 
ATOM      9  N   UNL     1       5.479   4.038  15.960  0.00  0.00    +0.000 NA
ATOM     10  N   UNL     1       4.377   3.876  16.739  0.00  0.00    +0.000 NA
ATOM     11  C   UNL     1       3.995   4.880  17.540  0.00  0.00    +0.000 A 
ATOM     12  C   UNL     1       4.680   6.076  17.608  0.00  0.00    +0.000 A 
ATOM     13  C   UNL     1       5.835   6.252  16.846  0.00  0.00    +0.000 A 
ENDBRANCH   1  13
BRANCH   4  14
ATOM     14  C   UNL     1       9.042   9.327  18.844  0.00  0.00    +0.000 C 
BRANCH  14  15
ATOM     15  C   UNL     1       9.543  10.741  18.804  0.00  0.00    +0.000 A 
ATOM     16  C   UNL     1      10.218  11.237  17.674  0.00  0.00    +0.000 A 
ATOM     17  C   UNL     1      10.762  12.533  17.659  0.00  0.00    +0.000 A 
ATOM     18  C   UNL     1      10.647  13.365  18.775  0.00  0.00    +0.000 A 
ATOM     19  C   UNL     1      10.005  12.863  19.893  0.00  0.00    +0.000 A 
ATOM     20  C   UNL     1       9.466  11.582  19.901  0.00  0.00    +0.000 A 
ATOM     21  O   UNL     1       8.871  11.255  21.095  0.00  0.00    +0.000 OA
ATOM     22  C   UNL     1       9.333  12.289  21.998  0.00  0.00    +0.000 C 
ATOM     23  C   UNL     1       9.723  13.523  21.187  0.00  0.00    +0.000 C 
ENDBRANCH  14  15
ENDBRANCH   4  14
TORSDOF 3
ENDMDL
MODEL 8
REMARK VINA RESULT:      -7.1      6.939     10.094
REMARK  Name = 
REMARK  4 active torsions:
REMARK  status: ('A' for Active; 'I' for Inactive)
REMARK    1  A    between atoms: C_1  and  C_2
REMARK    2  A    between atoms: C_7  and  N_8
REMARK    3  A    between atoms: N_11  and  C_12
REMARK    4  A    between atoms: C_12  and  C_13
REMARK                            x       y       z     vdW  Elec       q    Type
REMARK                         _______ _______ _______ _____ _____    ______ ____
ROOT
ATOM      1  N   UNL     1       0.899   9.826  19.785  0.00  0.00    +0.000 N 
ATOM      2  C   UNL     1       1.702   8.930  19.108  0.00  0.00    +0.000 C 
ATOM      3  O   UNL     1       2.240   9.138  18.027  0.00  0.00    +0.000 OA
ATOM      4  N   UNL     1       1.893   7.741  19.784  0.00  0.00    +0.000 N 
ATOM      5  H   UNL     1       0.837   9.687  20.783  0.00  0.00    +0.000 HD
ATOM      6  H   UNL     1       1.095   7.392  20.295  0.00  0.00    +0.000 HD
ENDROOT
BRANCH   1  13
ATOM      7  C   UNL     1      -1.713  10.107  18.329  0.00  0.00    +0.000 C 
ATOM      8  C   UNL     1      -0.739  11.221  18.554  0.00  0.00    +0.000 A 
ATOM      9  N   UNL     1      -1.145  12.422  18.063  0.00  0.00    +0.000 NA
ATOM     10  N   UNL     1      -0.381  13.533  18.231  0.00  0.00    +0.000 NA
ATOM     11  C   UNL     1       0.790  13.424  18.872  0.00  0.00    +0.000 A 
ATOM     12  C   UNL     1       1.252  12.225  19.374  0.00  0.00    +0.000 A 
ATOM     13  C   UNL     1       0.469  11.077  19.246  0.00  0.00    +0.000 A 
ENDBRANCH   1  13
BRANCH   4  14
ATOM     14  C   UNL     1       2.655   6.727  19.072  0.00  0.00    +0.000 C 
BRANCH  14  15
ATOM     15  C   UNL     1       2.257   5.312  19.370  0.00  0.00    +0.000 A 
ATOM     16  C   UNL     1       1.482   5.002  20.501  0.00  0.00    +0.000 A 
ATOM     17  C   UNL     1       1.174   3.670  20.833  0.00  0.00    +0.000 A 
ATOM     18  C   UNL     1       1.634   2.616  20.040  0.00  0.00    +0.000 A 
ATOM     19  C   UNL     1       2.417   2.925  18.943  0.00  0.00    +0.000 A 
ATOM     20  C   UNL     1       2.716   4.243  18.619  0.00  0.00    +0.000 A 
ATOM     21  O   UNL     1       3.506   4.356  17.501  0.00  0.00    +0.000 OA
ATOM     22  C   UNL     1       3.984   3.006  17.285  0.00  0.00    +0.000 C 
ATOM     23  C   UNL     1       3.011   2.022  17.932  0.00  0.00    +0.000 C 
ENDBRANCH  14  15
ENDBRANCH   4  14
TORSDOF 3
ENDMDL
MODEL 9
REMARK VINA RESULT:      -7.1      6.285      9.480
REMARK  Name = 
REMARK  4 active torsions:
REMARK  status: ('A' for Active; 'I' for Inactive)
REMARK    1  A    between atoms: C_1  and  C_2
REMARK    2  A    between atoms: C_7  and  N_8
REMARK    3  A    between atoms: N_11  and  C_12
REMARK    4  A    between atoms: C_12  and  C_13
REMARK                            x       y       z     vdW  Elec       q    Type
REMARK                         _______ _______ _______ _____ _____    ______ ____
ROOT
ATOM      1  N   UNL     1       0.690  10.095  17.876  0.00  0.00    +0.000 N 
ATOM      2  C   UNL     1       1.400   9.143  18.580  0.00  0.00    +0.000 C 
ATOM      3  O   UNL     1       1.292   8.924  19.781  0.00  0.00    +0.000 OA
ATOM      4  N   UNL     1       2.254   8.398  17.792  0.00  0.00    +0.000 N 
ATOM      5  H   UNL     1       0.595   9.922  16.886  0.00  0.00    +0.000 HD
ATOM      6  H   UNL     1       2.716   8.899  17.047  0.00  0.00    +0.000 HD
ENDROOT
BRANCH   1  13
ATOM      7  C   UNL     1      -2.297   9.933  17.604  0.00  0.00    +0.000 C 
ATOM      8  C   UNL     1      -1.567  11.002  18.354  0.00  0.00    +0.000 A 
ATOM      9  N   UNL     1      -2.379  11.913  18.954  0.00  0.00    +0.000 NA
ATOM     10  N   UNL     1      -1.856  12.918  19.705  0.00  0.00    +0.000 NA
ATOM     11  C   UNL     1      -0.525  13.008  19.832  0.00  0.00    +0.000 A 
ATOM     12  C   UNL     1       0.340  12.118  19.230  0.00  0.00    +0.000 A 
ATOM     13  C   UNL     1      -0.174  11.057  18.483  0.00  0.00    +0.000 A 
ENDBRANCH   1  13
BRANCH   4  14
ATOM     14  C   UNL     1       3.095   7.444  18.500  0.00  0.00    +0.000 C 
BRANCH  14  15
ATOM     15  C   UNL     1       3.077   6.051  17.944  0.00  0.00    +0.000 A 
ATOM     16  C   UNL     1       1.993   5.190  18.187  0.00  0.00    +0.000 A 
ATOM     17  C   UNL     1       2.005   3.857  17.739  0.00  0.00    +0.000 A 
ATOM     18  C   UNL     1       3.104   3.352  17.039  0.00  0.00    +0.000 A 
ATOM     19  C   UNL     1       4.178   4.196  16.826  0.00  0.00    +0.000 A 
ATOM     20  C   UNL     1       4.159   5.514  17.268  0.00  0.00    +0.000 A 
ATOM     21  O   UNL     1       5.312   6.198  16.969  0.00  0.00    +0.000 OA
ATOM     22  C   UNL     1       6.237   5.153  16.581  0.00  0.00    +0.000 C 
ATOM     23  C   UNL     1       5.444   3.937  16.104  0.00  0.00    +0.000 C 
ENDBRANCH  14  15
ENDBRANCH   4  14
TORSDOF 3
ENDMDL
