MODEL 1
REMARK VINA RESULT:      -8.5      0.000      0.000
REMARK  Name = 
REMARK  6 active torsions:
REMARK  status: ('A' for Active; 'I' for Inactive)
REMARK    1  A    between atoms: C_1  and  N_2
REMARK    2  A    between atoms: C_5  and  O_6
REMARK    3  A    between atoms: O_6  and  C_7
REMARK    4  A    between atoms: C_7  and  C_8
REMARK    5  A    between atoms: C_8  and  N_9
REMARK    6  A    between atoms: N_12  and  C_13
REMARK                            x       y       z     vdW  Elec       q    Type
REMARK                         _______ _______ _______ _____ _____    ______ ____
ROOT
ATOM      1  C   UNL     1       6.290   3.938  13.948  0.00  0.00    +0.000 C 
ATOM      2  N   UNL     1       5.156   4.389  14.721  0.00  0.00    +0.000 N 
ATOM      3  C   UNL     1       5.316   4.342  16.100  0.00  0.00    +0.000 A 
ATOM      4  N   UNL     1       6.512   4.488  16.640  0.00  0.00    +0.000 NA
ATOM      5  C   UNL     1       6.526   4.435  17.964  0.00  0.00    +0.000 A 
ATOM      6  N   UNL     1       5.470   4.263  18.746  0.00  0.00    +0.000 NA
ATOM      7  C   UNL     1       4.309   4.120  18.119  0.00  0.00    +0.000 A 
ATOM      8  N   UNL     1       3.179   3.870  18.854  0.00  0.00    +0.000 N 
ATOM      9  C   UNL     1       3.187   3.911  20.315  0.00  0.00    +0.000 C 
ATOM     10  C   UNL     1       2.310   2.759  20.837  0.00  0.00    +0.000 C 
ATOM     11  O   UNL     1       0.979   2.815  20.290  0.00  0.00    +0.000 OA
ATOM     12  C   UNL     1       1.021   2.737  18.853  0.00  0.00    +0.000 C 
ATOM     13  C   UNL     1       1.849   3.883  18.247  0.00  0.00    +0.000 C 
ATOM     14  N   UNL     1       4.203   4.153  16.793  0.00  0.00    +0.000 NA
ATOM     15  H   UNL     1       4.272   3.938  14.513  0.00  0.00    +0.000 HD
ENDROOT
BRANCH   5  16
ATOM     16  O   UNL     1       7.724   4.597  18.638  0.00  0.00    +0.000 OA
BRANCH  16  17
ATOM     17  C   UNL     1       7.745   5.758  19.477  0.00  0.00    +0.000 C 
BRANCH  17  18
ATOM     18  C   UNL     1       7.848   7.005  18.585  0.00  0.00    +0.000 C 
BRANCH  18  19
ATOM     19  N   UNL     1       8.763   8.029  19.071  0.00  0.00    +0.000 N 
ATOM     20  C   UNL     1       8.730   9.293  18.523  0.00  0.00    +0.000 C 
ATOM     21  O   UNL     1       7.945   9.581  17.630  0.00  0.00    +0.000 OA
ATOM     22  N   UNL     1       9.673  10.133  19.075  0.00  0.00    +0.000 N 
ATOM     23  H   UNL     1       9.174   7.919  19.987  0.00  0.00    +0.000 HD
ATOM     24  H   UNL     1      10.486   9.685  19.468  0.00  0.00    +0.000 HD
BRANCH  22  25
ATOM     25  C   UNL     1       9.773  11.519  18.801  0.00  0.00    +0.000 A 
ATOM     26  C   UNL     1      10.452  12.018  17.684  0.00  0.00    +0.000 A 
ATOM     27  C   UNL     1      10.554  13.393  17.462  0.00  0.00    +0.000 A 
ATOM     28  C   UNL     1       9.966  14.287  18.351  0.00  0.00    +0.000 A 
ATOM     29  C   UNL     1       9.261  13.803  19.452  0.00  0.00    +0.000 A 
ATOM     30  C   UNL     1       9.156  12.424  19.673  0.00  0.00    +0.000 A 
ENDBRANCH  22  25
ENDBRANCH  18  19
ENDBRANCH  17  18
ENDBRANCH  16  17
ENDBRANCH   5  16
TORSDOF 5
ENDMDL
MODEL 2
REMARK VINA RESULT:      -8.0      2.495      3.280
REMARK  Name = 
REMARK  6 active torsions:
REMARK  status: ('A' for Active; 'I' for Inactive)
REMARK    1  A    between atoms: C_1  and  N_2
REMARK    2  A    between atoms: C_5  and  O_6
REMARK    3  A    between atoms: O_6  and  C_7
REMARK    4  A    between atoms: C_7  and  C_8
REMARK    5  A    between atoms: C_8  and  N_9
REMARK    6  A    between atoms: N_12  and  C_13
REMARK                            x       y       z     vdW  Elec       q    Type
REMARK                         _______ _______ _______ _____ _____    ______ ____
ROOT
ATOM      1  C   UNL     1       1.890   9.785  17.743  0.00  0.00    +0.000 C 
ATOM      2  N   UNL     1       2.108   8.703  18.676  0.00  0.00    +0.000 N 
ATOM      3  C   UNL     1       2.803   7.611  18.171  0.00  0.00    +0.000 A 
ATOM      4  N   UNL     1       3.695   7.771  17.212  0.00  0.00    +0.000 NA
ATOM      5  C   UNL     1       4.296   6.653  16.829  0.00  0.00    +0.000 A 
ATOM      6  N   UNL     1       4.078   5.444  17.327  0.00  0.00    +0.000 NA
ATOM      7  C   UNL     1       3.161   5.375  18.284  0.00  0.00    +0.000 A 
ATOM      8  N   UNL     1       2.829   4.150  18.804  0.00  0.00    +0.000 N 
ATOM      9  C   UNL     1       3.563   2.938  18.447  0.00  0.00    +0.000 C 
ATOM     10  C   UNL     1       2.554   1.788  18.290  0.00  0.00    +0.000 C 
ATOM     11  O   UNL     1       1.752   1.620  19.475  0.00  0.00    +0.000 OA
ATOM     12  C   UNL     1       1.023   2.826  19.765  0.00  0.00    +0.000 C 
ATOM     13  C   UNL     1       1.967   4.022  19.978  0.00  0.00    +0.000 C 
ATOM     14  N   UNL     1       2.505   6.445  18.725  0.00  0.00    +0.000 NA
ATOM     15  H   UNL     1       1.278   8.338  19.131  0.00  0.00    +0.000 HD
ENDROOT
BRANCH   5  16
ATOM     16  O   UNL     1       5.265   6.706  15.843  0.00  0.00    +0.000 OA
BRANCH  16  17
ATOM     17  C   UNL     1       6.519   6.150  16.257  0.00  0.00    +0.000 C 
BRANCH  17  18
ATOM     18  C   UNL     1       6.957   6.845  17.556  0.00  0.00    +0.000 C 
BRANCH  18  19
ATOM     19  N   UNL     1       7.361   8.235  17.399  0.00  0.00    +0.000 N 
ATOM     20  C   UNL     1       8.320   8.769  18.232  0.00  0.00    +0.000 C 
ATOM     21  O   UNL     1       8.848   8.098  19.109  0.00  0.00    +0.000 OA
ATOM     22  N   UNL     1       8.570  10.098  17.969  0.00  0.00    +0.000 N 
ATOM     23  H   UNL     1       7.191   8.695  16.516  0.00  0.00    +0.000 HD
ATOM     24  H   UNL     1       7.815  10.611  17.539  0.00  0.00    +0.000 HD
BRANCH  22  25
ATOM     25  C   UNL     1       9.599  10.859  18.576  0.00  0.00    +0.000 A 
ATOM     26  C   UNL     1       9.649  11.091  19.955  0.00  0.00    +0.000 A 
ATOM     27  C   UNL     1      10.664  11.870  20.514  0.00  0.00    +0.000 A 
ATOM     28  C   UNL     1      11.650  12.417  19.700  0.00  0.00    +0.000 A 
ATOM     29  C   UNL     1      11.629  12.169  18.328  0.00  0.00    +0.000 A 
ATOM     30  C   UNL     1      10.612  11.385  17.768  0.00  0.00    +0.000 A 
ENDBRANCH  22  25
ENDBRANCH  18  19
ENDBRANCH  17  18
ENDBRANCH  16  17
ENDBRANCH   5  16
TORSDOF 5
ENDMDL
MODEL 3
REMARK VINA RESULT:      -7.9      1.353      1.729
REMARK  Name = 
REMARK  6 active torsions:
REMARK  status: ('A' for Active; 'I' for Inactive)
REMARK    1  A    between atoms: C_1  and  N_2
REMARK    2  A    between atoms: C_5  and  O_6
REMARK    3  A    between atoms: O_6  and  C_7
REMARK    4  A    between atoms: C_7  and  C_8
REMARK    5  A    between atoms: C_8  and  N_9
REMARK    6  A    between atoms: N_12  and  C_13
REMARK                            x       y       z     vdW  Elec       q    Type
REMARK                         _______ _______ _______ _____ _____    ______ ____
ROOT
ATOM      1  C   UNL     1       6.518   4.010  14.269  0.00  0.00    +0.000 C 
ATOM      2  N   UNL     1       5.212   4.303  14.814  0.00  0.00    +0.000 N 
ATOM      3  C   UNL     1       5.201   4.758  16.126  0.00  0.00    +0.000 A 
ATOM      4  N   UNL     1       6.223   5.442  16.606  0.00  0.00    +0.000 NA
ATOM      5  C   UNL     1       6.081   5.828  17.866  0.00  0.00    +0.000 A 
ATOM      6  N   UNL     1       5.029   5.593  18.638  0.00  0.00    +0.000 NA
ATOM      7  C   UNL     1       4.051   4.894  18.076  0.00  0.00    +0.000 A 
ATOM      8  N   UNL     1       2.957   4.550  18.829  0.00  0.00    +0.000 N 
ATOM      9  C   UNL     1       2.765   5.062  20.184  0.00  0.00    +0.000 C 
ATOM     10  C   UNL     1       2.202   3.926  21.055  0.00  0.00    +0.000 C 
ATOM     11  O   UNL     1       0.994   3.377  20.495  0.00  0.00    +0.000 OA
ATOM     12  C   UNL     1       1.241   2.857  19.177  0.00  0.00    +0.000 C 
ATOM     13  C   UNL     1       1.771   3.944  18.227  0.00  0.00    +0.000 C 
ATOM     14  N   UNL     1       4.111   4.461  16.819  0.00  0.00    +0.000 NA
ATOM     15  H   UNL     1       4.532   3.553  14.758  0.00  0.00    +0.000 HD
ENDROOT
BRANCH   5  16
ATOM     16  O   UNL     1       7.083   6.570  18.467  0.00  0.00    +0.000 OA
BRANCH  16  17
ATOM     17  C   UNL     1       7.866   7.319  17.530  0.00  0.00    +0.000 C 
BRANCH  17  18
ATOM     18  C   UNL     1       7.731   8.813  17.864  0.00  0.00    +0.000 C 
BRANCH  18  19
ATOM     19  N   UNL     1       8.768   9.339  18.742  0.00  0.00    +0.000 N 
ATOM     20  C   UNL     1       9.194  10.641  18.596  0.00  0.00    +0.000 C 
ATOM     21  O   UNL     1       8.719  11.376  17.742  0.00  0.00    +0.000 OA
ATOM     22  N   UNL     1      10.194  10.973  19.485  0.00  0.00    +0.000 N 
ATOM     23  H   UNL     1       8.936   8.880  19.626  0.00  0.00    +0.000 HD
ATOM     24  H   UNL     1      10.756  10.207  19.822  0.00  0.00    +0.000 HD
BRANCH  22  25
ATOM     25  C   UNL     1      10.721  12.277  19.651  0.00  0.00    +0.000 A 
ATOM     26  C   UNL     1      10.236  13.167  20.616  0.00  0.00    +0.000 A 
ATOM     27  C   UNL     1      10.762  14.455  20.732  0.00  0.00    +0.000 A 
ATOM     28  C   UNL     1      11.791  14.865  19.890  0.00  0.00    +0.000 A 
ATOM     29  C   UNL     1      12.304  13.978  18.945  0.00  0.00    +0.000 A 
ATOM     30  C   UNL     1      11.778  12.685  18.831  0.00  0.00    +0.000 A 
ENDBRANCH  22  25
ENDBRANCH  18  19
ENDBRANCH  17  18
ENDBRANCH  16  17
ENDBRANCH   5  16
TORSDOF 5
ENDMDL
MODEL 4
REMARK VINA RESULT:      -7.9      1.266      1.335
REMARK  Name = 
REMARK  6 active torsions:
REMARK  status: ('A' for Active; 'I' for Inactive)
REMARK    1  A    between atoms: C_1  and  N_2
REMARK    2  A    between atoms: C_5  and  O_6
REMARK    3  A    between atoms: O_6  and  C_7
REMARK    4  A    between atoms: C_7  and  C_8
REMARK    5  A    between atoms: C_8  and  N_9
REMARK    6  A    between atoms: N_12  and  C_13
REMARK                            x       y       z     vdW  Elec       q    Type
REMARK                         _______ _______ _______ _____ _____    ______ ____
ROOT
ATOM      1  C   UNL     1       6.566   4.270  14.573  0.00  0.00    +0.000 C 
ATOM      2  N   UNL     1       5.239   4.522  15.085  0.00  0.00    +0.000 N 
ATOM      3  C   UNL     1       5.165   4.797  16.444  0.00  0.00    +0.000 A 
ATOM      4  N   UNL     1       6.173   5.382  17.065  0.00  0.00    +0.000 NA
ATOM      5  C   UNL     1       5.971   5.599  18.356  0.00  0.00    +0.000 A 
ATOM      6  N   UNL     1       4.873   5.291  19.034  0.00  0.00    +0.000 NA
ATOM      7  C   UNL     1       3.914   4.701  18.333  0.00  0.00    +0.000 A 
ATOM      8  N   UNL     1       2.774   4.289  18.975  0.00  0.00    +0.000 N 
ATOM      9  C   UNL     1       2.519   4.618  20.376  0.00  0.00    +0.000 C 
ATOM     10  C   UNL     1       1.886   3.391  21.055  0.00  0.00    +0.000 C 
ATOM     11  O   UNL     1       0.700   2.956  20.365  0.00  0.00    +0.000 OA
ATOM     12  C   UNL     1       1.008   2.610  19.002  0.00  0.00    +0.000 C 
ATOM     13  C   UNL     1       1.610   3.801  18.237  0.00  0.00    +0.000 C 
ATOM     14  N   UNL     1       4.034   4.439  17.034  0.00  0.00    +0.000 NA
ATOM     15  H   UNL     1       4.548   3.805  14.893  0.00  0.00    +0.000 HD
ENDROOT
BRANCH   5  16
ATOM     16  O   UNL     1       6.953   6.226  19.102  0.00  0.00    +0.000 OA
BRANCH  16  17
ATOM     17  C   UNL     1       8.080   6.635  18.318  0.00  0.00    +0.000 C 
BRANCH  17  18
ATOM     18  C   UNL     1       8.069   8.167  18.207  0.00  0.00    +0.000 C 
BRANCH  18  19
ATOM     19  N   UNL     1       8.865   8.858  19.214  0.00  0.00    +0.000 N 
ATOM     20  C   UNL     1       9.183  10.187  19.042  0.00  0.00    +0.000 C 
ATOM     21  O   UNL     1       8.812  10.810  18.057  0.00  0.00    +0.000 OA
ATOM     22  N   UNL     1       9.959  10.682  20.068  0.00  0.00    +0.000 N 
ATOM     23  H   UNL     1       8.904   8.477  20.149  0.00  0.00    +0.000 HD
ATOM     24  H   UNL     1      10.517  10.005  20.564  0.00  0.00    +0.000 HD
BRANCH  22  25
ATOM     25  C   UNL     1      10.317  12.044  20.220  0.00  0.00    +0.000 A 
ATOM     26  C   UNL     1      11.406  12.615  19.551  0.00  0.00    +0.000 A 
ATOM     27  C   UNL     1      11.745  13.955  19.748  0.00  0.00    +0.000 A 
ATOM     28  C   UNL     1      10.992  14.745  20.610  0.00  0.00    +0.000 A 
ATOM     29  C   UNL     1       9.887  14.196  21.260  0.00  0.00    +0.000 A 
ATOM     30  C   UNL     1       9.544  12.853  21.060  0.00  0.00    +0.000 A 
ENDBRANCH  22  25
ENDBRANCH  18  19
ENDBRANCH  17  18
ENDBRANCH  16  17
ENDBRANCH   5  16
TORSDOF 5
ENDMDL
MODEL 5
REMARK VINA RESULT:      -7.8      0.951      1.052
REMARK  Name = 
REMARK  6 active torsions:
REMARK  status: ('A' for Active; 'I' for Inactive)
REMARK    1  A    between atoms: C_1  and  N_2
REMARK    2  A    between atoms: C_5  and  O_6
REMARK    3  A    between atoms: O_6  and  C_7
REMARK    4  A    between atoms: C_7  and  C_8
REMARK    5  A    between atoms: C_8  and  N_9
REMARK    6  A    between atoms: N_12  and  C_13
REMARK                            x       y       z     vdW  Elec       q    Type
REMARK                         _______ _______ _______ _____ _____    ______ ____
ROOT
ATOM      1  C   UNL     1       6.456   3.709  13.071  0.00  0.00    +0.000 C 
ATOM      2  N   UNL     1       5.306   4.073  13.867  0.00  0.00    +0.000 N 
ATOM      3  C   UNL     1       5.530   4.162  15.234  0.00  0.00    +0.000 A 
ATOM      4  N   UNL     1       6.717   4.505  15.698  0.00  0.00    +0.000 NA
ATOM      5  C   UNL     1       6.795   4.565  17.019  0.00  0.00    +0.000 A 
ATOM      6  N   UNL     1       5.805   4.324  17.867  0.00  0.00    +0.000 NA
ATOM      7  C   UNL     1       4.648   3.980  17.315  0.00  0.00    +0.000 A 
ATOM      8  N   UNL     1       3.593   3.648  18.127  0.00  0.00    +0.000 N 
ATOM      9  C   UNL     1       3.658   3.811  19.577  0.00  0.00    +0.000 C 
ATOM     10  C   UNL     1       2.966   2.603  20.232  0.00  0.00    +0.000 C 
ATOM     11  O   UNL     1       1.617   2.441  19.753  0.00  0.00    +0.000 OA
ATOM     12  C   UNL     1       1.608   2.250  18.327  0.00  0.00    +0.000 C 
ATOM     13  C   UNL     1       2.249   3.439  17.592  0.00  0.00    +0.000 C 
ATOM     14  N   UNL     1       4.482   3.889  15.998  0.00  0.00    +0.000 NA
ATOM     15  H   UNL     1       4.482   3.496  13.741  0.00  0.00    +0.000 HD
ENDROOT
BRANCH   5  16
ATOM     16  O   UNL     1       7.988   4.935  17.614  0.00  0.00    +0.000 OA
BRANCH  16  17
ATOM     17  C   UNL     1       7.811   5.823  18.725  0.00  0.00    +0.000 C 
BRANCH  17  18
ATOM     18  C   UNL     1       7.904   7.269  18.215  0.00  0.00    +0.000 C 
BRANCH  18  19
ATOM     19  N   UNL     1       8.736   8.150  19.025  0.00  0.00    +0.000 N 
ATOM     20  C   UNL     1       8.793   9.495  18.736  0.00  0.00    +0.000 C 
ATOM     21  O   UNL     1       8.156   9.977  17.808  0.00  0.00    +0.000 OA
ATOM     22  N   UNL     1       9.641  10.182  19.578  0.00  0.00    +0.000 N 
ATOM     23  H   UNL     1       9.000   7.852  19.953  0.00  0.00    +0.000 HD
ATOM     24  H   UNL     1      10.383   9.640  19.993  0.00  0.00    +0.000 HD
BRANCH  22  25
ATOM     25  C   UNL     1       9.788  11.591  19.598  0.00  0.00    +0.000 A 
ATOM     26  C   UNL     1       9.116  12.430  18.702  0.00  0.00    +0.000 A 
ATOM     27  C   UNL     1       9.307  13.813  18.735  0.00  0.00    +0.000 A 
ATOM     28  C   UNL     1      10.166  14.375  19.674  0.00  0.00    +0.000 A 
ATOM     29  C   UNL     1      10.818  13.553  20.592  0.00  0.00    +0.000 A 
ATOM     30  C   UNL     1      10.624  12.166  20.561  0.00  0.00    +0.000 A 
ENDBRANCH  22  25
ENDBRANCH  18  19
ENDBRANCH  17  18
ENDBRANCH  16  17
ENDBRANCH   5  16
TORSDOF 5
ENDMDL
MODEL 6
REMARK VINA RESULT:      -7.8      2.458      3.111
REMARK  Name = 
REMARK  6 active torsions:
REMARK  status: ('A' for Active; 'I' for Inactive)
REMARK    1  A    between atoms: C_1  and  N_2
REMARK    2  A    between atoms: C_5  and  O_6
REMARK    3  A    between atoms: O_6  and  C_7
REMARK    4  A    between atoms: C_7  and  C_8
REMARK    5  A    between atoms: C_8  and  N_9
REMARK    6  A    between atoms: N_12  and  C_13
REMARK                            x       y       z     vdW  Elec       q    Type
REMARK                         _______ _______ _______ _____ _____    ______ ____
ROOT
ATOM      1  C   UNL     1       1.771   9.743  17.823  0.00  0.00    +0.000 C 
ATOM      2  N   UNL     1       1.791   8.627  18.742  0.00  0.00    +0.000 N 
ATOM      3  C   UNL     1       2.674   7.605  18.421  0.00  0.00    +0.000 A 
ATOM      4  N   UNL     1       3.788   7.865  17.762  0.00  0.00    +0.000 NA
ATOM      5  C   UNL     1       4.549   6.805  17.529  0.00  0.00    +0.000 A 
ATOM      6  N   UNL     1       4.283   5.561  17.903  0.00  0.00    +0.000 NA
ATOM      7  C   UNL     1       3.140   5.389  18.555  0.00  0.00    +0.000 A 
ATOM      8  N   UNL     1       2.760   4.122  18.916  0.00  0.00    +0.000 N 
ATOM      9  C   UNL     1       3.648   2.974  18.743  0.00  0.00    +0.000 C 
ATOM     10  C   UNL     1       2.806   1.779  18.264  0.00  0.00    +0.000 C 
ATOM     11  O   UNL     1       1.716   1.503  19.164  0.00  0.00    +0.000 OA
ATOM     12  C   UNL     1       0.852   2.650  19.275  0.00  0.00    +0.000 C 
ATOM     13  C   UNL     1       1.612   3.884  19.789  0.00  0.00    +0.000 C 
ATOM     14  N   UNL     1       2.313   6.396  18.826  0.00  0.00    +0.000 NA
ATOM     15  H   UNL     1       0.894   8.192  18.928  0.00  0.00    +0.000 HD
ENDROOT
BRANCH   5  16
ATOM     16  O   UNL     1       5.752   6.963  16.864  0.00  0.00    +0.000 OA
BRANCH  16  17
ATOM     17  C   UNL     1       6.892   6.766  17.709  0.00  0.00    +0.000 C 
BRANCH  17  18
ATOM     18  C   UNL     1       7.898   7.897  17.447  0.00  0.00    +0.000 C 
BRANCH  18  19
ATOM     19  N   UNL     1       8.571   8.402  18.636  0.00  0.00    +0.000 N 
ATOM     20  C   UNL     1       8.831   9.750  18.755  0.00  0.00    +0.000 C 
ATOM     21  O   UNL     1       8.507  10.543  17.880  0.00  0.00    +0.000 OA
ATOM     22  N   UNL     1       9.494  10.060  19.923  0.00  0.00    +0.000 N 
ATOM     23  H   UNL     1       8.555   7.846  19.478  0.00  0.00    +0.000 HD
ATOM     24  H   UNL     1      10.046   9.319  20.326  0.00  0.00    +0.000 HD
BRANCH  22  25
ATOM     25  C   UNL     1       9.765  11.377  20.368  0.00  0.00    +0.000 A 
ATOM     26  C   UNL     1      10.778  12.166  19.811  0.00  0.00    +0.000 A 
ATOM     27  C   UNL     1      11.034  13.450  20.296  0.00  0.00    +0.000 A 
ATOM     28  C   UNL     1      10.271  13.966  21.339  0.00  0.00    +0.000 A 
ATOM     29  C   UNL     1       9.240  13.202  21.883  0.00  0.00    +0.000 A 
ATOM     30  C   UNL     1       8.981  11.915  21.394  0.00  0.00    +0.000 A 
ENDBRANCH  22  25
ENDBRANCH  18  19
ENDBRANCH  17  18
ENDBRANCH  16  17
ENDBRANCH   5  16
TORSDOF 5
ENDMDL
MODEL 7
REMARK VINA RESULT:      -7.5      1.416      1.853
REMARK  Name = 
REMARK  6 active torsions:
REMARK  status: ('A' for Active; 'I' for Inactive)
REMARK    1  A    between atoms: C_1  and  N_2
REMARK    2  A    between atoms: C_5  and  O_6
REMARK    3  A    between atoms: O_6  and  C_7
REMARK    4  A    between atoms: C_7  and  C_8
REMARK    5  A    between atoms: C_8  and  N_9
REMARK    6  A    between atoms: N_12  and  C_13
REMARK                            x       y       z     vdW  Elec       q    Type
REMARK                         _______ _______ _______ _____ _____    ______ ____
ROOT
ATOM      1  C   UNL     1       6.513   4.003  13.784  0.00  0.00    +0.000 C 
ATOM      2  N   UNL     1       5.221   4.129  14.421  0.00  0.00    +0.000 N 
ATOM      3  C   UNL     1       5.248   4.519  15.753  0.00  0.00    +0.000 A 
ATOM      4  N   UNL     1       6.221   5.287  16.206  0.00  0.00    +0.000 NA
ATOM      5  C   UNL     1       6.122   5.598  17.491  0.00  0.00    +0.000 A 
ATOM      6  N   UNL     1       5.153   5.216  18.311  0.00  0.00    +0.000 NA
ATOM      7  C   UNL     1       4.219   4.442  17.773  0.00  0.00    +0.000 A 
ATOM      8  N   UNL     1       3.219   3.948  18.571  0.00  0.00    +0.000 N 
ATOM      9  C   UNL     1       3.063   4.373  19.960  0.00  0.00    +0.000 C 
ATOM     10  C   UNL     1       2.680   3.145  20.803  0.00  0.00    +0.000 C 
ATOM     11  O   UNL     1       1.503   2.494  20.289  0.00  0.00    +0.000 OA
ATOM     12  C   UNL     1       1.717   2.064  18.932  0.00  0.00    +0.000 C 
ATOM     13  C   UNL     1       2.066   3.245  18.011  0.00  0.00    +0.000 C 
ATOM     14  N   UNL     1       4.243   4.075  16.494  0.00  0.00    +0.000 NA
ATOM     15  H   UNL     1       4.621   3.312  14.366  0.00  0.00    +0.000 HD
ENDROOT
BRANCH   5  16
ATOM     16  O   UNL     1       7.078   6.416  18.068  0.00  0.00    +0.000 OA
BRANCH  16  17
ATOM     17  C   UNL     1       6.877   7.805  17.780  0.00  0.00    +0.000 C 
BRANCH  17  18
ATOM     18  C   UNL     1       8.250   8.484  17.663  0.00  0.00    +0.000 C 
BRANCH  18  19
ATOM     19  N   UNL     1       8.775   9.019  18.912  0.00  0.00    +0.000 N 
ATOM     20  C   UNL     1       9.059  10.363  19.016  0.00  0.00    +0.000 C 
ATOM     21  O   UNL     1       8.879  11.128  18.078  0.00  0.00    +0.000 OA
ATOM     22  N   UNL     1       9.569  10.703  20.251  0.00  0.00    +0.000 N 
ATOM     23  H   UNL     1       8.629   8.498  19.765  0.00  0.00    +0.000 HD
ATOM     24  H   UNL     1      10.039   9.964  20.751  0.00  0.00    +0.000 HD
BRANCH  22  25
ATOM     25  C   UNL     1       9.820  12.029  20.681  0.00  0.00    +0.000 A 
ATOM     26  C   UNL     1       9.110  12.627  21.727  0.00  0.00    +0.000 A 
ATOM     27  C   UNL     1       9.366  13.947  22.104  0.00  0.00    +0.000 A 
ATOM     28  C   UNL     1      10.348  14.681  21.446  0.00  0.00    +0.000 A 
ATOM     29  C   UNL     1      11.083  14.087  20.422  0.00  0.00    +0.000 A 
ATOM     30  C   UNL     1      10.828  12.762  20.045  0.00  0.00    +0.000 A 
ENDBRANCH  22  25
ENDBRANCH  18  19
ENDBRANCH  17  18
ENDBRANCH  16  17
ENDBRANCH   5  16
TORSDOF 5
ENDMDL
MODEL 8
REMARK VINA RESULT:      -7.4      1.936      2.500
REMARK  Name = 
REMARK  6 active torsions:
REMARK  status: ('A' for Active; 'I' for Inactive)
REMARK    1  A    between atoms: C_1  and  N_2
REMARK    2  A    between atoms: C_5  and  O_6
REMARK    3  A    between atoms: O_6  and  C_7
REMARK    4  A    between atoms: C_7  and  C_8
REMARK    5  A    between atoms: C_8  and  N_9
REMARK    6  A    between atoms: N_12  and  C_13
REMARK                            x       y       z     vdW  Elec       q    Type
REMARK                         _______ _______ _______ _____ _____    ______ ____
ROOT
ATOM      1  C   UNL     1       7.900   5.218  13.542  0.00  0.00    +0.000 C 
ATOM      2  N   UNL     1       6.589   5.015  14.115  0.00  0.00    +0.000 N 
ATOM      3  C   UNL     1       6.503   5.198  15.489  0.00  0.00    +0.000 A 
ATOM      4  N   UNL     1       7.304   6.049  16.103  0.00  0.00    +0.000 NA
ATOM      5  C   UNL     1       7.112   6.139  17.411  0.00  0.00    +0.000 A 
ATOM      6  N   UNL     1       6.204   5.472  18.110  0.00  0.00    +0.000 NA
ATOM      7  C   UNL     1       5.446   4.634  17.415  0.00  0.00    +0.000 A 
ATOM      8  N   UNL     1       4.530   3.856  18.075  0.00  0.00    +0.000 N 
ATOM      9  C   UNL     1       4.256   4.033  19.500  0.00  0.00    +0.000 C 
ATOM     10  C   UNL     1       4.080   2.642  20.135  0.00  0.00    +0.000 C 
ATOM     11  O   UNL     1       3.058   1.879  19.466  0.00  0.00    +0.000 OA
ATOM     12  C   UNL     1       3.389   1.703  18.077  0.00  0.00    +0.000 C 
ATOM     13  C   UNL     1       3.543   3.053  17.355  0.00  0.00    +0.000 C 
ATOM     14  N   UNL     1       5.575   4.476  16.100  0.00  0.00    +0.000 NA
ATOM     15  H   UNL     1       6.151   4.123  13.910  0.00  0.00    +0.000 HD
ENDROOT
BRANCH   5  16
ATOM     16  O   UNL     1       7.882   7.017  18.153  0.00  0.00    +0.000 OA
BRANCH  16  17
ATOM     17  C   UNL     1       7.849   8.358  17.650  0.00  0.00    +0.000 C 
BRANCH  17  18
ATOM     18  C   UNL     1       8.726   9.240  18.551  0.00  0.00    +0.000 C 
BRANCH  18  19
ATOM     19  N   UNL     1       9.098  10.524  17.972  0.00  0.00    +0.000 N 
ATOM     20  C   UNL     1       9.756  11.459  18.742  0.00  0.00    +0.000 C 
ATOM     21  O   UNL     1      10.040  11.236  19.911  0.00  0.00    +0.000 OA
ATOM     22  N   UNL     1      10.012  12.625  18.055  0.00  0.00    +0.000 N 
ATOM     23  H   UNL     1       9.167  10.604  16.967  0.00  0.00    +0.000 HD
ATOM     24  H   UNL     1       9.390  12.831  17.288  0.00  0.00    +0.000 HD
BRANCH  22  25
ATOM     25  C   UNL     1      10.791  13.698  18.553  0.00  0.00    +0.000 A 
ATOM     26  C   UNL     1      10.840  14.023  19.913  0.00  0.00    +0.000 A 
ATOM     27  C   UNL     1      11.598  15.106  20.364  0.00  0.00    +0.000 A 
ATOM     28  C   UNL     1      12.327  15.871  19.459  0.00  0.00    +0.000 A 
ATOM     29  C   UNL     1      12.311  15.539  18.105  0.00  0.00    +0.000 A 
ATOM     30  C   UNL     1      11.553  14.451  17.653  0.00  0.00    +0.000 A 
ENDBRANCH  22  25
ENDBRANCH  18  19
ENDBRANCH  17  18
ENDBRANCH  16  17
ENDBRANCH   5  16
TORSDOF 5
ENDMDL
MODEL 9
REMARK VINA RESULT:      -7.4      6.220      8.338
REMARK  Name = 
REMARK  6 active torsions:
REMARK  status: ('A' for Active; 'I' for Inactive)
REMARK    1  A    between atoms: C_1  and  N_2
REMARK    2  A    between atoms: C_5  and  O_6
REMARK    3  A    between atoms: O_6  and  C_7
REMARK    4  A    between atoms: C_7  and  C_8
REMARK    5  A    between atoms: C_8  and  N_9
REMARK    6  A    between atoms: N_12  and  C_13
REMARK                            x       y       z     vdW  Elec       q    Type
REMARK                         _______ _______ _______ _____ _____    ______ ____
ROOT
ATOM      1  C   UNL     1       0.704   1.952  18.618  0.00  0.00    +0.000 C 
ATOM      2  N   UNL     1       2.142   2.053  18.523  0.00  0.00    +0.000 N 
ATOM      3  C   UNL     1       2.680   3.281  18.883  0.00  0.00    +0.000 A 
ATOM      4  N   UNL     1       2.080   4.036  19.785  0.00  0.00    +0.000 NA
ATOM      5  C   UNL     1       2.701   5.177  20.048  0.00  0.00    +0.000 A 
ATOM      6  N   UNL     1       3.836   5.588  19.498  0.00  0.00    +0.000 NA
ATOM      7  C   UNL     1       4.366   4.770  18.598  0.00  0.00    +0.000 A 
ATOM      8  N   UNL     1       5.504   5.154  17.934  0.00  0.00    +0.000 N 
ATOM      9  C   UNL     1       6.234   6.366  18.299  0.00  0.00    +0.000 C 
ATOM     10  C   UNL     1       6.711   7.051  17.007  0.00  0.00    +0.000 C 
ATOM     11  O   UNL     1       7.492   6.160  16.190  0.00  0.00    +0.000 OA
ATOM     12  C   UNL     1       6.719   5.000  15.829  0.00  0.00    +0.000 C 
ATOM     13  C   UNL     1       6.237   4.231  17.070  0.00  0.00    +0.000 C 
ATOM     14  N   UNL     1       3.807   3.608  18.269  0.00  0.00    +0.000 NA
ATOM     15  H   UNL     1       2.543   1.810  17.623  0.00  0.00    +0.000 HD
ENDROOT
BRANCH   5  16
ATOM     16  O   UNL     1       2.172   6.037  20.993  0.00  0.00    +0.000 OA
BRANCH  16  17
ATOM     17  C   UNL     1       1.630   7.234  20.424  0.00  0.00    +0.000 C 
BRANCH  17  18
ATOM     18  C   UNL     1       1.437   8.266  21.546  0.00  0.00    +0.000 C 
BRANCH  18  19
ATOM     19  N   UNL     1       0.529   9.358  21.221  0.00  0.00    +0.000 N 
ATOM     20  C   UNL     1       0.013  10.142  22.229  0.00  0.00    +0.000 C 
ATOM     21  O   UNL     1       0.300   9.945  23.402  0.00  0.00    +0.000 OA
ATOM     22  N   UNL     1      -0.846  11.112  21.759  0.00  0.00    +0.000 N 
ATOM     23  H   UNL     1       0.534   9.733  20.283  0.00  0.00    +0.000 HD
ATOM     24  H   UNL     1      -1.302  10.909  20.882  0.00  0.00    +0.000 HD
BRANCH  22  25
ATOM     25  C   UNL     1      -1.412  12.139  22.552  0.00  0.00    +0.000 A 
ATOM     26  C   UNL     1      -2.660  12.010  23.172  0.00  0.00    +0.000 A 
ATOM     27  C   UNL     1      -3.198  13.056  23.924  0.00  0.00    +0.000 A 
ATOM     28  C   UNL     1      -2.488  14.242  24.076  0.00  0.00    +0.000 A 
ATOM     29  C   UNL     1      -1.230  14.373  23.489  0.00  0.00    +0.000 A 
ATOM     30  C   UNL     1      -0.689  13.322  22.737  0.00  0.00    +0.000 A 
ENDBRANCH  22  25
ENDBRANCH  18  19
ENDBRANCH  17  18
ENDBRANCH  16  17
ENDBRANCH   5  16
TORSDOF 5
ENDMDL
