MODEL 1
REMARK VINA RESULT:      -8.8      0.000      0.000
REMARK  Name = 
REMARK  7 active torsions:
REMARK  status: ('A' for Active; 'I' for Inactive)
REMARK    1  A    between atoms: S_2  and  C_4
REMARK    2  A    between atoms: S_2  and  N_11
REMARK    3  A    between atoms: C_13  and  N_14
REMARK    4  A    between atoms: C_20  and  C_21
REMARK    5  A    between atoms: C_21  and  O_22
REMARK    6  A    between atoms: O_22  and  C_23
REMARK    7  A    between atoms: C_23  and  C_24
REMARK                            x       y       z     vdW  Elec       q    Type
REMARK                         _______ _______ _______ _____ _____    ______ ____
ROOT
ATOM      1  N   UNL     1       3.434   4.545  19.622  0.00  0.00    +0.000 NA
ATOM      2  C   UNL     1       2.671   4.076  20.800  0.00  0.00    +0.000 C 
ATOM      3  C   UNL     1       1.286   3.684  20.297  0.00  0.00    +0.000 C 
ATOM      4  F   UNL     1       0.785   2.616  20.950  0.00  0.00    +0.000 F 
ATOM      5  F   UNL     1       0.408   4.703  20.446  0.00  0.00    +0.000 F 
ATOM      6  C   UNL     1       1.482   3.380  18.835  0.00  0.00    +0.000 C 
ATOM      7  C   UNL     1       2.570   4.364  18.422  0.00  0.00    +0.000 C 
ENDROOT
BRANCH   1  10
ATOM      8  N   UNL     1       5.785   4.944  17.715  0.00  0.00    +0.000 NA
ATOM      9  C   UNL     1       5.049   3.646  17.892  0.00  0.00    +0.000 C 
ATOM     10  C   UNL     1       4.788   3.986  19.385  0.00  0.00    +0.000 C 
ATOM     11  C   UNL     1       5.912   5.031  19.217  0.00  0.00    +0.000 C 
BRANCH   8  13
ATOM     12  O   UNL     1       8.176   4.330  17.130  0.00  0.00    +0.000 OA
ATOM     13  S   UNL     1       7.119   5.231  16.714  0.00  0.00    +0.000 S 
ATOM     14  O   UNL     1       7.334   6.662  16.677  0.00  0.00    +0.000 OA
BRANCH  13  15
ATOM     15  C   UNL     1       6.578   4.721  15.096  0.00  0.00    +0.000 A 
ATOM     16  C   UNL     1       7.471   4.733  14.016  0.00  0.00    +0.000 A 
ATOM     17  C   UNL     1       7.068   4.213  12.783  0.00  0.00    +0.000 A 
ATOM     18  C   UNL     1       5.790   3.676  12.645  0.00  0.00    +0.000 A 
ATOM     19  F   UNL     1       5.410   3.166  11.466  0.00  0.00    +0.000 F 
ATOM     20  C   UNL     1       4.906   3.643  13.719  0.00  0.00    +0.000 A 
ATOM     21  C   UNL     1       5.301   4.163  14.953  0.00  0.00    +0.000 A 
ENDBRANCH  13  15
ENDBRANCH   8  13
ENDBRANCH   1  10
BRANCH   7  22
ATOM     22  C   UNL     1       1.981   5.718  17.964  0.00  0.00    +0.000 C 
BRANCH  22  23
ATOM     23  O   UNL     1       2.760   6.775  18.524  0.00  0.00    +0.000 OA
BRANCH  23  24
ATOM     24  C   UNL     1       2.499   8.024  17.890  0.00  0.00    +0.000 C 
BRANCH  24  25
ATOM     25  C   UNL     1       1.574   8.816  18.776  0.00  0.00    +0.000 A 
ATOM     26  C   UNL     1       1.485   8.538  20.146  0.00  0.00    +0.000 A 
ATOM     27  C   UNL     1       0.610   9.261  20.960  0.00  0.00    +0.000 A 
ATOM     28  C   UNL     1      -0.179  10.270  20.413  0.00  0.00    +0.000 A 
ATOM     29  C   UNL     1      -0.094  10.563  19.053  0.00  0.00    +0.000 A 
ATOM     30  C   UNL     1       0.779   9.840  18.238  0.00  0.00    +0.000 A 
ENDBRANCH  24  25
ENDBRANCH  23  24
ENDBRANCH  22  23
ENDBRANCH   7  22
TORSDOF 7
ENDMDL
MODEL 2
REMARK VINA RESULT:      -8.4      1.504      2.226
REMARK  Name = 
REMARK  7 active torsions:
REMARK  status: ('A' for Active; 'I' for Inactive)
REMARK    1  A    between atoms: S_2  and  C_4
REMARK    2  A    between atoms: S_2  and  N_11
REMARK    3  A    between atoms: C_13  and  N_14
REMARK    4  A    between atoms: C_20  and  C_21
REMARK    5  A    between atoms: C_21  and  O_22
REMARK    6  A    between atoms: O_22  and  C_23
REMARK    7  A    between atoms: C_23  and  C_24
REMARK                            x       y       z     vdW  Elec       q    Type
REMARK                         _______ _______ _______ _____ _____    ______ ____
ROOT
ATOM      1  N   UNL     1       3.815   4.018  19.448  0.00  0.00    +0.000 NA
ATOM      2  C   UNL     1       3.749   2.717  18.747  0.00  0.00    +0.000 C 
ATOM      3  C   UNL     1       2.384   2.653  18.070  0.00  0.00    +0.000 C 
ATOM      4  F   UNL     1       2.430   2.023  16.879  0.00  0.00    +0.000 F 
ATOM      5  F   UNL     1       1.487   1.998  18.844  0.00  0.00    +0.000 F 
ATOM      6  C   UNL     1       1.971   4.092  17.905  0.00  0.00    +0.000 C 
ATOM      7  C   UNL     1       2.563   4.763  19.138  0.00  0.00    +0.000 C 
ENDROOT
BRANCH   1  10
ATOM      8  N   UNL     1       5.336   5.311  17.137  0.00  0.00    +0.000 NA
ATOM      9  C   UNL     1       5.944   4.347  18.118  0.00  0.00    +0.000 C 
ATOM     10  C   UNL     1       5.006   4.878  19.237  0.00  0.00    +0.000 C 
ATOM     11  C   UNL     1       4.785   6.090  18.307  0.00  0.00    +0.000 C 
BRANCH   8  13
ATOM     12  O   UNL     1       7.496   6.319  16.269  0.00  0.00    +0.000 OA
ATOM     13  S   UNL     1       6.122   6.098  15.862  0.00  0.00    +0.000 S 
ATOM     14  O   UNL     1       5.282   7.203  15.451  0.00  0.00    +0.000 OA
BRANCH  13  15
ATOM     15  C   UNL     1       6.132   4.904  14.542  0.00  0.00    +0.000 A 
ATOM     16  C   UNL     1       4.993   4.130  14.279  0.00  0.00    +0.000 A 
ATOM     17  C   UNL     1       4.974   3.289  13.163  0.00  0.00    +0.000 A 
ATOM     18  C   UNL     1       6.078   3.239  12.317  0.00  0.00    +0.000 A 
ATOM     19  F   UNL     1       6.053   2.442  11.241  0.00  0.00    +0.000 F 
ATOM     20  C   UNL     1       7.204   4.020  12.561  0.00  0.00    +0.000 A 
ATOM     21  C   UNL     1       7.232   4.861  13.676  0.00  0.00    +0.000 A 
ENDBRANCH  13  15
ENDBRANCH   8  13
ENDBRANCH   1  10
BRANCH   7  22
ATOM     22  C   UNL     1       1.591   4.721  20.340  0.00  0.00    +0.000 C 
BRANCH  22  23
ATOM     23  O   UNL     1       1.576   6.003  20.968  0.00  0.00    +0.000 OA
BRANCH  23  24
ATOM     24  C   UNL     1       2.031   7.032  20.093  0.00  0.00    +0.000 C 
BRANCH  24  25
ATOM     25  C   UNL     1       1.361   8.319  20.495  0.00  0.00    +0.000 A 
ATOM     26  C   UNL     1       1.015   9.276  19.532  0.00  0.00    +0.000 A 
ATOM     27  C   UNL     1       0.413  10.477  19.912  0.00  0.00    +0.000 A 
ATOM     28  C   UNL     1       0.149  10.732  21.256  0.00  0.00    +0.000 A 
ATOM     29  C   UNL     1       0.481   9.785  22.223  0.00  0.00    +0.000 A 
ATOM     30  C   UNL     1       1.084   8.584  21.845  0.00  0.00    +0.000 A 
ENDBRANCH  24  25
ENDBRANCH  23  24
ENDBRANCH  22  23
ENDBRANCH   7  22
TORSDOF 7
ENDMDL
MODEL 3
REMARK VINA RESULT:      -8.2      1.405      1.971
REMARK  Name = 
REMARK  7 active torsions:
REMARK  status: ('A' for Active; 'I' for Inactive)
REMARK    1  A    between atoms: S_2  and  C_4
REMARK    2  A    between atoms: S_2  and  N_11
REMARK    3  A    between atoms: C_13  and  N_14
REMARK    4  A    between atoms: C_20  and  C_21
REMARK    5  A    between atoms: C_21  and  O_22
REMARK    6  A    between atoms: O_22  and  C_23
REMARK    7  A    between atoms: C_23  and  C_24
REMARK                            x       y       z     vdW  Elec       q    Type
REMARK                         _______ _______ _______ _____ _____    ______ ____
ROOT
ATOM      1  N   UNL     1       3.452   4.426  19.540  0.00  0.00    +0.000 NA
ATOM      2  C   UNL     1       3.357   3.152  18.795  0.00  0.00    +0.000 C 
ATOM      3  C   UNL     1       2.142   3.267  17.881  0.00  0.00    +0.000 C 
ATOM      4  F   UNL     1       2.328   2.650  16.697  0.00  0.00    +0.000 F 
ATOM      5  F   UNL     1       1.046   2.721  18.459  0.00  0.00    +0.000 F 
ATOM      6  C   UNL     1       1.944   4.749  17.693  0.00  0.00    +0.000 C 
ATOM      7  C   UNL     1       2.377   5.326  19.035  0.00  0.00    +0.000 C 
ENDROOT
BRANCH   1  10
ATOM      8  N   UNL     1       5.827   4.961  17.697  0.00  0.00    +0.000 NA
ATOM      9  C   UNL     1       5.926   4.269  19.027  0.00  0.00    +0.000 C 
ATOM     10  C   UNL     1       4.757   5.133  19.575  0.00  0.00    +0.000 C 
ATOM     11  C   UNL     1       5.037   6.057  18.372  0.00  0.00    +0.000 C 
BRANCH   8  13
ATOM     12  O   UNL     1       8.229   4.504  17.020  0.00  0.00    +0.000 OA
ATOM     13  S   UNL     1       7.099   5.331  16.643  0.00  0.00    +0.000 S 
ATOM     14  O   UNL     1       7.217   6.773  16.595  0.00  0.00    +0.000 OA
BRANCH  13  15
ATOM     15  C   UNL     1       6.530   4.779  15.050  0.00  0.00    +0.000 A 
ATOM     16  C   UNL     1       7.398   4.782  13.949  0.00  0.00    +0.000 A 
ATOM     17  C   UNL     1       6.975   4.229  12.737  0.00  0.00    +0.000 A 
ATOM     18  C   UNL     1       5.704   3.671  12.638  0.00  0.00    +0.000 A 
ATOM     19  F   UNL     1       5.305   3.130  11.480  0.00  0.00    +0.000 F 
ATOM     20  C   UNL     1       4.844   3.647  13.733  0.00  0.00    +0.000 A 
ATOM     21  C   UNL     1       5.259   4.199  14.947  0.00  0.00    +0.000 A 
ENDBRANCH  13  15
ENDBRANCH   8  13
ENDBRANCH   1  10
BRANCH   7  22
ATOM     22  C   UNL     1       1.205   5.393  20.040  0.00  0.00    +0.000 C 
BRANCH  22  23
ATOM     23  O   UNL     1       1.414   6.495  20.924  0.00  0.00    +0.000 OA
BRANCH  23  24
ATOM     24  C   UNL     1       1.716   7.696  20.218  0.00  0.00    +0.000 C 
BRANCH  24  25
ATOM     25  C   UNL     1       0.924   8.816  20.839  0.00  0.00    +0.000 A 
ATOM     26  C   UNL     1       0.361   9.820  20.042  0.00  0.00    +0.000 A 
ATOM     27  C   UNL     1      -0.354  10.869  20.624  0.00  0.00    +0.000 A 
ATOM     28  C   UNL     1      -0.517  10.921  22.007  0.00  0.00    +0.000 A 
ATOM     29  C   UNL     1       0.031   9.922  22.811  0.00  0.00    +0.000 A 
ATOM     30  C   UNL     1       0.748   8.875  22.230  0.00  0.00    +0.000 A 
ENDBRANCH  24  25
ENDBRANCH  23  24
ENDBRANCH  22  23
ENDBRANCH   7  22
TORSDOF 7
ENDMDL
MODEL 4
REMARK VINA RESULT:      -8.1      3.506      7.628
REMARK  Name = 
REMARK  7 active torsions:
REMARK  status: ('A' for Active; 'I' for Inactive)
REMARK    1  A    between atoms: S_2  and  C_4
REMARK    2  A    between atoms: S_2  and  N_11
REMARK    3  A    between atoms: C_13  and  N_14
REMARK    4  A    between atoms: C_20  and  C_21
REMARK    5  A    between atoms: C_21  and  O_22
REMARK    6  A    between atoms: O_22  and  C_23
REMARK    7  A    between atoms: C_23  and  C_24
REMARK                            x       y       z     vdW  Elec       q    Type
REMARK                         _______ _______ _______ _____ _____    ______ ____
ROOT
ATOM      1  N   UNL     1       1.857   6.109  19.592  0.00  0.00    +0.000 NA
ATOM      2  C   UNL     1       0.996   5.338  20.515  0.00  0.00    +0.000 C 
ATOM      3  C   UNL     1       1.618   3.951  20.640  0.00  0.00    +0.000 C 
ATOM      4  F   UNL     1       1.489   3.439  21.880  0.00  0.00    +0.000 F 
ATOM      5  F   UNL     1       1.045   3.081  19.776  0.00  0.00    +0.000 F 
ATOM      6  C   UNL     1       3.069   4.150  20.286  0.00  0.00    +0.000 C 
ATOM      7  C   UNL     1       3.018   5.248  19.231  0.00  0.00    +0.000 C 
ENDROOT
BRANCH   1  10
ATOM      8  N   UNL     1       0.750   8.948  19.791  0.00  0.00    +0.000 NA
ATOM      9  C   UNL     1       1.951   8.563  18.975  0.00  0.00    +0.000 C 
ATOM     10  C   UNL     1       2.312   7.460  20.008  0.00  0.00    +0.000 C 
ATOM     11  C   UNL     1       1.358   8.211  20.960  0.00  0.00    +0.000 C 
BRANCH   8  13
ATOM     12  O   UNL     1       1.157  11.449  19.677  0.00  0.00    +0.000 OA
ATOM     13  S   UNL     1       0.104  10.500  19.985  0.00  0.00    +0.000 S 
ATOM     14  O   UNL     1      -0.574  10.531  21.263  0.00  0.00    +0.000 OA
BRANCH  13  15
ATOM     15  C   UNL     1      -1.132  10.629  18.711  0.00  0.00    +0.000 A 
ATOM     16  C   UNL     1      -1.127   9.739  17.628  0.00  0.00    +0.000 A 
ATOM     17  C   UNL     1      -2.175   9.773  16.703  0.00  0.00    +0.000 A 
ATOM     18  C   UNL     1      -3.218  10.679  16.875  0.00  0.00    +0.000 A 
ATOM     19  F   UNL     1      -4.228  10.701  15.995  0.00  0.00    +0.000 F 
ATOM     20  C   UNL     1      -3.239  11.551  17.959  0.00  0.00    +0.000 A 
ATOM     21  C   UNL     1      -2.195  11.525  18.886  0.00  0.00    +0.000 A 
ENDBRANCH  13  15
ENDBRANCH   8  13
ENDBRANCH   1  10
BRANCH   7  22
ATOM     22  C   UNL     1       2.849   4.672  17.807  0.00  0.00    +0.000 C 
BRANCH  22  23
ATOM     23  O   UNL     1       4.138   4.380  17.268  0.00  0.00    +0.000 OA
BRANCH  23  24
ATOM     24  C   UNL     1       4.680   5.484  16.548  0.00  0.00    +0.000 C 
BRANCH  24  25
ATOM     25  C   UNL     1       5.912   5.957  17.272  0.00  0.00    +0.000 A 
ATOM     26  C   UNL     1       6.508   5.165  18.261  0.00  0.00    +0.000 A 
ATOM     27  C   UNL     1       7.639   5.617  18.944  0.00  0.00    +0.000 A 
ATOM     28  C   UNL     1       8.186   6.862  18.642  0.00  0.00    +0.000 A 
ATOM     29  C   UNL     1       7.607   7.657  17.654  0.00  0.00    +0.000 A 
ATOM     30  C   UNL     1       6.476   7.207  16.972  0.00  0.00    +0.000 A 
ENDBRANCH  24  25
ENDBRANCH  23  24
ENDBRANCH  22  23
ENDBRANCH   7  22
TORSDOF 7
ENDMDL
MODEL 5
REMARK VINA RESULT:      -8.1      0.510      1.055
REMARK  Name = 
REMARK  7 active torsions:
REMARK  status: ('A' for Active; 'I' for Inactive)
REMARK    1  A    between atoms: S_2  and  C_4
REMARK    2  A    between atoms: S_2  and  N_11
REMARK    3  A    between atoms: C_13  and  N_14
REMARK    4  A    between atoms: C_20  and  C_21
REMARK    5  A    between atoms: C_21  and  O_22
REMARK    6  A    between atoms: O_22  and  C_23
REMARK    7  A    between atoms: C_23  and  C_24
REMARK                            x       y       z     vdW  Elec       q    Type
REMARK                         _______ _______ _______ _____ _____    ______ ____
ROOT
ATOM      1  N   UNL     1       3.456   4.463  19.647  0.00  0.00    +0.000 NA
ATOM      2  C   UNL     1       2.634   3.786  20.675  0.00  0.00    +0.000 C 
ATOM      3  C   UNL     1       1.292   3.469  20.025  0.00  0.00    +0.000 C 
ATOM      4  F   UNL     1       0.778   2.297  20.450  0.00  0.00    +0.000 F 
ATOM      5  F   UNL     1       0.382   4.435  20.291  0.00  0.00    +0.000 F 
ATOM      6  C   UNL     1       1.583   3.427  18.547  0.00  0.00    +0.000 C 
ATOM      7  C   UNL     1       2.670   4.482  18.381  0.00  0.00    +0.000 C 
ENDROOT
BRANCH   1  10
ATOM      8  N   UNL     1       5.775   4.978  17.729  0.00  0.00    +0.000 NA
ATOM      9  C   UNL     1       5.105   3.645  17.909  0.00  0.00    +0.000 C 
ATOM     10  C   UNL     1       4.835   3.971  19.404  0.00  0.00    +0.000 C 
ATOM     11  C   UNL     1       5.904   5.070  19.230  0.00  0.00    +0.000 C 
BRANCH   8  13
ATOM     12  O   UNL     1       8.186   4.472  17.123  0.00  0.00    +0.000 OA
ATOM     13  S   UNL     1       7.088   5.331  16.722  0.00  0.00    +0.000 S 
ATOM     14  O   UNL     1       7.241   6.770  16.696  0.00  0.00    +0.000 OA
BRANCH  13  15
ATOM     15  C   UNL     1       6.558   4.812  15.103  0.00  0.00    +0.000 A 
ATOM     16  C   UNL     1       7.463   4.805  14.032  0.00  0.00    +0.000 A 
ATOM     17  C   UNL     1       7.066   4.278  12.800  0.00  0.00    +0.000 A 
ATOM     18  C   UNL     1       5.785   3.753  12.653  0.00  0.00    +0.000 A 
ATOM     19  F   UNL     1       5.411   3.237  11.475  0.00  0.00    +0.000 F 
ATOM     20  C   UNL     1       4.889   3.740  13.719  0.00  0.00    +0.000 A 
ATOM     21  C   UNL     1       5.277   4.267  14.952  0.00  0.00    +0.000 A 
ENDBRANCH  13  15
ENDBRANCH   8  13
ENDBRANCH   1  10
BRANCH   7  22
ATOM     22  C   UNL     1       2.077   5.887  18.128  0.00  0.00    +0.000 C 
BRANCH  22  23
ATOM     23  O   UNL     1       2.756   6.832  18.955  0.00  0.00    +0.000 OA
BRANCH  23  24
ATOM     24  C   UNL     1       1.917   7.332  19.993  0.00  0.00    +0.000 C 
BRANCH  24  25
ATOM     25  C   UNL     1       1.519   8.739  19.638  0.00  0.00    +0.000 A 
ATOM     26  C   UNL     1       1.835   9.277  18.384  0.00  0.00    +0.000 A 
ATOM     27  C   UNL     1       1.482  10.590  18.067  0.00  0.00    +0.000 A 
ATOM     28  C   UNL     1       0.808  11.377  18.998  0.00  0.00    +0.000 A 
ATOM     29  C   UNL     1       0.480  10.852  20.247  0.00  0.00    +0.000 A 
ATOM     30  C   UNL     1       0.834   9.539  20.566  0.00  0.00    +0.000 A 
ENDBRANCH  24  25
ENDBRANCH  23  24
ENDBRANCH  22  23
ENDBRANCH   7  22
TORSDOF 7
ENDMDL
MODEL 6
REMARK VINA RESULT:      -8.0      3.597      7.922
REMARK  Name = 
REMARK  7 active torsions:
REMARK  status: ('A' for Active; 'I' for Inactive)
REMARK    1  A    between atoms: S_2  and  C_4
REMARK    2  A    between atoms: S_2  and  N_11
REMARK    3  A    between atoms: C_13  and  N_14
REMARK    4  A    between atoms: C_20  and  C_21
REMARK    5  A    between atoms: C_21  and  O_22
REMARK    6  A    between atoms: O_22  and  C_23
REMARK    7  A    between atoms: C_23  and  C_24
REMARK                            x       y       z     vdW  Elec       q    Type
REMARK                         _______ _______ _______ _____ _____    ______ ____
ROOT
ATOM      1  N   UNL     1       3.673   6.635  18.464  0.00  0.00    +0.000 NA
ATOM      2  C   UNL     1       4.279   7.428  17.372  0.00  0.00    +0.000 C 
ATOM      3  C   UNL     1       5.077   6.454  16.513  0.00  0.00    +0.000 C 
ATOM      4  F   UNL     1       5.031   6.766  15.202  0.00  0.00    +0.000 F 
ATOM      5  F   UNL     1       6.379   6.434  16.882  0.00  0.00    +0.000 F 
ATOM      6  C   UNL     1       4.446   5.111  16.771  0.00  0.00    +0.000 C 
ATOM      7  C   UNL     1       4.021   5.205  18.231  0.00  0.00    +0.000 C 
ENDROOT
BRANCH   1  10
ATOM      8  N   UNL     1       1.833   8.155  20.368  0.00  0.00    +0.000 NA
ATOM      9  C   UNL     1       1.868   6.659  20.239  0.00  0.00    +0.000 C 
ATOM     10  C   UNL     1       2.221   6.787  18.731  0.00  0.00    +0.000 C 
ATOM     11  C   UNL     1       1.726   8.243  18.865  0.00  0.00    +0.000 C 
BRANCH   8  13
ATOM     12  O   UNL     1       1.623   9.586  22.453  0.00  0.00    +0.000 OA
ATOM     13  S   UNL     1       0.816   9.068  21.366  0.00  0.00    +0.000 S 
ATOM     14  O   UNL     1      -0.363   8.270  21.630  0.00  0.00    +0.000 OA
BRANCH  13  15
ATOM     15  C   UNL     1       0.322  10.447  20.353  0.00  0.00    +0.000 A 
ATOM     16  C   UNL     1       1.160  11.563  20.220  0.00  0.00    +0.000 A 
ATOM     17  C   UNL     1       0.816  12.580  19.326  0.00  0.00    +0.000 A 
ATOM     18  C   UNL     1      -0.345  12.468  18.566  0.00  0.00    +0.000 A 
ATOM     19  F   UNL     1      -0.666  13.438  17.699  0.00  0.00    +0.000 F 
ATOM     20  C   UNL     1      -1.171  11.353  18.679  0.00  0.00    +0.000 A 
ATOM     21  C   UNL     1      -0.835  10.334  19.573  0.00  0.00    +0.000 A 
ENDBRANCH  13  15
ENDBRANCH   8  13
ENDBRANCH   1  10
BRANCH   7  22
ATOM     22  C   UNL     1       5.147   4.754  19.189  0.00  0.00    +0.000 C 
BRANCH  22  23
ATOM     23  O   UNL     1       5.333   3.345  19.054  0.00  0.00    +0.000 OA
BRANCH  23  24
ATOM     24  C   UNL     1       4.753   2.623  20.137  0.00  0.00    +0.000 C 
BRANCH  24  25
ATOM     25  C   UNL     1       3.259   2.616  19.949  0.00  0.00    +0.000 A 
ATOM     26  C   UNL     1       2.691   2.150  18.757  0.00  0.00    +0.000 A 
ATOM     27  C   UNL     1       1.306   2.165  18.579  0.00  0.00    +0.000 A 
ATOM     28  C   UNL     1       0.476   2.642  19.592  0.00  0.00    +0.000 A 
ATOM     29  C   UNL     1       1.029   3.101  20.787  0.00  0.00    +0.000 A 
ATOM     30  C   UNL     1       2.413   3.088  20.965  0.00  0.00    +0.000 A 
ENDBRANCH  24  25
ENDBRANCH  23  24
ENDBRANCH  22  23
ENDBRANCH   7  22
TORSDOF 7
ENDMDL
MODEL 7
REMARK VINA RESULT:      -8.0      3.564      7.958
REMARK  Name = 
REMARK  7 active torsions:
REMARK  status: ('A' for Active; 'I' for Inactive)
REMARK    1  A    between atoms: S_2  and  C_4
REMARK    2  A    between atoms: S_2  and  N_11
REMARK    3  A    between atoms: C_13  and  N_14
REMARK    4  A    between atoms: C_20  and  C_21
REMARK    5  A    between atoms: C_21  and  O_22
REMARK    6  A    between atoms: O_22  and  C_23
REMARK    7  A    between atoms: C_23  and  C_24
REMARK                            x       y       z     vdW  Elec       q    Type
REMARK                         _______ _______ _______ _____ _____    ______ ____
ROOT
ATOM      1  N   UNL     1       3.738   6.514  18.419  0.00  0.00    +0.000 NA
ATOM      2  C   UNL     1       4.362   7.292  17.327  0.00  0.00    +0.000 C 
ATOM      3  C   UNL     1       5.157   6.303  16.482  0.00  0.00    +0.000 C 
ATOM      4  F   UNL     1       5.126   6.606  15.168  0.00  0.00    +0.000 F 
ATOM      5  F   UNL     1       6.455   6.269  16.863  0.00  0.00    +0.000 F 
ATOM      6  C   UNL     1       4.507   4.969  16.743  0.00  0.00    +0.000 C 
ATOM      7  C   UNL     1       4.071   5.078  18.199  0.00  0.00    +0.000 C 
ENDROOT
BRANCH   1  10
ATOM      8  N   UNL     1       1.896   8.126  20.245  0.00  0.00    +0.000 NA
ATOM      9  C   UNL     1       1.924   6.625  20.181  0.00  0.00    +0.000 C 
ATOM     10  C   UNL     1       2.285   6.685  18.672  0.00  0.00    +0.000 C 
ATOM     11  C   UNL     1       1.797   8.147  18.738  0.00  0.00    +0.000 C 
BRANCH   8  13
ATOM     12  O   UNL     1       1.669   9.596  22.300  0.00  0.00    +0.000 OA
ATOM     13  S   UNL     1       0.879   9.088  21.195  0.00  0.00    +0.000 S 
ATOM     14  O   UNL     1      -0.333   8.332  21.435  0.00  0.00    +0.000 OA
BRANCH  13  15
ATOM     15  C   UNL     1       0.462  10.464  20.147  0.00  0.00    +0.000 A 
ATOM     16  C   UNL     1      -0.751  10.475  19.442  0.00  0.00    +0.000 A 
ATOM     17  C   UNL     1      -1.120  11.615  18.724  0.00  0.00    +0.000 A 
ATOM     18  C   UNL     1      -0.289  12.733  18.728  0.00  0.00    +0.000 A 
ATOM     19  F   UNL     1      -0.651  13.830  18.049  0.00  0.00    +0.000 F 
ATOM     20  C   UNL     1       0.906  12.736  19.442  0.00  0.00    +0.000 A 
ATOM     21  C   UNL     1       1.282  11.599  20.160  0.00  0.00    +0.000 A 
ENDBRANCH  13  15
ENDBRANCH   8  13
ENDBRANCH   1  10
BRANCH   7  22
ATOM     22  C   UNL     1       5.182   4.621  19.171  0.00  0.00    +0.000 C 
BRANCH  22  23
ATOM     23  O   UNL     1       5.338   3.205  19.063  0.00  0.00    +0.000 OA
BRANCH  23  24
ATOM     24  C   UNL     1       4.741   2.518  20.159  0.00  0.00    +0.000 C 
BRANCH  24  25
ATOM     25  C   UNL     1       3.246   2.583  19.996  0.00  0.00    +0.000 A 
ATOM     26  C   UNL     1       2.438   3.110  21.012  0.00  0.00    +0.000 A 
ATOM     27  C   UNL     1       1.050   3.149  20.865  0.00  0.00    +0.000 A 
ATOM     28  C   UNL     1       0.457   2.667  19.700  0.00  0.00    +0.000 A 
ATOM     29  C   UNL     1       1.250   2.148  18.678  0.00  0.00    +0.000 A 
ATOM     30  C   UNL     1       2.637   2.107  18.825  0.00  0.00    +0.000 A 
ENDBRANCH  24  25
ENDBRANCH  23  24
ENDBRANCH  22  23
ENDBRANCH   7  22
TORSDOF 7
ENDMDL
MODEL 8
REMARK VINA RESULT:      -7.9      2.998      7.649
REMARK  Name = 
REMARK  7 active torsions:
REMARK  status: ('A' for Active; 'I' for Inactive)
REMARK    1  A    between atoms: S_2  and  C_4
REMARK    2  A    between atoms: S_2  and  N_11
REMARK    3  A    between atoms: C_13  and  N_14
REMARK    4  A    between atoms: C_20  and  C_21
REMARK    5  A    between atoms: C_21  and  O_22
REMARK    6  A    between atoms: O_22  and  C_23
REMARK    7  A    between atoms: C_23  and  C_24
REMARK                            x       y       z     vdW  Elec       q    Type
REMARK                         _______ _______ _______ _____ _____    ______ ____
ROOT
ATOM      1  N   UNL     1       2.693   5.013  18.750  0.00  0.00    +0.000 NA
ATOM      2  C   UNL     1       1.494   4.531  19.470  0.00  0.00    +0.000 C 
ATOM      3  C   UNL     1       1.836   3.149  20.017  0.00  0.00    +0.000 C 
ATOM      4  F   UNL     1       1.274   2.918  21.220  0.00  0.00    +0.000 F 
ATOM      5  F   UNL     1       1.415   2.176  19.176  0.00  0.00    +0.000 F 
ATOM      6  C   UNL     1       3.339   3.137  20.111  0.00  0.00    +0.000 C 
ATOM      7  C   UNL     1       3.765   3.993  18.924  0.00  0.00    +0.000 C 
ENDROOT
BRANCH   1  10
ATOM      8  N   UNL     1       1.795   7.920  18.486  0.00  0.00    +0.000 NA
ATOM      9  C   UNL     1       3.044   7.359  17.865  0.00  0.00    +0.000 C 
ATOM     10  C   UNL     1       3.205   6.373  19.055  0.00  0.00    +0.000 C 
ATOM     11  C   UNL     1       2.216   7.297  19.795  0.00  0.00    +0.000 C 
BRANCH   8  13
ATOM     12  O   UNL     1       0.124   9.563  17.514  0.00  0.00    +0.000 OA
ATOM     13  S   UNL     1       1.256   9.523  18.420  0.00  0.00    +0.000 S 
ATOM     14  O   UNL     1       2.415  10.361  18.198  0.00  0.00    +0.000 OA
BRANCH  13  15
ATOM     15  C   UNL     1       0.651   9.855  20.060  0.00  0.00    +0.000 A 
ATOM     16  C   UNL     1       0.519  11.177  20.511  0.00  0.00    +0.000 A 
ATOM     17  C   UNL     1      -0.074  11.425  21.752  0.00  0.00    +0.000 A 
ATOM     18  C   UNL     1      -0.540  10.362  22.520  0.00  0.00    +0.000 A 
ATOM     19  F   UNL     1      -1.120  10.603  23.703  0.00  0.00    +0.000 F 
ATOM     20  C   UNL     1      -0.431   9.049  22.069  0.00  0.00    +0.000 A 
ATOM     21  C   UNL     1       0.163   8.793  20.831  0.00  0.00    +0.000 A 
ENDBRANCH  13  15
ENDBRANCH   8  13
ENDBRANCH   1  10
BRANCH   7  22
ATOM     22  C   UNL     1       3.934   3.154  17.638  0.00  0.00    +0.000 C 
BRANCH  22  23
ATOM     23  O   UNL     1       4.299   4.020  16.564  0.00  0.00    +0.000 OA
BRANCH  23  24
ATOM     24  C   UNL     1       5.681   3.909  16.234  0.00  0.00    +0.000 C 
BRANCH  24  25
ATOM     25  C   UNL     1       6.429   4.979  16.983  0.00  0.00    +0.000 A 
ATOM     26  C   UNL     1       6.317   6.324  16.609  0.00  0.00    +0.000 A 
ATOM     27  C   UNL     1       7.030   7.311  17.293  0.00  0.00    +0.000 A 
ATOM     28  C   UNL     1       7.857   6.964  18.359  0.00  0.00    +0.000 A 
ATOM     29  C   UNL     1       7.971   5.629  18.747  0.00  0.00    +0.000 A 
ATOM     30  C   UNL     1       7.260   4.642  18.062  0.00  0.00    +0.000 A 
ENDBRANCH  24  25
ENDBRANCH  23  24
ENDBRANCH  22  23
ENDBRANCH   7  22
TORSDOF 7
ENDMDL
MODEL 9
REMARK VINA RESULT:      -7.9      1.053      1.234
REMARK  Name = 
REMARK  7 active torsions:
REMARK  status: ('A' for Active; 'I' for Inactive)
REMARK    1  A    between atoms: S_2  and  C_4
REMARK    2  A    between atoms: S_2  and  N_11
REMARK    3  A    between atoms: C_13  and  N_14
REMARK    4  A    between atoms: C_20  and  C_21
REMARK    5  A    between atoms: C_21  and  O_22
REMARK    6  A    between atoms: O_22  and  C_23
REMARK    7  A    between atoms: C_23  and  C_24
REMARK                            x       y       z     vdW  Elec       q    Type
REMARK                         _______ _______ _______ _____ _____    ______ ____
ROOT
ATOM      1  N   UNL     1       3.407   4.826  19.310  0.00  0.00    +0.000 NA
ATOM      2  C   UNL     1       3.032   3.423  19.592  0.00  0.00    +0.000 C 
ATOM      3  C   UNL     1       2.175   2.954  18.421  0.00  0.00    +0.000 C 
ATOM      4  F   UNL     1       2.388   1.659  18.114  0.00  0.00    +0.000 F 
ATOM      5  F   UNL     1       0.858   3.099  18.694  0.00  0.00    +0.000 F 
ATOM      6  C   UNL     1       2.568   3.852  17.277  0.00  0.00    +0.000 C 
ATOM      7  C   UNL     1       2.867   5.177  17.967  0.00  0.00    +0.000 C 
ENDROOT
BRANCH   1  10
ATOM      8  N   UNL     1       5.887   5.003  17.538  0.00  0.00    +0.000 NA
ATOM      9  C   UNL     1       5.797   4.173  18.788  0.00  0.00    +0.000 C 
ATOM     10  C   UNL     1       4.835   5.215  19.422  0.00  0.00    +0.000 C 
ATOM     11  C   UNL     1       5.344   6.172  18.324  0.00  0.00    +0.000 C 
BRANCH   8  13
ATOM     12  O   UNL     1       8.228   4.217  16.956  0.00  0.00    +0.000 OA
ATOM     13  S   UNL     1       7.235   5.185  16.531  0.00  0.00    +0.000 S 
ATOM     14  O   UNL     1       7.549   6.597  16.478  0.00  0.00    +0.000 OA
BRANCH  13  15
ATOM     15  C   UNL     1       6.656   4.697  14.921  0.00  0.00    +0.000 A 
ATOM     16  C   UNL     1       7.495   4.810  13.803  0.00  0.00    +0.000 A 
ATOM     17  C   UNL     1       7.072   4.307  12.570  0.00  0.00    +0.000 A 
ATOM     18  C   UNL     1       5.830   3.686  12.467  0.00  0.00    +0.000 A 
ATOM     19  F   UNL     1       5.431   3.193  11.287  0.00  0.00    +0.000 F 
ATOM     20  C   UNL     1       5.001   3.552  13.578  0.00  0.00    +0.000 A 
ATOM     21  C   UNL     1       5.416   4.055  14.812  0.00  0.00    +0.000 A 
ENDBRANCH  13  15
ENDBRANCH   8  13
ENDBRANCH   1  10
BRANCH   7  22
ATOM     22  C   UNL     1       1.604   6.057  18.099  0.00  0.00    +0.000 C 
BRANCH  22  23
ATOM     23  O   UNL     1       1.973   7.426  17.932  0.00  0.00    +0.000 OA
BRANCH  23  24
ATOM     24  C   UNL     1       2.190   8.077  19.181  0.00  0.00    +0.000 C 
BRANCH  24  25
ATOM     25  C   UNL     1       1.110   9.110  19.366  0.00  0.00    +0.000 A 
ATOM     26  C   UNL     1       0.668   9.459  20.648  0.00  0.00    +0.000 A 
ATOM     27  C   UNL     1      -0.349  10.402  20.814  0.00  0.00    +0.000 A 
ATOM     28  C   UNL     1      -0.929  11.007  19.701  0.00  0.00    +0.000 A 
ATOM     29  C   UNL     1      -0.492  10.674  18.419  0.00  0.00    +0.000 A 
ATOM     30  C   UNL     1       0.523   9.731  18.252  0.00  0.00    +0.000 A 
ENDBRANCH  24  25
ENDBRANCH  23  24
ENDBRANCH  22  23
ENDBRANCH   7  22
TORSDOF 7
ENDMDL
