MODEL 1
REMARK VINA RESULT:      -9.3      0.000      0.000
REMARK  Name = 
REMARK  5 active torsions:
REMARK  status: ('A' for Active; 'I' for Inactive)
REMARK    1  A    between atoms: C_7  and  C_8
REMARK    2  A    between atoms: C_12  and  C_13
REMARK    3  A    between atoms: C_13  and  N_14
REMARK    4  A    between atoms: C_21  and  C_22
REMARK    5  A    between atoms: C_29  and  C_30
REMARK                            x       y       z     vdW  Elec       q    Type
REMARK                         _______ _______ _______ _____ _____    ______ ____
ROOT
ATOM      1  C   UNL     1       2.039   5.299  17.963  0.00  0.00    +0.000 C 
ENDROOT
BRANCH   1   2
ATOM      2  N   UNL     1       3.024   6.183  18.612  0.00  0.00    +0.000 NA
ATOM      3  C   UNL     1       3.158   7.490  17.899  0.00  0.00    +0.000 C 
ATOM      4  C   UNL     1       1.933   8.443  17.964  0.00  0.00    +0.000 C 
ATOM      5  N   UNL     1       1.574   8.660  19.369  0.00  0.00    +0.000 N 
ATOM      6  C   UNL     1       0.674   9.697  19.625  0.00  0.00    +0.000 A 
ATOM      7  C   UNL     1       0.643  10.239  20.911  0.00  0.00    +0.000 A 
ATOM      8  C   UNL     1      -0.151  11.347  21.191  0.00  0.00    +0.000 A 
ATOM      9  C   UNL     1      -0.921  11.911  20.181  0.00  0.00    +0.000 A 
ATOM     10  C   UNL     1      -0.859  11.305  18.938  0.00  0.00    +0.000 A 
ATOM     11  N   UNL     1      -0.080  10.232  18.639  0.00  0.00    +0.000 NA
ATOM     12  C   UNL     1       1.346   7.423  20.133  0.00  0.00    +0.000 C 
ATOM     13  C   UNL     1       2.599   6.503  20.027  0.00  0.00    +0.000 C 
BRANCH   9  14
ATOM     14  C   UNL     1      -1.753  13.133  20.409  0.00  0.00    +0.000 C 
ATOM     15  F   UNL     1      -3.021  13.020  19.916  0.00  0.00    +0.000 F 
ATOM     16  F   UNL     1      -1.900  13.429  21.730  0.00  0.00    +0.000 F 
ATOM     17  F   UNL     1      -1.231  14.247  19.829  0.00  0.00    +0.000 F 
ENDBRANCH   9  14
BRANCH  13  18
ATOM     18  C   UNL     1       2.407   5.293  20.961  0.00  0.00    +0.000 C 
ATOM     19  F   UNL     1       1.100   4.914  20.983  0.00  0.00    +0.000 F 
ENDBRANCH  13  18
ENDBRANCH   1   2
BRANCH   1  24
ATOM     20  C   UNL     1       3.525   3.199  17.520  0.00  0.00    +0.000 A 
ATOM     21  N   UNL     1       3.481   1.867  17.690  0.00  0.00    +0.000 NA
ATOM     22  N   UNL     1       2.303   1.640  18.278  0.00  0.00    +0.000 N 
ATOM     23  C   UNL     1       1.570   2.767  18.485  0.00  0.00    +0.000 A 
ATOM     24  C   UNL     1       2.330   3.827  18.028  0.00  0.00    +0.000 A 
ATOM     25  H   UNL     1       2.054   0.683  18.497  0.00  0.00    +0.000 HD
BRANCH  20  32
ATOM     26  O   UNL     1       9.003   5.976  12.856  0.00  0.00    +0.000 OA
ATOM     27  C   UNL     1       8.065   5.448  13.441  0.00  0.00    +0.000 C 
ATOM     28  N   UNL     1       7.094   4.782  12.748  0.00  0.00    +0.000 N 
ATOM     29  C   UNL     1       6.197   3.837  13.346  0.00  0.00    +0.000 C 
ATOM     30  C   UNL     1       5.929   4.150  14.773  0.00  0.00    +0.000 A 
ATOM     31  C   UNL     1       4.854   3.578  15.463  0.00  0.00    +0.000 A 
ATOM     32  C   UNL     1       4.670   3.814  16.835  0.00  0.00    +0.000 A 
ATOM     33  C   UNL     1       5.596   4.627  17.506  0.00  0.00    +0.000 A 
ATOM     34  C   UNL     1       6.658   5.217  16.822  0.00  0.00    +0.000 A 
ATOM     35  C   UNL     1       6.815   4.962  15.466  0.00  0.00    +0.000 A 
ATOM     36  O   UNL     1       7.929   5.524  14.828  0.00  0.00    +0.000 OA
ATOM     37  H   UNL     1       7.295   4.704  11.761  0.00  0.00    +0.000 HD
ENDBRANCH  20  32
ENDBRANCH   1  24
TORSDOF 5
ENDMDL
MODEL 2
REMARK VINA RESULT:      -9.1      5.453     11.526
REMARK  Name = 
REMARK  5 active torsions:
REMARK  status: ('A' for Active; 'I' for Inactive)
REMARK    1  A    between atoms: C_7  and  C_8
REMARK    2  A    between atoms: C_12  and  C_13
REMARK    3  A    between atoms: C_13  and  N_14
REMARK    4  A    between atoms: C_21  and  C_22
REMARK    5  A    between atoms: C_29  and  C_30
REMARK                            x       y       z     vdW  Elec       q    Type
REMARK                         _______ _______ _______ _____ _____    ______ ____
ROOT
ATOM      1  C   UNL     1       0.753  11.585  21.086  0.00  0.00    +0.000 C 
ENDROOT
BRANCH   1   2
ATOM      2  N   UNL     1      -0.270  10.571  20.770  0.00  0.00    +0.000 NA
ATOM      3  C   UNL     1      -0.095  10.010  19.395  0.00  0.00    +0.000 C 
ATOM      4  C   UNL     1       1.163   9.131  19.161  0.00  0.00    +0.000 C 
ATOM      5  N   UNL     1       1.186   8.057  20.160  0.00  0.00    +0.000 N 
ATOM      6  C   UNL     1       2.094   7.020  19.931  0.00  0.00    +0.000 A 
ATOM      7  C   UNL     1       1.861   5.794  20.558  0.00  0.00    +0.000 A 
ATOM      8  C   UNL     1       2.667   4.695  20.278  0.00  0.00    +0.000 A 
ATOM      9  C   UNL     1       3.713   4.825  19.371  0.00  0.00    +0.000 A 
ATOM     10  C   UNL     1       3.898   6.076  18.809  0.00  0.00    +0.000 A 
ATOM     11  N   UNL     1       3.114   7.159  19.057  0.00  0.00    +0.000 NA
ATOM     12  C   UNL     1       1.098   8.525  21.552  0.00  0.00    +0.000 C 
ATOM     13  C   UNL     1      -0.175   9.406  21.729  0.00  0.00    +0.000 C 
BRANCH   9  14
ATOM     14  C   UNL     1       4.579   3.666  18.991  0.00  0.00    +0.000 C 
ATOM     15  F   UNL     1       4.074   2.934  17.956  0.00  0.00    +0.000 F 
ATOM     16  F   UNL     1       5.824   4.050  18.593  0.00  0.00    +0.000 F 
ATOM     17  F   UNL     1       4.765   2.785  20.010  0.00  0.00    +0.000 F 
ENDBRANCH   9  14
BRANCH  13  18
ATOM     18  C   UNL     1      -0.337   9.749  23.223  0.00  0.00    +0.000 C 
ATOM     19  F   UNL     1      -1.446  10.513  23.417  0.00  0.00    +0.000 F 
ENDBRANCH  13  18
ENDBRANCH   1   2
BRANCH   1  24
ATOM     20  C   UNL     1      -0.619  13.672  20.327  0.00  0.00    +0.000 A 
ATOM     21  N   UNL     1      -0.449  14.795  19.609  0.00  0.00    +0.000 NA
ATOM     22  N   UNL     1       0.829  14.759  19.222  0.00  0.00    +0.000 N 
ATOM     23  C   UNL     1       1.497  13.652  19.644  0.00  0.00    +0.000 A 
ATOM     24  C   UNL     1       0.604  12.910  20.394  0.00  0.00    +0.000 A 
ATOM     25  H   UNL     1       1.179  15.522  18.654  0.00  0.00    +0.000 HD
BRANCH  20  32
ATOM     26  O   UNL     1      -7.154  12.484  24.245  0.00  0.00    +0.000 OA
ATOM     27  C   UNL     1      -6.044  12.735  23.789  0.00  0.00    +0.000 C 
ATOM     28  N   UNL     1      -5.106  13.379  24.545  0.00  0.00    +0.000 N 
ATOM     29  C   UNL     1      -3.704  13.374  24.246  0.00  0.00    +0.000 C 
ATOM     30  C   UNL     1      -3.446  13.253  22.789  0.00  0.00    +0.000 A 
ATOM     31  C   UNL     1      -2.196  13.550  22.235  0.00  0.00    +0.000 A 
ATOM     32  C   UNL     1      -1.944  13.342  20.869  0.00  0.00    +0.000 A 
ATOM     33  C   UNL     1      -2.970  12.816  20.069  0.00  0.00    +0.000 A 
ATOM     34  C   UNL     1      -4.225  12.537  20.609  0.00  0.00    +0.000 A 
ATOM     35  C   UNL     1      -4.442  12.750  21.964  0.00  0.00    +0.000 A 
ATOM     36  O   UNL     1      -5.698  12.400  22.479  0.00  0.00    +0.000 OA
ATOM     37  H   UNL     1      -5.399  13.523  25.501  0.00  0.00    +0.000 HD
ENDBRANCH  20  32
ENDBRANCH   1  24
TORSDOF 5
ENDMDL
MODEL 3
REMARK VINA RESULT:      -9.1      5.401     11.440
REMARK  Name = 
REMARK  5 active torsions:
REMARK  status: ('A' for Active; 'I' for Inactive)
REMARK    1  A    between atoms: C_7  and  C_8
REMARK    2  A    between atoms: C_12  and  C_13
REMARK    3  A    between atoms: C_13  and  N_14
REMARK    4  A    between atoms: C_21  and  C_22
REMARK    5  A    between atoms: C_29  and  C_30
REMARK                            x       y       z     vdW  Elec       q    Type
REMARK                         _______ _______ _______ _____ _____    ______ ____
ROOT
ATOM      1  C   UNL     1       0.661  11.666  20.926  0.00  0.00    +0.000 C 
ENDROOT
BRANCH   1   2
ATOM      2  N   UNL     1      -0.274  10.575  20.594  0.00  0.00    +0.000 NA
ATOM      3  C   UNL     1      -0.249  10.241  19.136  0.00  0.00    +0.000 C 
ATOM      4  C   UNL     1       1.051   9.586  18.598  0.00  0.00    +0.000 C 
ATOM      5  N   UNL     1       1.353   8.397  19.401  0.00  0.00    +0.000 N 
ATOM      6  C   UNL     1       2.329   7.537  18.891  0.00  0.00    +0.000 A 
ATOM      7  C   UNL     1       2.340   6.215  19.340  0.00  0.00    +0.000 A 
ATOM      8  C   UNL     1       3.215   5.288  18.783  0.00  0.00    +0.000 A 
ATOM      9  C   UNL     1       4.087   5.687  17.776  0.00  0.00    +0.000 A 
ATOM     10  C   UNL     1       4.036   7.018  17.400  0.00  0.00    +0.000 A 
ATOM     11  N   UNL     1       3.180   7.937  17.920  0.00  0.00    +0.000 NA
ATOM     12  C   UNL     1       1.426   8.648  20.849  0.00  0.00    +0.000 C 
ATOM     13  C   UNL     1       0.102   9.310  21.334  0.00  0.00    +0.000 C 
BRANCH   9  14
ATOM     14  C   UNL     1       5.013   4.724  17.103  0.00  0.00    +0.000 C 
ATOM     15  F   UNL     1       4.560   3.437  17.127  0.00  0.00    +0.000 F 
ATOM     16  F   UNL     1       5.210   5.018  15.788  0.00  0.00    +0.000 F 
ATOM     17  F   UNL     1       6.249   4.691  17.670  0.00  0.00    +0.000 F 
ENDBRANCH   9  14
BRANCH  13  18
ATOM     18  C   UNL     1       0.133   9.416  22.871  0.00  0.00    +0.000 C 
ATOM     19  F   UNL     1      -0.951  10.103  23.322  0.00  0.00    +0.000 F 
ENDBRANCH  13  18
ENDBRANCH   1   2
BRANCH   1  24
ATOM     20  C   UNL     1      -0.829  13.776  20.553  0.00  0.00    +0.000 A 
ATOM     21  N   UNL     1      -0.829  14.907  19.828  0.00  0.00    +0.000 NA
ATOM     22  N   UNL     1       0.314  14.864  19.135  0.00  0.00    +0.000 N 
ATOM     23  C   UNL     1       1.050  13.745  19.367  0.00  0.00    +0.000 A 
ATOM     24  C   UNL     1       0.362  13.001  20.307  0.00  0.00    +0.000 A 
ATOM     25  H   UNL     1       0.521  15.631  18.506  0.00  0.00    +0.000 HD
BRANCH  20  32
ATOM     26  O   UNL     1      -7.479  11.803  23.923  0.00  0.00    +0.000 OA
ATOM     27  C   UNL     1      -6.518  12.098  23.223  0.00  0.00    +0.000 C 
ATOM     28  N   UNL     1      -6.582  11.985  21.863  0.00  0.00    +0.000 N 
ATOM     29  C   UNL     1      -5.679  12.646  20.966  0.00  0.00    +0.000 C 
ATOM     30  C   UNL     1      -4.340  12.851  21.576  0.00  0.00    +0.000 A 
ATOM     31  C   UNL     1      -3.220  13.170  20.801  0.00  0.00    +0.000 A 
ATOM     32  C   UNL     1      -1.983  13.451  21.403  0.00  0.00    +0.000 A 
ATOM     33  C   UNL     1      -1.894  13.417  22.803  0.00  0.00    +0.000 A 
ATOM     34  C   UNL     1      -3.001  13.080  23.581  0.00  0.00    +0.000 A 
ATOM     35  C   UNL     1      -4.211  12.811  22.957  0.00  0.00    +0.000 A 
ATOM     36  O   UNL     1      -5.314  12.535  23.777  0.00  0.00    +0.000 OA
ATOM     37  H   UNL     1      -7.502  11.735  21.530  0.00  0.00    +0.000 HD
ENDBRANCH  20  32
ENDBRANCH   1  24
TORSDOF 5
ENDMDL
MODEL 4
REMARK VINA RESULT:      -9.1      5.430     11.510
REMARK  Name = 
REMARK  5 active torsions:
REMARK  status: ('A' for Active; 'I' for Inactive)
REMARK    1  A    between atoms: C_7  and  C_8
REMARK    2  A    between atoms: C_12  and  C_13
REMARK    3  A    between atoms: C_13  and  N_14
REMARK    4  A    between atoms: C_21  and  C_22
REMARK    5  A    between atoms: C_29  and  C_30
REMARK                            x       y       z     vdW  Elec       q    Type
REMARK                         _______ _______ _______ _____ _____    ______ ____
ROOT
ATOM      1  C   UNL     1       0.582  11.708  21.064  0.00  0.00    +0.000 C 
ENDROOT
BRANCH   1   2
ATOM      2  N   UNL     1      -0.350  10.621  20.711  0.00  0.00    +0.000 NA
ATOM      3  C   UNL     1      -0.331  10.322  19.246  0.00  0.00    +0.000 C 
ATOM      4  C   UNL     1       0.970   9.685  18.686  0.00  0.00    +0.000 C 
ATOM      5  N   UNL     1       1.281   8.479  19.460  0.00  0.00    +0.000 N 
ATOM      6  C   UNL     1       2.257   7.635  18.925  0.00  0.00    +0.000 A 
ATOM      7  C   UNL     1       2.276   6.303  19.344  0.00  0.00    +0.000 A 
ATOM      8  C   UNL     1       3.152   5.393  18.761  0.00  0.00    +0.000 A 
ATOM      9  C   UNL     1       4.018   5.819  17.759  0.00  0.00    +0.000 A 
ATOM     10  C   UNL     1       3.960   7.158  17.415  0.00  0.00    +0.000 A 
ATOM     11  N   UNL     1       3.102   8.062  17.960  0.00  0.00    +0.000 NA
ATOM     12  C   UNL     1       1.360   8.696  20.913  0.00  0.00    +0.000 C 
ATOM     13  C   UNL     1       0.035   9.341  21.419  0.00  0.00    +0.000 C 
BRANCH   9  14
ATOM     14  C   UNL     1       4.945   4.877  17.060  0.00  0.00    +0.000 C 
ATOM     15  F   UNL     1       5.145   5.194  15.748  0.00  0.00    +0.000 F 
ATOM     16  F   UNL     1       6.185   4.847  17.622  0.00  0.00    +0.000 F 
ATOM     17  F   UNL     1       4.499   3.591  17.065  0.00  0.00    +0.000 F 
ENDBRANCH   9  14
BRANCH  13  18
ATOM     18  C   UNL     1       0.073   9.411  22.958  0.00  0.00    +0.000 C 
ATOM     19  F   UNL     1      -1.050  10.013  23.434  0.00  0.00    +0.000 F 
ENDBRANCH  13  18
ENDBRANCH   1   2
BRANCH   1  24
ATOM     20  C   UNL     1      -0.851  13.729  20.243  0.00  0.00    +0.000 A 
ATOM     21  N   UNL     1      -0.717  14.832  19.486  0.00  0.00    +0.000 NA
ATOM     22  N   UNL     1       0.560  14.818  19.093  0.00  0.00    +0.000 N 
ATOM     23  C   UNL     1       1.260  13.744  19.549  0.00  0.00    +0.000 A 
ATOM     24  C   UNL     1       0.393  13.004  20.329  0.00  0.00    +0.000 A 
ATOM     25  H   UNL     1       0.885  15.570  18.497  0.00  0.00    +0.000 HD
BRANCH  20  32
ATOM     26  O   UNL     1      -7.305  12.434  24.261  0.00  0.00    +0.000 OA
ATOM     27  C   UNL     1      -6.206  12.699  23.789  0.00  0.00    +0.000 C 
ATOM     28  N   UNL     1      -5.258  13.338  24.537  0.00  0.00    +0.000 N 
ATOM     29  C   UNL     1      -3.862  13.348  24.213  0.00  0.00    +0.000 C 
ATOM     30  C   UNL     1      -3.630  13.251  22.749  0.00  0.00    +0.000 A 
ATOM     31  C   UNL     1      -2.392  13.566  22.177  0.00  0.00    +0.000 A 
ATOM     32  C   UNL     1      -2.164  13.381  20.804  0.00  0.00    +0.000 A 
ATOM     33  C   UNL     1      -3.201  12.862  20.015  0.00  0.00    +0.000 A 
ATOM     34  C   UNL     1      -4.444  12.565  20.573  0.00  0.00    +0.000 A 
ATOM     35  C   UNL     1      -4.638  12.755  21.935  0.00  0.00    +0.000 A 
ATOM     36  O   UNL     1      -5.882  12.388  22.468  0.00  0.00    +0.000 OA
ATOM     37  H   UNL     1      -5.534  13.465  25.501  0.00  0.00    +0.000 HD
ENDBRANCH  20  32
ENDBRANCH   1  24
TORSDOF 5
ENDMDL
MODEL 5
REMARK VINA RESULT:      -8.7      5.285     11.275
REMARK  Name = 
REMARK  5 active torsions:
REMARK  status: ('A' for Active; 'I' for Inactive)
REMARK    1  A    between atoms: C_7  and  C_8
REMARK    2  A    between atoms: C_12  and  C_13
REMARK    3  A    between atoms: C_13  and  N_14
REMARK    4  A    between atoms: C_21  and  C_22
REMARK    5  A    between atoms: C_29  and  C_30
REMARK                            x       y       z     vdW  Elec       q    Type
REMARK                         _______ _______ _______ _____ _____    ______ ____
ROOT
ATOM      1  C   UNL     1       1.292  11.429  20.596  0.00  0.00    +0.000 C 
ENDROOT
BRANCH   1   2
ATOM      2  N   UNL     1       0.266  10.512  20.066  0.00  0.00    +0.000 NA
ATOM      3  C   UNL     1       0.421  10.289  18.596  0.00  0.00    +0.000 C 
ATOM      4  C   UNL     1       1.677   9.495  18.145  0.00  0.00    +0.000 C 
ATOM      5  N   UNL     1       1.716   8.218  18.865  0.00  0.00    +0.000 N 
ATOM      6  C   UNL     1       2.622   7.266  18.388  0.00  0.00    +0.000 A 
ATOM      7  C   UNL     1       2.400   5.927  18.714  0.00  0.00    +0.000 A 
ATOM      8  C   UNL     1       3.202   4.927  18.173  0.00  0.00    +0.000 A 
ATOM      9  C   UNL     1       4.236   5.270  17.308  0.00  0.00    +0.000 A 
ATOM     10  C   UNL     1       4.411   6.619  17.052  0.00  0.00    +0.000 A 
ATOM     11  N   UNL     1       3.630   7.611  17.557  0.00  0.00    +0.000 NA
ATOM     12  C   UNL     1       1.647   8.346  20.329  0.00  0.00    +0.000 C 
ATOM     13  C   UNL     1       0.375   9.155  20.725  0.00  0.00    +0.000 C 
BRANCH   9  14
ATOM     14  C   UNL     1       5.098   4.237  16.656  0.00  0.00    +0.000 C 
ATOM     15  F   UNL     1       6.385   4.247  17.109  0.00  0.00    +0.000 F 
ATOM     16  F   UNL     1       4.647   2.970  16.864  0.00  0.00    +0.000 F 
ATOM     17  F   UNL     1       5.181   4.389  15.307  0.00  0.00    +0.000 F 
ENDBRANCH   9  14
BRANCH  13  18
ATOM     18  C   UNL     1       0.234   9.139  22.259  0.00  0.00    +0.000 C 
ATOM     19  F   UNL     1      -0.962   8.602  22.620  0.00  0.00    +0.000 F 
ENDBRANCH  13  18
ENDBRANCH   1   2
BRANCH   1  24
ATOM     20  C   UNL     1       0.023  13.710  20.574  0.00  0.00    +0.000 A 
ATOM     21  N   UNL     1       0.158  14.944  20.060  0.00  0.00    +0.000 NA
ATOM     22  N   UNL     1       1.315  14.908  19.393  0.00  0.00    +0.000 N 
ATOM     23  C   UNL     1       1.933  13.697  19.437  0.00  0.00    +0.000 A 
ATOM     24  C   UNL     1       1.144  12.874  20.217  0.00  0.00    +0.000 A 
ATOM     25  H   UNL     1       1.617  15.748  18.913  0.00  0.00    +0.000 HD
BRANCH  20  32
ATOM     26  O   UNL     1      -6.952  12.192  23.494  0.00  0.00    +0.000 OA
ATOM     27  C   UNL     1      -5.938  12.504  22.879  0.00  0.00    +0.000 C 
ATOM     28  N   UNL     1      -6.010  12.945  21.588  0.00  0.00    +0.000 N 
ATOM     29  C   UNL     1      -4.960  13.672  20.936  0.00  0.00    +0.000 C 
ATOM     30  C   UNL     1      -3.620  13.307  21.462  0.00  0.00    +0.000 A 
ATOM     31  C   UNL     1      -2.446  13.631  20.775  0.00  0.00    +0.000 A 
ATOM     32  C   UNL     1      -1.186  13.359  21.332  0.00  0.00    +0.000 A 
ATOM     33  C   UNL     1      -1.126  12.765  22.601  0.00  0.00    +0.000 A 
ATOM     34  C   UNL     1      -2.292  12.420  23.284  0.00  0.00    +0.000 A 
ATOM     35  C   UNL     1      -3.523  12.705  22.709  0.00  0.00    +0.000 A 
ATOM     36  O   UNL     1      -4.671  12.398  23.454  0.00  0.00    +0.000 OA
ATOM     37  H   UNL     1      -6.959  13.066  21.264  0.00  0.00    +0.000 HD
ENDBRANCH  20  32
ENDBRANCH   1  24
TORSDOF 5
ENDMDL
MODEL 6
REMARK VINA RESULT:      -8.3      4.812      9.563
REMARK  Name = 
REMARK  5 active torsions:
REMARK  status: ('A' for Active; 'I' for Inactive)
REMARK    1  A    between atoms: C_7  and  C_8
REMARK    2  A    between atoms: C_12  and  C_13
REMARK    3  A    between atoms: C_13  and  N_14
REMARK    4  A    between atoms: C_21  and  C_22
REMARK    5  A    between atoms: C_29  and  C_30
REMARK                            x       y       z     vdW  Elec       q    Type
REMARK                         _______ _______ _______ _____ _____    ______ ____
ROOT
ATOM      1  C   UNL     1       0.979  11.506  20.872  0.00  0.00    +0.000 C 
ENDROOT
BRANCH   1   2
ATOM      2  N   UNL     1      -0.014  10.522  20.405  0.00  0.00    +0.000 NA
ATOM      3  C   UNL     1       0.079  10.289  18.931  0.00  0.00    +0.000 C 
ATOM      4  C   UNL     1       1.356   9.568  18.423  0.00  0.00    +0.000 C 
ATOM      5  N   UNL     1       1.512   8.305  19.152  0.00  0.00    +0.000 N 
ATOM      6  C   UNL     1       2.449   7.405  18.638  0.00  0.00    +0.000 A 
ATOM      7  C   UNL     1       2.327   6.059  18.988  0.00  0.00    +0.000 A 
ATOM      8  C   UNL     1       3.162   5.103  18.416  0.00  0.00    +0.000 A 
ATOM      9  C   UNL     1       4.125   5.498  17.494  0.00  0.00    +0.000 A 
ATOM     10  C   UNL     1       4.203   6.852  17.216  0.00  0.00    +0.000 A 
ATOM     11  N   UNL     1       3.389   7.800  17.751  0.00  0.00    +0.000 NA
ATOM     12  C   UNL     1       1.511   8.448  20.617  0.00  0.00    +0.000 C 
ATOM     13  C   UNL     1       0.213   9.182  21.070  0.00  0.00    +0.000 C 
BRANCH   9  14
ATOM     14  C   UNL     1       5.015   4.511  16.807  0.00  0.00    +0.000 C 
ATOM     15  F   UNL     1       5.240   4.812  15.495  0.00  0.00    +0.000 F 
ATOM     16  F   UNL     1       6.248   4.430  17.380  0.00  0.00    +0.000 F 
ATOM     17  F   UNL     1       4.513   3.247  16.815  0.00  0.00    +0.000 F 
ENDBRANCH   9  14
BRANCH  13  18
ATOM     18  C   UNL     1       0.154   9.178  22.610  0.00  0.00    +0.000 C 
ATOM     19  F   UNL     1      -0.950   9.844  23.044  0.00  0.00    +0.000 F 
ENDBRANCH  13  18
ENDBRANCH   1   2
BRANCH   1  24
ATOM     20  C   UNL     1       0.981  14.116  20.939  0.00  0.00    +0.000 A 
ATOM     21  N   UNL     1       0.303  15.119  21.521  0.00  0.00    +0.000 NA
ATOM     22  N   UNL     1      -0.641  14.512  22.247  0.00  0.00    +0.000 N 
ATOM     23  C   UNL     1      -0.596  13.155  22.177  0.00  0.00    +0.000 A 
ATOM     24  C   UNL     1       0.434  12.834  21.314  0.00  0.00    +0.000 A 
ATOM     25  H   UNL     1      -1.276  15.091  22.784  0.00  0.00    +0.000 HD
BRANCH  20  32
ATOM     26  O   UNL     1       7.796  15.489  17.600  0.00  0.00    +0.000 OA
ATOM     27  C   UNL     1       6.810  15.267  18.295  0.00  0.00    +0.000 C 
ATOM     28  N   UNL     1       6.942  14.980  19.624  0.00  0.00    +0.000 N 
ATOM     29  C   UNL     1       5.870  15.081  20.570  0.00  0.00    +0.000 C 
ATOM     30  C   UNL     1       4.548  14.830  19.941  0.00  0.00    +0.000 A 
ATOM     31  C   UNL     1       3.409  14.554  20.706  0.00  0.00    +0.000 A 
ATOM     32  C   UNL     1       2.150  14.411  20.100  0.00  0.00    +0.000 A 
ATOM     33  C   UNL     1       2.054  14.561  18.709  0.00  0.00    +0.000 A 
ATOM     34  C   UNL     1       3.187  14.815  17.937  0.00  0.00    +0.000 A 
ATOM     35  C   UNL     1       4.417  14.956  18.566  0.00  0.00    +0.000 A 
ATOM     36  O   UNL     1       5.521  15.271  17.761  0.00  0.00    +0.000 OA
ATOM     37  H   UNL     1       7.893  15.067  19.956  0.00  0.00    +0.000 HD
ENDBRANCH  20  32
ENDBRANCH   1  24
TORSDOF 5
ENDMDL
MODEL 7
REMARK VINA RESULT:      -8.2      4.476      9.995
REMARK  Name = 
REMARK  5 active torsions:
REMARK  status: ('A' for Active; 'I' for Inactive)
REMARK    1  A    between atoms: C_7  and  C_8
REMARK    2  A    between atoms: C_12  and  C_13
REMARK    3  A    between atoms: C_13  and  N_14
REMARK    4  A    between atoms: C_21  and  C_22
REMARK    5  A    between atoms: C_29  and  C_30
REMARK                            x       y       z     vdW  Elec       q    Type
REMARK                         _______ _______ _______ _____ _____    ______ ____
ROOT
ATOM      1  C   UNL     1      -0.727  10.620  21.481  0.00  0.00    +0.000 C 
ENDROOT
BRANCH   1   2
ATOM      2  N   UNL     1       0.739  10.754  21.561  0.00  0.00    +0.000 NA
ATOM      3  C   UNL     1       1.374   9.575  22.227  0.00  0.00    +0.000 C 
ATOM      4  C   UNL     1       1.320   8.231  21.453  0.00  0.00    +0.000 C 
ATOM      5  N   UNL     1       1.886   8.430  20.114  0.00  0.00    +0.000 N 
ATOM      6  C   UNL     1       2.166   7.273  19.383  0.00  0.00    +0.000 A 
ATOM      7  C   UNL     1       3.090   7.363  18.340  0.00  0.00    +0.000 A 
ATOM      8  C   UNL     1       3.491   6.221  17.653  0.00  0.00    +0.000 A 
ATOM      9  C   UNL     1       2.961   4.985  18.008  0.00  0.00    +0.000 A 
ATOM     10  C   UNL     1       2.032   4.978  19.034  0.00  0.00    +0.000 A 
ATOM     11  N   UNL     1       1.637   6.079  19.728  0.00  0.00    +0.000 NA
ATOM     12  C   UNL     1       1.266   9.525  19.352  0.00  0.00    +0.000 C 
ATOM     13  C   UNL     1       1.341  10.845  20.177  0.00  0.00    +0.000 C 
BRANCH   9  14
ATOM     14  C   UNL     1       3.392   3.718  17.341  0.00  0.00    +0.000 C 
ATOM     15  F   UNL     1       4.103   2.893  18.164  0.00  0.00    +0.000 F 
ATOM     16  F   UNL     1       2.341   2.975  16.898  0.00  0.00    +0.000 F 
ATOM     17  F   UNL     1       4.186   3.931  16.257  0.00  0.00    +0.000 F 
ENDBRANCH   9  14
BRANCH  13  18
ATOM     18  C   UNL     1       0.835  12.007  19.299  0.00  0.00    +0.000 C 
ATOM     19  F   UNL     1       1.006  13.195  19.940  0.00  0.00    +0.000 F 
ENDBRANCH  13  18
ENDBRANCH   1   2
BRANCH   1  24
ATOM     20  C   UNL     1      -2.590  12.425  21.194  0.00  0.00    +0.000 A 
ATOM     21  N   UNL     1      -3.088  13.486  21.851  0.00  0.00    +0.000 NA
ATOM     22  N   UNL     1      -2.371  13.555  22.976  0.00  0.00    +0.000 N 
ATOM     23  C   UNL     1      -1.416  12.592  23.074  0.00  0.00    +0.000 A 
ATOM     24  C   UNL     1      -1.525  11.805  21.944  0.00  0.00    +0.000 A 
ATOM     25  H   UNL     1      -2.578  14.300  23.631  0.00  0.00    +0.000 HD
BRANCH  20  32
ATOM     26  O   UNL     1      -4.218   9.936  14.079  0.00  0.00    +0.000 OA
ATOM     27  C   UNL     1      -3.788  10.251  15.183  0.00  0.00    +0.000 C 
ATOM     28  N   UNL     1      -2.586   9.778  15.626  0.00  0.00    +0.000 N 
ATOM     29  C   UNL     1      -1.845  10.371  16.700  0.00  0.00    +0.000 C 
ATOM     30  C   UNL     1      -2.733  11.025  17.695  0.00  0.00    +0.000 A 
ATOM     31  C   UNL     1      -2.278  11.378  18.969  0.00  0.00    +0.000 A 
ATOM     32  C   UNL     1      -3.105  12.079  19.863  0.00  0.00    +0.000 A 
ATOM     33  C   UNL     1      -4.398  12.429  19.446  0.00  0.00    +0.000 A 
ATOM     34  C   UNL     1      -4.867  12.063  18.185  0.00  0.00    +0.000 A 
ATOM     35  C   UNL     1      -4.024  11.374  17.323  0.00  0.00    +0.000 A 
ATOM     36  O   UNL     1      -4.512  11.078  16.042  0.00  0.00    +0.000 OA
ATOM     37  H   UNL     1      -2.086   9.248  14.926  0.00  0.00    +0.000 HD
ENDBRANCH  20  32
ENDBRANCH   1  24
TORSDOF 5
ENDMDL
MODEL 8
REMARK VINA RESULT:      -8.2      5.850     12.009
REMARK  Name = 
REMARK  5 active torsions:
REMARK  status: ('A' for Active; 'I' for Inactive)
REMARK    1  A    between atoms: C_7  and  C_8
REMARK    2  A    between atoms: C_12  and  C_13
REMARK    3  A    between atoms: C_13  and  N_14
REMARK    4  A    between atoms: C_21  and  C_22
REMARK    5  A    between atoms: C_29  and  C_30
REMARK                            x       y       z     vdW  Elec       q    Type
REMARK                         _______ _______ _______ _____ _____    ______ ____
ROOT
ATOM      1  C   UNL     1      -2.744  11.916  21.935  0.00  0.00    +0.000 C 
ENDROOT
BRANCH   1   2
ATOM      2  N   UNL     1      -1.681  12.682  21.260  0.00  0.00    +0.000 NA
ATOM      3  C   UNL     1      -0.328  12.367  21.812  0.00  0.00    +0.000 C 
ATOM      4  C   UNL     1       0.220  10.942  21.534  0.00  0.00    +0.000 C 
ATOM      5  N   UNL     1       0.186  10.693  20.089  0.00  0.00    +0.000 N 
ATOM      6  C   UNL     1       0.890   9.574  19.637  0.00  0.00    +0.000 A 
ATOM      7  C   UNL     1       1.271   9.535  18.294  0.00  0.00    +0.000 A 
ATOM      8  C   UNL     1       2.070   8.501  17.817  0.00  0.00    +0.000 A 
ATOM      9  C   UNL     1       2.484   7.497  18.687  0.00  0.00    +0.000 A 
ATOM     10  C   UNL     1       2.046   7.589  19.996  0.00  0.00    +0.000 A 
ATOM     11  N   UNL     1       1.277   8.597  20.487  0.00  0.00    +0.000 NA
ATOM     12  C   UNL     1      -1.133  10.903  19.470  0.00  0.00    +0.000 C 
ATOM     13  C   UNL     1      -1.637  12.343  19.786  0.00  0.00    +0.000 C 
BRANCH   9  14
ATOM     14  C   UNL     1       3.385   6.389  18.244  0.00  0.00    +0.000 C 
ATOM     15  F   UNL     1       2.720   5.364  17.637  0.00  0.00    +0.000 F 
ATOM     16  F   UNL     1       4.321   6.801  17.345  0.00  0.00    +0.000 F 
ATOM     17  F   UNL     1       4.075   5.823  19.271  0.00  0.00    +0.000 F 
ENDBRANCH   9  14
BRANCH  13  18
ATOM     18  C   UNL     1      -2.936  12.598  18.999  0.00  0.00    +0.000 C 
ATOM     19  F   UNL     1      -3.247  11.517  18.233  0.00  0.00    +0.000 F 
ENDBRANCH  13  18
ENDBRANCH   1   2
BRANCH   1  24
ATOM     20  C   UNL     1      -4.871  13.320  22.501  0.00  0.00    +0.000 A 
ATOM     21  N   UNL     1      -5.411  13.974  23.543  0.00  0.00    +0.000 NA
ATOM     22  N   UNL     1      -4.548  13.783  24.545  0.00  0.00    +0.000 N 
ATOM     23  C   UNL     1      -3.460  13.046  24.197  0.00  0.00    +0.000 A 
ATOM     24  C   UNL     1      -3.625  12.693  22.871  0.00  0.00    +0.000 A 
ATOM     25  H   UNL     1      -4.758  14.202  25.444  0.00  0.00    +0.000 HD
BRANCH  20  32
ATOM     26  O   UNL     1      -7.874  14.745  15.542  0.00  0.00    +0.000 OA
ATOM     27  C   UNL     1      -7.350  14.704  16.649  0.00  0.00    +0.000 C 
ATOM     28  N   UNL     1      -6.665  15.780  17.139  0.00  0.00    +0.000 N 
ATOM     29  C   UNL     1      -6.357  15.961  18.528  0.00  0.00    +0.000 C 
ATOM     30  C   UNL     1      -6.198  14.666  19.236  0.00  0.00    +0.000 A 
ATOM     31  C   UNL     1      -5.586  14.583  20.492  0.00  0.00    +0.000 A 
ATOM     32  C   UNL     1      -5.527  13.365  21.187  0.00  0.00    +0.000 A 
ATOM     33  C   UNL     1      -6.107  12.229  20.602  0.00  0.00    +0.000 A 
ATOM     34  C   UNL     1      -6.700  12.298  19.341  0.00  0.00    +0.000 A 
ATOM     35  C   UNL     1      -6.746  13.518  18.681  0.00  0.00    +0.000 A 
ATOM     36  O   UNL     1      -7.404  13.558  17.444  0.00  0.00    +0.000 OA
ATOM     37  H   UNL     1      -6.730  16.594  16.545  0.00  0.00    +0.000 HD
ENDBRANCH  20  32
ENDBRANCH   1  24
TORSDOF 5
ENDMDL
MODEL 9
REMARK VINA RESULT:      -8.1      4.907      9.543
REMARK  Name = 
REMARK  5 active torsions:
REMARK  status: ('A' for Active; 'I' for Inactive)
REMARK    1  A    between atoms: C_7  and  C_8
REMARK    2  A    between atoms: C_12  and  C_13
REMARK    3  A    between atoms: C_13  and  N_14
REMARK    4  A    between atoms: C_21  and  C_22
REMARK    5  A    between atoms: C_29  and  C_30
REMARK                            x       y       z     vdW  Elec       q    Type
REMARK                         _______ _______ _______ _____ _____    ______ ____
ROOT
ATOM      1  C   UNL     1       0.692  11.770  20.219  0.00  0.00    +0.000 C 
ENDROOT
BRANCH   1   2
ATOM      2  N   UNL     1      -0.209  10.636  19.945  0.00  0.00    +0.000 NA
ATOM      3  C   UNL     1      -0.109  10.171  18.527  0.00  0.00    +0.000 C 
ATOM      4  C   UNL     1       1.225   9.496  18.112  0.00  0.00    +0.000 C 
ATOM      5  N   UNL     1       1.506   8.390  19.034  0.00  0.00    +0.000 N 
ATOM      6  C   UNL     1       2.517   7.506  18.651  0.00  0.00    +0.000 A 
ATOM      7  C   UNL     1       2.526   6.231  19.220  0.00  0.00    +0.000 A 
ATOM      8  C   UNL     1       3.441   5.274  18.792  0.00  0.00    +0.000 A 
ATOM      9  C   UNL     1       4.354   5.596  17.794  0.00  0.00    +0.000 A 
ATOM     10  C   UNL     1       4.302   6.886  17.296  0.00  0.00    +0.000 A 
ATOM     11  N   UNL     1       3.408   7.833  17.689  0.00  0.00    +0.000 NA
ATOM     12  C   UNL     1       1.505   8.773  20.455  0.00  0.00    +0.000 C 
ATOM     13  C   UNL     1       0.149   9.451  20.815  0.00  0.00    +0.000 C 
BRANCH   9  14
ATOM     14  C   UNL     1       5.326   4.594  17.256  0.00  0.00    +0.000 C 
ATOM     15  F   UNL     1       6.350   4.323  18.117  0.00  0.00    +0.000 F 
ATOM     16  F   UNL     1       4.745   3.392  16.988  0.00  0.00    +0.000 F 
ATOM     17  F   UNL     1       5.915   4.994  16.097  0.00  0.00    +0.000 F 
ENDBRANCH   9  14
BRANCH  13  18
ATOM     18  C   UNL     1       0.105   9.696  22.335  0.00  0.00    +0.000 C 
ATOM     19  F   UNL     1      -0.918   8.999  22.899  0.00  0.00    +0.000 F 
ENDBRANCH  13  18
ENDBRANCH   1   2
BRANCH   1  24
ATOM     20  C   UNL     1       0.928  14.341  19.834  0.00  0.00    +0.000 A 
ATOM     21  N   UNL     1       0.149  15.411  19.603  0.00  0.00    +0.000 NA
ATOM     22  N   UNL     1      -1.093  14.921  19.556  0.00  0.00    +0.000 N 
ATOM     23  C   UNL     1      -1.159  13.578  19.763  0.00  0.00    +0.000 A 
ATOM     24  C   UNL     1       0.140  13.136  19.929  0.00  0.00    +0.000 A 
ATOM     25  H   UNL     1      -1.857  15.567  19.394  0.00  0.00    +0.000 HD
BRANCH  20  32
ATOM     26  O   UNL     1       8.559  15.401  19.498  0.00  0.00    +0.000 OA
ATOM     27  C   UNL     1       7.353  15.233  19.360  0.00  0.00    +0.000 C 
ATOM     28  N   UNL     1       6.772  15.310  18.126  0.00  0.00    +0.000 N 
ATOM     29  C   UNL     1       5.481  14.768  17.820  0.00  0.00    +0.000 C 
ATOM     30  C   UNL     1       4.582  14.770  19.002  0.00  0.00    +0.000 A 
ATOM     31  C   UNL     1       3.199  14.601  18.876  0.00  0.00    +0.000 A 
ATOM     32  C   UNL     1       2.376  14.513  20.011  0.00  0.00    +0.000 A 
ATOM     33  C   UNL     1       2.971  14.587  21.279  0.00  0.00    +0.000 A 
ATOM     34  C   UNL     1       4.347  14.777  21.413  0.00  0.00    +0.000 A 
ATOM     35  C   UNL     1       5.134  14.856  20.272  0.00  0.00    +0.000 A 
ATOM     36  O   UNL     1       6.518  14.985  20.451  0.00  0.00    +0.000 OA
ATOM     37  H   UNL     1       7.444  15.418  17.379  0.00  0.00    +0.000 HD
ENDBRANCH  20  32
ENDBRANCH   1  24
TORSDOF 5
ENDMDL
