MODEL 1
REMARK VINA RESULT:      -6.8      0.000      0.000
REMARK  Name = 
REMARK  4 active torsions:
REMARK  status: ('A' for Active; 'I' for Inactive)
REMARK    1  A    between atoms: O_1  and  C_2
REMARK    2  A    between atoms: C_8  and  O_9
REMARK    3  A    between atoms: O_9  and  C_10
REMARK    4  A    between atoms: C_16  and  O_17
REMARK                            x       y       z     vdW  Elec       q    Type
REMARK                         _______ _______ _______ _____ _____    ______ ____
ROOT
ATOM      1  O   UNL     1       5.209   3.456  19.275  0.00  0.00    +0.000 OA
ENDROOT
BRANCH   1   8
ATOM      2  C   UNL     1       6.791   5.295  18.766  0.00  0.00    +0.000 A 
ATOM      3  C   UNL     1       7.373   6.104  17.784  0.00  0.00    +0.000 A 
ATOM      4  C   UNL     1       7.100   5.862  16.437  0.00  0.00    +0.000 A 
ATOM      5  C   UNL     1       6.265   4.806  16.081  0.00  0.00    +0.000 A 
ATOM      6 BR   UNL     1       5.961   4.434  14.251  0.00  0.00    +0.000 Br
ATOM      7  C   UNL     1       5.660   4.017  17.056  0.00  0.00    +0.000 A 
ATOM      8  C   UNL     1       5.888   4.285  18.412  0.00  0.00    +0.000 A 
BRANCH   2   9
ATOM      9  O   UNL     1       7.135   5.506  20.072  0.00  0.00    +0.000 OA
ATOM     10  H   UNL     1       6.403   5.966  20.511  0.00  0.00    +0.000 HD
ENDBRANCH   2   9
ENDBRANCH   1   8
BRANCH   1  11
ATOM     11  C   UNL     1       3.838   3.519  19.381  0.00  0.00    +0.000 A 
ATOM     12  C   UNL     1       3.358   4.715  19.928  0.00  0.00    +0.000 A 
ATOM     13  C   UNL     1       1.986   4.916  20.066  0.00  0.00    +0.000 A 
ATOM     14 BR   UNL     1       1.344   6.526  20.821  0.00  0.00    +0.000 Br
ATOM     15  C   UNL     1       1.083   3.938  19.657  0.00  0.00    +0.000 A 
ATOM     16  C   UNL     1       1.556   2.724  19.157  0.00  0.00    +0.000 A 
ATOM     17  C   UNL     1       2.931   2.502  19.056  0.00  0.00    +0.000 A 
BRANCH  17  18
ATOM     18  O   UNL     1       3.372   1.273  18.647  0.00  0.00    +0.000 OA
ATOM     19  H   UNL     1       3.745   1.348  17.755  0.00  0.00    +0.000 HD
ENDBRANCH  17  18
ENDBRANCH   1  11
TORSDOF 4
ENDMDL
MODEL 2
REMARK VINA RESULT:      -6.7      0.131      5.702
REMARK  Name = 
REMARK  4 active torsions:
REMARK  status: ('A' for Active; 'I' for Inactive)
REMARK    1  A    between atoms: O_1  and  C_2
REMARK    2  A    between atoms: C_8  and  O_9
REMARK    3  A    between atoms: O_9  and  C_10
REMARK    4  A    between atoms: C_16  and  O_17
REMARK                            x       y       z     vdW  Elec       q    Type
REMARK                         _______ _______ _______ _____ _____    ______ ____
ROOT
ATOM      1  O   UNL     1       5.158   3.497  19.298  0.00  0.00    +0.000 OA
ENDROOT
BRANCH   1   8
ATOM      2  C   UNL     1       2.858   2.584  19.151  0.00  0.00    +0.000 A 
ATOM      3  C   UNL     1       1.487   2.831  19.283  0.00  0.00    +0.000 A 
ATOM      4  C   UNL     1       1.049   4.068  19.759  0.00  0.00    +0.000 A 
ATOM      5  C   UNL     1       1.981   5.038  20.116  0.00  0.00    +0.000 A 
ATOM      6 BR   UNL     1       1.384   6.684  20.835  0.00  0.00    +0.000 Br
ATOM      7  C   UNL     1       3.345   4.808  19.958  0.00  0.00    +0.000 A 
ATOM      8  C   UNL     1       3.792   3.589  19.433  0.00  0.00    +0.000 A 
BRANCH   2   9
ATOM      9  O   UNL     1       3.261   1.339  18.755  0.00  0.00    +0.000 OA
ATOM     10  H   UNL     1       3.016   0.704  19.447  0.00  0.00    +0.000 HD
ENDBRANCH   2   9
ENDBRANCH   1   8
BRANCH   1  11
ATOM     11  C   UNL     1       5.833   4.294  18.402  0.00  0.00    +0.000 A 
ATOM     12  C   UNL     1       5.543   4.023  17.059  0.00  0.00    +0.000 A 
ATOM     13  C   UNL     1       6.142   4.778  16.052  0.00  0.00    +0.000 A 
ATOM     14 BR   UNL     1       5.760   4.396  14.240  0.00  0.00    +0.000 Br
ATOM     15  C   UNL     1       7.023   5.808  16.369  0.00  0.00    +0.000 A 
ATOM     16  C   UNL     1       7.354   6.051  17.703  0.00  0.00    +0.000 A 
ATOM     17  C   UNL     1       6.789   5.270  18.714  0.00  0.00    +0.000 A 
BRANCH  17  18
ATOM     18  O   UNL     1       7.196   5.467  20.005  0.00  0.00    +0.000 OA
ATOM     19  H   UNL     1       7.981   6.037  20.008  0.00  0.00    +0.000 HD
ENDBRANCH  17  18
ENDBRANCH   1  11
TORSDOF 4
ENDMDL
MODEL 3
REMARK VINA RESULT:      -6.5      1.762      5.401
REMARK  Name = 
REMARK  4 active torsions:
REMARK  status: ('A' for Active; 'I' for Inactive)
REMARK    1  A    between atoms: O_1  and  C_2
REMARK    2  A    between atoms: C_8  and  O_9
REMARK    3  A    between atoms: O_9  and  C_10
REMARK    4  A    between atoms: C_16  and  O_17
REMARK                            x       y       z     vdW  Elec       q    Type
REMARK                         _______ _______ _______ _____ _____    ______ ____
ROOT
ATOM      1  O   UNL     1       3.810   3.764  18.018  0.00  0.00    +0.000 OA
ENDROOT
BRANCH   1   8
ATOM      2  C   UNL     1       2.692   4.581  20.074  0.00  0.00    +0.000 A 
ATOM      3  C   UNL     1       1.999   5.624  20.698  0.00  0.00    +0.000 A 
ATOM      4  C   UNL     1       1.829   6.838  20.031  0.00  0.00    +0.000 A 
ATOM      5  C   UNL     1       2.367   7.006  18.758  0.00  0.00    +0.000 A 
ATOM      6 BR   UNL     1       2.202   8.680  17.890  0.00  0.00    +0.000 Br
ATOM      7  C   UNL     1       3.032   5.961  18.122  0.00  0.00    +0.000 A 
ATOM      8  C   UNL     1       3.162   4.723  18.763  0.00  0.00    +0.000 A 
BRANCH   2   9
ATOM      9  O   UNL     1       2.910   3.429  20.780  0.00  0.00    +0.000 OA
ATOM     10  H   UNL     1       3.736   3.528  21.278  0.00  0.00    +0.000 HD
ENDBRANCH   2   9
ENDBRANCH   1   8
BRANCH   1  11
ATOM     11  C   UNL     1       5.001   4.046  17.389  0.00  0.00    +0.000 A 
ATOM     12  C   UNL     1       4.976   3.866  16.002  0.00  0.00    +0.000 A 
ATOM     13  C   UNL     1       6.111   4.143  15.243  0.00  0.00    +0.000 A 
ATOM     14 BR   UNL     1       6.076   3.881  13.370  0.00  0.00    +0.000 Br
ATOM     15  C   UNL     1       7.275   4.605  15.852  0.00  0.00    +0.000 A 
ATOM     16  C   UNL     1       7.322   4.740  17.241  0.00  0.00    +0.000 A 
ATOM     17  C   UNL     1       6.199   4.424  18.010  0.00  0.00    +0.000 A 
BRANCH  17  18
ATOM     18  O   UNL     1       6.298   4.479  19.373  0.00  0.00    +0.000 OA
ATOM     19  H   UNL     1       5.520   4.053  19.766  0.00  0.00    +0.000 HD
ENDBRANCH  17  18
ENDBRANCH   1  11
TORSDOF 4
ENDMDL
MODEL 4
REMARK VINA RESULT:      -6.5      1.725      2.103
REMARK  Name = 
REMARK  4 active torsions:
REMARK  status: ('A' for Active; 'I' for Inactive)
REMARK    1  A    between atoms: O_1  and  C_2
REMARK    2  A    between atoms: C_8  and  O_9
REMARK    3  A    between atoms: O_9  and  C_10
REMARK    4  A    between atoms: C_16  and  O_17
REMARK                            x       y       z     vdW  Elec       q    Type
REMARK                         _______ _______ _______ _____ _____    ______ ____
ROOT
ATOM      1  O   UNL     1       3.835   3.693  17.920  0.00  0.00    +0.000 OA
ENDROOT
BRANCH   1   8
ATOM      2  C   UNL     1       6.205   4.420  17.921  0.00  0.00    +0.000 A 
ATOM      3  C   UNL     1       7.329   4.757  17.159  0.00  0.00    +0.000 A 
ATOM      4  C   UNL     1       7.291   4.620  15.771  0.00  0.00    +0.000 A 
ATOM      5  C   UNL     1       6.141   4.129  15.158  0.00  0.00    +0.000 A 
ATOM      6 BR   UNL     1       6.123   3.870  13.283  0.00  0.00    +0.000 Br
ATOM      7  C   UNL     1       5.010   3.820  15.909  0.00  0.00    +0.000 A 
ATOM      8  C   UNL     1       5.022   4.004  17.297  0.00  0.00    +0.000 A 
BRANCH   2   9
ATOM      9  O   UNL     1       6.295   4.492  19.284  0.00  0.00    +0.000 OA
ATOM     10  H   UNL     1       5.520   4.970  19.616  0.00  0.00    +0.000 HD
ENDBRANCH   2   9
ENDBRANCH   1   8
BRANCH   1  11
ATOM     11  C   UNL     1       3.187   4.618  18.705  0.00  0.00    +0.000 A 
ATOM     12  C   UNL     1       3.049   5.879  18.113  0.00  0.00    +0.000 A 
ATOM     13  C   UNL     1       2.388   6.899  18.793  0.00  0.00    +0.000 A 
ATOM     14 BR   UNL     1       2.220   8.606  17.995  0.00  0.00    +0.000 Br
ATOM     15  C   UNL     1       1.854   6.675  20.059  0.00  0.00    +0.000 A 
ATOM     16  C   UNL     1       2.030   5.436  20.676  0.00  0.00    +0.000 A 
ATOM     17  C   UNL     1       2.728   4.423  20.015  0.00  0.00    +0.000 A 
BRANCH  17  18
ATOM     18  O   UNL     1       2.966   3.248  20.673  0.00  0.00    +0.000 OA
ATOM     19  H   UNL     1       3.653   3.391  21.343  0.00  0.00    +0.000 HD
ENDBRANCH  17  18
ENDBRANCH   1  11
TORSDOF 4
ENDMDL
MODEL 5
REMARK VINA RESULT:      -6.4      2.218      5.604
REMARK  Name = 
REMARK  4 active torsions:
REMARK  status: ('A' for Active; 'I' for Inactive)
REMARK    1  A    between atoms: O_1  and  C_2
REMARK    2  A    between atoms: C_8  and  O_9
REMARK    3  A    between atoms: O_9  and  C_10
REMARK    4  A    between atoms: C_16  and  O_17
REMARK                            x       y       z     vdW  Elec       q    Type
REMARK                         _______ _______ _______ _____ _____    ______ ____
ROOT
ATOM      1  O   UNL     1       3.686   6.226  17.795  0.00  0.00    +0.000 OA
ENDROOT
BRANCH   1   8
ATOM      2  C   UNL     1       2.318   6.231  19.862  0.00  0.00    +0.000 A 
ATOM      3  C   UNL     1       1.494   5.501  20.725  0.00  0.00    +0.000 A 
ATOM      4  C   UNL     1       1.127   4.196  20.394  0.00  0.00    +0.000 A 
ATOM      5  C   UNL     1       1.569   3.639  19.197  0.00  0.00    +0.000 A 
ATOM      6 BR   UNL     1       1.004   1.898  18.714  0.00  0.00    +0.000 Br
ATOM      7  C   UNL     1       2.414   4.351  18.349  0.00  0.00    +0.000 A 
ATOM      8  C   UNL     1       2.828   5.642  18.699  0.00  0.00    +0.000 A 
BRANCH   2   9
ATOM      9  O   UNL     1       2.599   7.532  20.175  0.00  0.00    +0.000 OA
ATOM     10  H   UNL     1       1.992   7.817  20.875  0.00  0.00    +0.000 HD
ENDBRANCH   2   9
ENDBRANCH   1   8
BRANCH   1  11
ATOM     11  C   UNL     1       4.873   5.619  17.455  0.00  0.00    +0.000 A 
ATOM     12  C   UNL     1       4.952   5.217  16.117  0.00  0.00    +0.000 A 
ATOM     13  C   UNL     1       6.112   4.612  15.639  0.00  0.00    +0.000 A 
ATOM     14 BR   UNL     1       6.206   4.055  13.834  0.00  0.00    +0.000 Br
ATOM     15  C   UNL     1       7.203   4.409  16.480  0.00  0.00    +0.000 A 
ATOM     16  C   UNL     1       7.113   4.762  17.828  0.00  0.00    +0.000 A 
ATOM     17  C   UNL     1       5.936   5.331  18.321  0.00  0.00    +0.000 A 
BRANCH  17  18
ATOM     18  O   UNL     1       5.840   5.587  19.661  0.00  0.00    +0.000 OA
ATOM     19  H   UNL     1       4.919   5.801  19.879  0.00  0.00    +0.000 HD
ENDBRANCH  17  18
ENDBRANCH   1  11
TORSDOF 4
ENDMDL
MODEL 6
REMARK VINA RESULT:      -6.4      2.216      2.781
REMARK  Name = 
REMARK  4 active torsions:
REMARK  status: ('A' for Active; 'I' for Inactive)
REMARK    1  A    between atoms: O_1  and  C_2
REMARK    2  A    between atoms: C_8  and  O_9
REMARK    3  A    between atoms: O_9  and  C_10
REMARK    4  A    between atoms: C_16  and  O_17
REMARK                            x       y       z     vdW  Elec       q    Type
REMARK                         _______ _______ _______ _____ _____    ______ ____
ROOT
ATOM      1  O   UNL     1       3.766   6.261  17.859  0.00  0.00    +0.000 OA
ENDROOT
BRANCH   1   8
ATOM      2  C   UNL     1       6.014   5.331  18.334  0.00  0.00    +0.000 A 
ATOM      3  C   UNL     1       7.171   4.738  17.819  0.00  0.00    +0.000 A 
ATOM      4  C   UNL     1       7.228   4.390  16.469  0.00  0.00    +0.000 A 
ATOM      5  C   UNL     1       6.125   4.618  15.651  0.00  0.00    +0.000 A 
ATOM      6 BR   UNL     1       6.179   4.072  13.839  0.00  0.00    +0.000 Br
ATOM      7  C   UNL     1       4.982   5.236  16.153  0.00  0.00    +0.000 A 
ATOM      8  C   UNL     1       4.936   5.635  17.494  0.00  0.00    +0.000 A 
BRANCH   2   9
ATOM      9  O   UNL     1       5.957   5.592  19.676  0.00  0.00    +0.000 OA
ATOM     10  H   UNL     1       6.864   5.667  20.011  0.00  0.00    +0.000 HD
ENDBRANCH   2   9
ENDBRANCH   1   8
BRANCH   1  11
ATOM     11  C   UNL     1       2.889   5.661  18.733  0.00  0.00    +0.000 A 
ATOM     12  C   UNL     1       2.522   4.358  18.377  0.00  0.00    +0.000 A 
ATOM     13  C   UNL     1       1.658   3.631  19.193  0.00  0.00    +0.000 A 
ATOM     14 BR   UNL     1       1.152   1.877  18.698  0.00  0.00    +0.000 Br
ATOM     15  C   UNL     1       1.159   4.186  20.369  0.00  0.00    +0.000 A 
ATOM     16  C   UNL     1       1.482   5.502  20.704  0.00  0.00    +0.000 A 
ATOM     17  C   UNL     1       2.314   6.249  19.868  0.00  0.00    +0.000 A 
BRANCH  17  18
ATOM     18  O   UNL     1       2.544   7.563  20.171  0.00  0.00    +0.000 OA
ATOM     19  H   UNL     1       3.450   7.659  20.503  0.00  0.00    +0.000 HD
ENDBRANCH  17  18
ENDBRANCH   1  11
TORSDOF 4
ENDMDL
MODEL 7
REMARK VINA RESULT:      -6.4      1.651      2.199
REMARK  Name = 
REMARK  4 active torsions:
REMARK  status: ('A' for Active; 'I' for Inactive)
REMARK    1  A    between atoms: O_1  and  C_2
REMARK    2  A    between atoms: C_8  and  O_9
REMARK    3  A    between atoms: O_9  and  C_10
REMARK    4  A    between atoms: C_16  and  O_17
REMARK                            x       y       z     vdW  Elec       q    Type
REMARK                         _______ _______ _______ _____ _____    ______ ____
ROOT
ATOM      1  O   UNL     1       5.644   3.878  19.045  0.00  0.00    +0.000 OA
ENDROOT
BRANCH   1   8
ATOM      2  C   UNL     1       6.191   4.165  16.644  0.00  0.00    +0.000 A 
ATOM      3  C   UNL     1       6.807   4.955  15.667  0.00  0.00    +0.000 A 
ATOM      4  C   UNL     1       7.348   6.192  16.018  0.00  0.00    +0.000 A 
ATOM      5  C   UNL     1       7.254   6.638  17.333  0.00  0.00    +0.000 A 
ATOM      6 BR   UNL     1       7.920   8.351  17.786  0.00  0.00    +0.000 Br
ATOM      7  C   UNL     1       6.668   5.843  18.315  0.00  0.00    +0.000 A 
ATOM      8  C   UNL     1       6.168   4.577  17.982  0.00  0.00    +0.000 A 
BRANCH   2   9
ATOM      9  O   UNL     1       5.602   2.992  16.259  0.00  0.00    +0.000 OA
ATOM     10  H   UNL     1       6.139   2.598  15.554  0.00  0.00    +0.000 HD
ENDBRANCH   2   9
ENDBRANCH   1   8
BRANCH   1  11
ATOM     11  C   UNL     1       4.283   3.754  19.205  0.00  0.00    +0.000 A 
ATOM     12  C   UNL     1       3.663   4.884  19.751  0.00  0.00    +0.000 A 
ATOM     13  C   UNL     1       2.283   4.898  19.941  0.00  0.00    +0.000 A 
ATOM     14 BR   UNL     1       1.453   6.420  20.695  0.00  0.00    +0.000 Br
ATOM     15  C   UNL     1       1.509   3.796  19.584  0.00  0.00    +0.000 A 
ATOM     16  C   UNL     1       2.126   2.648  19.086  0.00  0.00    +0.000 A 
ATOM     17  C   UNL     1       3.514   2.615  18.933  0.00  0.00    +0.000 A 
BRANCH  17  18
ATOM     18  O   UNL     1       4.105   1.450  18.527  0.00  0.00    +0.000 OA
ATOM     19  H   UNL     1       3.882   1.287  17.597  0.00  0.00    +0.000 HD
ENDBRANCH  17  18
ENDBRANCH   1  11
TORSDOF 4
ENDMDL
MODEL 8
REMARK VINA RESULT:      -6.2      2.081      5.979
REMARK  Name = 
REMARK  4 active torsions:
REMARK  status: ('A' for Active; 'I' for Inactive)
REMARK    1  A    between atoms: O_1  and  C_2
REMARK    2  A    between atoms: C_8  and  O_9
REMARK    3  A    between atoms: O_9  and  C_10
REMARK    4  A    between atoms: C_16  and  O_17
REMARK                            x       y       z     vdW  Elec       q    Type
REMARK                         _______ _______ _______ _____ _____    ______ ____
ROOT
ATOM      1  O   UNL     1       5.242   3.488  17.242  0.00  0.00    +0.000 OA
ENDROOT
BRANCH   1   8
ATOM      2  C   UNL     1       2.835   3.124  17.707  0.00  0.00    +0.000 A 
ATOM      3  C   UNL     1       1.585   3.705  17.949  0.00  0.00    +0.000 A 
ATOM      4  C   UNL     1       1.480   5.090  18.080  0.00  0.00    +0.000 A 
ATOM      5  C   UNL     1       2.623   5.880  17.987  0.00  0.00    +0.000 A 
ATOM      6 BR   UNL     1       2.486   7.751  18.243  0.00  0.00    +0.000 Br
ATOM      7  C   UNL     1       3.863   5.309  17.717  0.00  0.00    +0.000 A 
ATOM      8  C   UNL     1       3.970   3.924  17.534  0.00  0.00    +0.000 A 
BRANCH   2   9
ATOM      9  O   UNL     1       2.921   1.760  17.660  0.00  0.00    +0.000 OA
ATOM     10  H   UNL     1       2.048   1.406  17.426  0.00  0.00    +0.000 HD
ENDBRANCH   2   9
ENDBRANCH   1   8
BRANCH   1  11
ATOM     11  C   UNL     1       5.907   3.949  16.129  0.00  0.00    +0.000 A 
ATOM     12  C   UNL     1       5.388   3.485  14.915  0.00  0.00    +0.000 A 
ATOM     13  C   UNL     1       5.956   3.898  13.712  0.00  0.00    +0.000 A 
ATOM     14 BR   UNL     1       5.261   3.254  12.075  0.00  0.00    +0.000 Br
ATOM     15  C   UNL     1       7.035   4.778  13.703  0.00  0.00    +0.000 A 
ATOM     16  C   UNL     1       7.589   5.205  14.911  0.00  0.00    +0.000 A 
ATOM     17  C   UNL     1       7.049   4.761  16.120  0.00  0.00    +0.000 A 
BRANCH  17  18
ATOM     18  O   UNL     1       7.663   5.122  17.288  0.00  0.00    +0.000 OA
ATOM     19  H   UNL     1       7.009   5.124  18.004  0.00  0.00    +0.000 HD
ENDBRANCH  17  18
ENDBRANCH   1  11
TORSDOF 4
ENDMDL
MODEL 9
REMARK VINA RESULT:      -6.2      2.076      2.360
REMARK  Name = 
REMARK  4 active torsions:
REMARK  status: ('A' for Active; 'I' for Inactive)
REMARK    1  A    between atoms: O_1  and  C_2
REMARK    2  A    between atoms: C_8  and  O_9
REMARK    3  A    between atoms: O_9  and  C_10
REMARK    4  A    between atoms: C_16  and  O_17
REMARK                            x       y       z     vdW  Elec       q    Type
REMARK                         _______ _______ _______ _____ _____    ______ ____
ROOT
ATOM      1  O   UNL     1       5.265   3.505  17.250  0.00  0.00    +0.000 OA
ENDROOT
BRANCH   1   8
ATOM      2  C   UNL     1       7.060   4.790  16.122  0.00  0.00    +0.000 A 
ATOM      3  C   UNL     1       7.606   5.227  14.911  0.00  0.00    +0.000 A 
ATOM      4  C   UNL     1       7.058   4.787  13.706  0.00  0.00    +0.000 A 
ATOM      5  C   UNL     1       5.984   3.900  13.720  0.00  0.00    +0.000 A 
ATOM      6 BR   UNL     1       5.296   3.245  12.083  0.00  0.00    +0.000 Br
ATOM      7  C   UNL     1       5.419   3.486  14.923  0.00  0.00    +0.000 A 
ATOM      8  C   UNL     1       5.930   3.964  16.136  0.00  0.00    +0.000 A 
BRANCH   2   9
ATOM      9  O   UNL     1       7.665   5.176  17.287  0.00  0.00    +0.000 OA
ATOM     10  H   UNL     1       8.047   6.058  17.155  0.00  0.00    +0.000 HD
ENDBRANCH   2   9
ENDBRANCH   1   8
BRANCH   1  11
ATOM     11  C   UNL     1       3.987   3.928  17.532  0.00  0.00    +0.000 A 
ATOM     12  C   UNL     1       3.863   5.312  17.706  0.00  0.00    +0.000 A 
ATOM     13  C   UNL     1       2.616   5.872  17.971  0.00  0.00    +0.000 A 
ATOM     14 BR   UNL     1       2.458   7.739  18.222  0.00  0.00    +0.000 Br
ATOM     15  C   UNL     1       1.483   5.067  18.058  0.00  0.00    +0.000 A 
ATOM     16  C   UNL     1       1.606   3.682  17.934  0.00  0.00    +0.000 A 
ATOM     17  C   UNL     1       2.861   3.112  17.710  0.00  0.00    +0.000 A 
BRANCH  17  18
ATOM     18  O   UNL     1       2.971   1.749  17.681  0.00  0.00    +0.000 OA
ATOM     19  H   UNL     1       2.108   1.356  17.884  0.00  0.00    +0.000 HD
ENDBRANCH  17  18
ENDBRANCH   1  11
TORSDOF 4
ENDMDL
