MODEL 1
REMARK VINA RESULT:      -7.4      0.000      0.000
REMARK  Name = 
REMARK  8 active torsions:
REMARK  status: ('A' for Active; 'I' for Inactive)
REMARK    1  A    between atoms: C_1  and  O_2
REMARK    2  A    between atoms: O_2  and  C_3
REMARK    3  A    between atoms: C_7  and  N_8
REMARK    4  A    between atoms: N_8  and  C_9
REMARK    5  A    between atoms: C_9  and  C_10
REMARK    6  A    between atoms: N_18  and  C_19
REMARK    7  A    between atoms: C_21  and  O_22
REMARK    8  A    between atoms: O_22  and  C_23
REMARK                            x       y       z     vdW  Elec       q    Type
REMARK                         _______ _______ _______ _____ _____    ______ ____
ROOT
ATOM      1  N   UNL     1       4.487   2.902  17.962  0.00  0.00    +0.000 N 
ATOM      2  H   UNL     1       4.572   2.196  17.224  0.00  0.00    +0.000 HD
ENDROOT
BRANCH   1   7
ATOM      3  C   UNL     1       7.050   6.154  16.981  0.00  0.00    +0.000 A 
ATOM      4  C   UNL     1       6.730   5.851  18.310  0.00  0.00    +0.000 A 
ATOM      5  C   UNL     1       5.882   4.784  18.610  0.00  0.00    +0.000 A 
ATOM      6  F   UNL     1       5.620   4.529  19.902  0.00  0.00    +0.000 F 
ATOM      7  C   UNL     1       5.283   4.008  17.608  0.00  0.00    +0.000 A 
ATOM      8  C   UNL     1       5.636   4.305  16.290  0.00  0.00    +0.000 A 
ATOM      9  C   UNL     1       6.487   5.376  15.959  0.00  0.00    +0.000 A 
BRANCH   3  11
ATOM     10  C   UNL     1       7.948   8.262  17.604  0.00  0.00    +0.000 C 
ATOM     11  O   UNL     1       7.861   7.208  16.650  0.00  0.00    +0.000 OA
ENDBRANCH   3  11
BRANCH   9  12
ATOM     12  O   UNL     1       6.647   5.482  14.602  0.00  0.00    +0.000 OA
ATOM     13  C   UNL     1       6.474   4.334  13.789  0.00  0.00    +0.000 C 
ENDBRANCH   9  12
ENDBRANCH   1   7
BRANCH   1  14
ATOM     14  C   UNL     1       3.058   3.129  18.206  0.00  0.00    +0.000 C 
BRANCH  14  15
ATOM     15  C   UNL     1       2.670   4.546  18.542  0.00  0.00    +0.000 A 
ATOM     16  N   UNL     1       2.600   5.546  17.681  0.00  0.00    +0.000 NA
ATOM     17  C   UNL     1       2.239   6.647  18.417  0.00  0.00    +0.000 A 
ATOM     18  C   UNL     1       2.030   7.969  17.996  0.00  0.00    +0.000 A 
ATOM     19  C   UNL     1       1.661   8.931  18.946  0.00  0.00    +0.000 A 
ATOM     20  C   UNL     1       1.509   8.585  20.288  0.00  0.00    +0.000 A 
ATOM     21  C   UNL     1       1.715   7.271  20.727  0.00  0.00    +0.000 A 
ATOM     22  C   UNL     1       2.078   6.321  19.761  0.00  0.00    +0.000 A 
ATOM     23  N   UNL     1       2.349   4.975  19.814  0.00  0.00    +0.000 N 
ATOM     24  C   UNL     1       2.306   4.148  20.996  0.00  0.00    +0.000 C 
ENDBRANCH  14  15
ENDBRANCH   1  14
TORSDOF 5
ENDMDL
MODEL 2
REMARK VINA RESULT:      -7.3      2.193      4.011
REMARK  Name = 
REMARK  8 active torsions:
REMARK  status: ('A' for Active; 'I' for Inactive)
REMARK    1  A    between atoms: C_1  and  O_2
REMARK    2  A    between atoms: O_2  and  C_3
REMARK    3  A    between atoms: C_7  and  N_8
REMARK    4  A    between atoms: N_8  and  C_9
REMARK    5  A    between atoms: C_9  and  C_10
REMARK    6  A    between atoms: N_18  and  C_19
REMARK    7  A    between atoms: C_21  and  O_22
REMARK    8  A    between atoms: O_22  and  C_23
REMARK                            x       y       z     vdW  Elec       q    Type
REMARK                         _______ _______ _______ _____ _____    ______ ____
ROOT
ATOM      1  N   UNL     1       3.396   6.405  18.892  0.00  0.00    +0.000 N 
ATOM      2  H   UNL     1       2.851   5.630  19.283  0.00  0.00    +0.000 HD
ENDROOT
BRANCH   1   7
ATOM      3  C   UNL     1       6.056   4.846  15.960  0.00  0.00    +0.000 A 
ATOM      4  C   UNL     1       4.823   4.237  16.225  0.00  0.00    +0.000 A 
ATOM      5  C   UNL     1       3.968   4.761  17.196  0.00  0.00    +0.000 A 
ATOM      6  F   UNL     1       2.792   4.146  17.400  0.00  0.00    +0.000 F 
ATOM      7  C   UNL     1       4.319   5.875  17.971  0.00  0.00    +0.000 A 
ATOM      8  C   UNL     1       5.539   6.487  17.673  0.00  0.00    +0.000 A 
ATOM      9  C   UNL     1       6.421   5.979  16.701  0.00  0.00    +0.000 A 
BRANCH   3  11
ATOM     10  C   UNL     1       6.357   3.883  13.810  0.00  0.00    +0.000 C 
ATOM     11  O   UNL     1       6.929   4.345  15.029  0.00  0.00    +0.000 OA
ENDBRANCH   3  11
BRANCH   9  12
ATOM     12  O   UNL     1       7.563   6.734  16.623  0.00  0.00    +0.000 OA
ATOM     13  C   UNL     1       7.762   7.791  17.547  0.00  0.00    +0.000 C 
ENDBRANCH   9  12
ENDBRANCH   1   7
BRANCH   1  14
ATOM     14  C   UNL     1       2.452   7.424  18.416  0.00  0.00    +0.000 C 
BRANCH  14  15
ATOM     15  C   UNL     1       1.739   8.205  19.489  0.00  0.00    +0.000 A 
ATOM     16  N   UNL     1       1.417   7.746  20.685  0.00  0.00    +0.000 NA
ATOM     17  C   UNL     1       0.764   8.776  21.317  0.00  0.00    +0.000 A 
ATOM     18  C   UNL     1       0.208   8.819  22.604  0.00  0.00    +0.000 A 
ATOM     19  C   UNL     1      -0.416   9.999  23.032  0.00  0.00    +0.000 A 
ATOM     20  C   UNL     1      -0.488  11.110  22.192  0.00  0.00    +0.000 A 
ATOM     21  C   UNL     1       0.060  11.084  20.904  0.00  0.00    +0.000 A 
ATOM     22  C   UNL     1       0.684   9.896  20.496  0.00  0.00    +0.000 A 
ATOM     23  N   UNL     1       1.321   9.512  19.341  0.00  0.00    +0.000 N 
ATOM     24  C   UNL     1       1.520  10.332  18.170  0.00  0.00    +0.000 C 
ENDBRANCH  14  15
ENDBRANCH   1  14
TORSDOF 5
ENDMDL
MODEL 3
REMARK VINA RESULT:      -7.2      2.791      4.605
REMARK  Name = 
REMARK  8 active torsions:
REMARK  status: ('A' for Active; 'I' for Inactive)
REMARK    1  A    between atoms: C_1  and  O_2
REMARK    2  A    between atoms: O_2  and  C_3
REMARK    3  A    between atoms: C_7  and  N_8
REMARK    4  A    between atoms: N_8  and  C_9
REMARK    5  A    between atoms: C_9  and  C_10
REMARK    6  A    between atoms: N_18  and  C_19
REMARK    7  A    between atoms: C_21  and  O_22
REMARK    8  A    between atoms: O_22  and  C_23
REMARK                            x       y       z     vdW  Elec       q    Type
REMARK                         _______ _______ _______ _____ _____    ______ ____
ROOT
ATOM      1  N   UNL     1       2.522   6.392  19.767  0.00  0.00    +0.000 N 
ATOM      2  H   UNL     1       1.625   5.918  19.911  0.00  0.00    +0.000 HD
ENDROOT
BRANCH   1   7
ATOM      3  C   UNL     1       4.958   4.006  17.222  0.00  0.00    +0.000 A 
ATOM      4  C   UNL     1       3.583   4.147  16.996  0.00  0.00    +0.000 A 
ATOM      5  C   UNL     1       2.801   4.929  17.847  0.00  0.00    +0.000 A 
ATOM      6  F   UNL     1       1.491   5.041  17.576  0.00  0.00    +0.000 F 
ATOM      7  C   UNL     1       3.338   5.562  18.976  0.00  0.00    +0.000 A 
ATOM      8  C   UNL     1       4.716   5.435  19.170  0.00  0.00    +0.000 A 
ATOM      9  C   UNL     1       5.528   4.651  18.329  0.00  0.00    +0.000 A 
BRANCH   3  11
ATOM     10  C   UNL     1       6.098   3.776  15.152  0.00  0.00    +0.000 C 
ATOM     11  O   UNL     1       5.751   3.228  16.420  0.00  0.00    +0.000 OA
ENDBRANCH   3  11
BRANCH   9  12
ATOM     12  O   UNL     1       6.832   4.658  18.751  0.00  0.00    +0.000 OA
ATOM     13  C   UNL     1       7.641   5.792  18.490  0.00  0.00    +0.000 C 
ENDBRANCH   9  12
ENDBRANCH   1   7
BRANCH   1  14
ATOM     14  C   UNL     1       2.242   7.749  19.283  0.00  0.00    +0.000 C 
BRANCH  14  15
ATOM     15  C   UNL     1       1.382   8.599  20.181  0.00  0.00    +0.000 A 
ATOM     16  N   UNL     1       1.086   8.327  21.440  0.00  0.00    +0.000 NA
ATOM     17  C   UNL     1       0.266   9.345  21.859  0.00  0.00    +0.000 A 
ATOM     18  C   UNL     1      -0.338   9.542  23.110  0.00  0.00    +0.000 A 
ATOM     19  C   UNL     1      -1.145  10.672  23.301  0.00  0.00    +0.000 A 
ATOM     20  C   UNL     1      -1.349  11.584  22.265  0.00  0.00    +0.000 A 
ATOM     21  C   UNL     1      -0.755  11.402  21.010  0.00  0.00    +0.000 A 
ATOM     22  C   UNL     1       0.053  10.268  20.840  0.00  0.00    +0.000 A 
ATOM     23  N   UNL     1       0.781   9.776  19.784  0.00  0.00    +0.000 N 
ATOM     24  C   UNL     1       0.901  10.385  18.481  0.00  0.00    +0.000 C 
ENDBRANCH  14  15
ENDBRANCH   1  14
TORSDOF 5
ENDMDL
MODEL 4
REMARK VINA RESULT:      -7.2      1.503      3.293
REMARK  Name = 
REMARK  8 active torsions:
REMARK  status: ('A' for Active; 'I' for Inactive)
REMARK    1  A    between atoms: C_1  and  O_2
REMARK    2  A    between atoms: O_2  and  C_3
REMARK    3  A    between atoms: C_7  and  N_8
REMARK    4  A    between atoms: N_8  and  C_9
REMARK    5  A    between atoms: C_9  and  C_10
REMARK    6  A    between atoms: N_18  and  C_19
REMARK    7  A    between atoms: C_21  and  O_22
REMARK    8  A    between atoms: O_22  and  C_23
REMARK                            x       y       z     vdW  Elec       q    Type
REMARK                         _______ _______ _______ _____ _____    ______ ____
ROOT
ATOM      1  N   UNL     1       4.274   5.277  19.413  0.00  0.00    +0.000 N 
ATOM      2  H   UNL     1       4.480   4.440  19.967  0.00  0.00    +0.000 HD
ENDROOT
BRANCH   1   7
ATOM      3  C   UNL     1       6.419   5.166  15.740  0.00  0.00    +0.000 A 
ATOM      4  C   UNL     1       5.378   4.268  16.005  0.00  0.00    +0.000 A 
ATOM      5  C   UNL     1       4.692   4.317  17.220  0.00  0.00    +0.000 A 
ATOM      6  F   UNL     1       3.693   3.441  17.416  0.00  0.00    +0.000 F 
ATOM      7  C   UNL     1       5.038   5.222  18.232  0.00  0.00    +0.000 A 
ATOM      8  C   UNL     1       6.059   6.130  17.939  0.00  0.00    +0.000 A 
ATOM      9  C   UNL     1       6.769   6.101  16.724  0.00  0.00    +0.000 A 
BRANCH   3  11
ATOM     10  C   UNL     1       6.666   4.222  13.575  0.00  0.00    +0.000 C 
ATOM     11  O   UNL     1       7.129   5.131  14.568  0.00  0.00    +0.000 OA
ENDBRANCH   3  11
BRANCH   9  12
ATOM     12  O   UNL     1       7.742   7.066  16.695  0.00  0.00    +0.000 OA
ATOM     13  C   UNL     1       7.695   8.130  17.631  0.00  0.00    +0.000 C 
ENDBRANCH   9  12
ENDBRANCH   1   7
BRANCH   1  14
ATOM     14  C   UNL     1       2.815   5.387  19.288  0.00  0.00    +0.000 C 
BRANCH  14  15
ATOM     15  C   UNL     1       2.217   6.688  19.754  0.00  0.00    +0.000 A 
ATOM     16  N   UNL     1       1.667   6.899  20.937  0.00  0.00    +0.000 NA
ATOM     17  C   UNL     1       1.234   8.202  20.920  0.00  0.00    +0.000 A 
ATOM     18  C   UNL     1       0.578   8.933  21.921  0.00  0.00    +0.000 A 
ATOM     19  C   UNL     1       0.232  10.267  21.668  0.00  0.00    +0.000 A 
ATOM     20  C   UNL     1       0.531  10.859  20.441  0.00  0.00    +0.000 A 
ATOM     21  C   UNL     1       1.184  10.144  19.430  0.00  0.00    +0.000 A 
ATOM     22  C   UNL     1       1.526   8.811  19.704  0.00  0.00    +0.000 A 
ATOM     23  N   UNL     1       2.160   7.830  18.981  0.00  0.00    +0.000 N 
ATOM     24  C   UNL     1       2.680   7.967  17.641  0.00  0.00    +0.000 C 
ENDBRANCH  14  15
ENDBRANCH   1  14
TORSDOF 5
ENDMDL
MODEL 5
REMARK VINA RESULT:      -7.1      3.099      6.629
REMARK  Name = 
REMARK  8 active torsions:
REMARK  status: ('A' for Active; 'I' for Inactive)
REMARK    1  A    between atoms: C_1  and  O_2
REMARK    2  A    between atoms: O_2  and  C_3
REMARK    3  A    between atoms: C_7  and  N_8
REMARK    4  A    between atoms: N_8  and  C_9
REMARK    5  A    between atoms: C_9  and  C_10
REMARK    6  A    between atoms: N_18  and  C_19
REMARK    7  A    between atoms: C_21  and  O_22
REMARK    8  A    between atoms: O_22  and  C_23
REMARK                            x       y       z     vdW  Elec       q    Type
REMARK                         _______ _______ _______ _____ _____    ______ ____
ROOT
ATOM      1  N   UNL     1       5.813   6.442  17.945  0.00  0.00    +0.000 N 
ATOM      2  H   UNL     1       5.576   7.039  17.147  0.00  0.00    +0.000 HD
ENDROOT
BRANCH   1   7
ATOM      3  C   UNL     1       2.182   4.631  19.224  0.00  0.00    +0.000 A 
ATOM      4  C   UNL     1       2.184   5.736  18.365  0.00  0.00    +0.000 A 
ATOM      5  C   UNL     1       3.386   6.320  17.963  0.00  0.00    +0.000 A 
ATOM      6  F   UNL     1       3.330   7.369  17.126  0.00  0.00    +0.000 F 
ATOM      7  C   UNL     1       4.626   5.863  18.430  0.00  0.00    +0.000 A 
ATOM      8  C   UNL     1       4.607   4.741  19.264  0.00  0.00    +0.000 A 
ATOM      9  C   UNL     1       3.409   4.135  19.686  0.00  0.00    +0.000 A 
BRANCH   3  11
ATOM     10  C   UNL     1       0.661   2.817  19.037  0.00  0.00    +0.000 C 
ATOM     11  O   UNL     1       1.019   4.048  19.657  0.00  0.00    +0.000 OA
ENDBRANCH   3  11
BRANCH   9  12
ATOM     12  O   UNL     1       3.657   3.079  20.526  0.00  0.00    +0.000 OA
ATOM     13  C   UNL     1       4.339   1.941  20.029  0.00  0.00    +0.000 C 
ENDBRANCH   9  12
ENDBRANCH   1   7
BRANCH   1  14
ATOM     14  C   UNL     1       6.900   5.547  17.531  0.00  0.00    +0.000 C 
BRANCH  14  15
ATOM     15  C   UNL     1       6.894   5.139  16.081  0.00  0.00    +0.000 A 
ATOM     16  N   UNL     1       7.641   5.674  15.131  0.00  0.00    +0.000 NA
ATOM     17  C   UNL     1       7.293   5.024  13.973  0.00  0.00    +0.000 A 
ATOM     18  C   UNL     1       7.780   5.207  12.670  0.00  0.00    +0.000 A 
ATOM     19  C   UNL     1       7.264   4.413  11.637  0.00  0.00    +0.000 A 
ATOM     20  C   UNL     1       6.281   3.459  11.896  0.00  0.00    +0.000 A 
ATOM     21  C   UNL     1       5.782   3.263  13.190  0.00  0.00    +0.000 A 
ATOM     22  C   UNL     1       6.314   4.064  14.211  0.00  0.00    +0.000 A 
ATOM     23  N   UNL     1       6.083   4.150  15.563  0.00  0.00    +0.000 N 
ATOM     24  C   UNL     1       5.151   3.344  16.315  0.00  0.00    +0.000 C 
ENDBRANCH  14  15
ENDBRANCH   1  14
TORSDOF 5
ENDMDL
MODEL 6
REMARK VINA RESULT:      -7.0      2.820      4.410
REMARK  Name = 
REMARK  8 active torsions:
REMARK  status: ('A' for Active; 'I' for Inactive)
REMARK    1  A    between atoms: C_1  and  O_2
REMARK    2  A    between atoms: O_2  and  C_3
REMARK    3  A    between atoms: C_7  and  N_8
REMARK    4  A    between atoms: N_8  and  C_9
REMARK    5  A    between atoms: C_9  and  C_10
REMARK    6  A    between atoms: N_18  and  C_19
REMARK    7  A    between atoms: C_21  and  O_22
REMARK    8  A    between atoms: O_22  and  C_23
REMARK                            x       y       z     vdW  Elec       q    Type
REMARK                         _______ _______ _______ _____ _____    ______ ____
ROOT
ATOM      1  N   UNL     1       2.041   7.584  17.866  0.00  0.00    +0.000 N 
ATOM      2  H   UNL     1       1.747   7.391  16.903  0.00  0.00    +0.000 HD
ENDROOT
BRANCH   1   7
ATOM      3  C   UNL     1       5.632   5.406  18.545  0.00  0.00    +0.000 A 
ATOM      4  C   UNL     1       4.577   5.380  19.466  0.00  0.00    +0.000 A 
ATOM      5  C   UNL     1       3.411   6.108  19.226  0.00  0.00    +0.000 A 
ATOM      6  F   UNL     1       2.425   6.036  20.135  0.00  0.00    +0.000 F 
ATOM      7  C   UNL     1       3.262   6.921  18.095  0.00  0.00    +0.000 A 
ATOM      8  C   UNL     1       4.312   6.912  17.174  0.00  0.00    +0.000 A 
ATOM      9  C   UNL     1       5.500   6.190  17.390  0.00  0.00    +0.000 A 
BRANCH   3  11
ATOM     10  C   UNL     1       7.872   5.465  19.333  0.00  0.00    +0.000 C 
ATOM     11  O   UNL     1       6.801   4.722  18.759  0.00  0.00    +0.000 OA
ENDBRANCH   3  11
BRANCH   9  12
ATOM     12  O   UNL     1       6.387   6.373  16.361  0.00  0.00    +0.000 OA
ATOM     13  C   UNL     1       6.552   5.350  15.395  0.00  0.00    +0.000 C 
ENDBRANCH   9  12
ENDBRANCH   1   7
BRANCH   1  14
ATOM     14  C   UNL     1       1.995   9.037  18.069  0.00  0.00    +0.000 C 
BRANCH  14  15
ATOM     15  C   UNL     1       1.285   9.499  19.314  0.00  0.00    +0.000 A 
ATOM     16  N   UNL     1       0.905   8.723  20.314  0.00  0.00    +0.000 NA
ATOM     17  C   UNL     1       0.280   9.551  21.213  0.00  0.00    +0.000 A 
ATOM     18  C   UNL     1      -0.314   9.238  22.445  0.00  0.00    +0.000 A 
ATOM     19  C   UNL     1      -0.897  10.268  23.195  0.00  0.00    +0.000 A 
ATOM     20  C   UNL     1      -0.893  11.581  22.725  0.00  0.00    +0.000 A 
ATOM     21  C   UNL     1      -0.306  11.911  21.497  0.00  0.00    +0.000 A 
ATOM     22  C   UNL     1       0.276  10.867  20.764  0.00  0.00    +0.000 A 
ATOM     23  N   UNL     1       0.930  10.811  19.557  0.00  0.00    +0.000 N 
ATOM     24  C   UNL     1       1.203  11.931  18.687  0.00  0.00    +0.000 C 
ENDBRANCH  14  15
ENDBRANCH   1  14
TORSDOF 5
ENDMDL
MODEL 7
REMARK VINA RESULT:      -7.0      3.194      5.421
REMARK  Name = 
REMARK  8 active torsions:
REMARK  status: ('A' for Active; 'I' for Inactive)
REMARK    1  A    between atoms: C_1  and  O_2
REMARK    2  A    between atoms: O_2  and  C_3
REMARK    3  A    between atoms: C_7  and  N_8
REMARK    4  A    between atoms: N_8  and  C_9
REMARK    5  A    between atoms: C_9  and  C_10
REMARK    6  A    between atoms: N_18  and  C_19
REMARK    7  A    between atoms: C_21  and  O_22
REMARK    8  A    between atoms: O_22  and  C_23
REMARK                            x       y       z     vdW  Elec       q    Type
REMARK                         _______ _______ _______ _____ _____    ______ ____
ROOT
ATOM      1  N   UNL     1       3.257   7.785  18.235  0.00  0.00    +0.000 N 
ATOM      2  H   UNL     1       3.552   7.931  19.205  0.00  0.00    +0.000 HD
ENDROOT
BRANCH   1   7
ATOM      3  C   UNL     1       3.130   3.572  17.648  0.00  0.00    +0.000 A 
ATOM      4  C   UNL     1       4.115   4.364  17.046  0.00  0.00    +0.000 A 
ATOM      5  C   UNL     1       4.134   5.745  17.246  0.00  0.00    +0.000 A 
ATOM      6  F   UNL     1       5.110   6.455  16.656  0.00  0.00    +0.000 F 
ATOM      7  C   UNL     1       3.157   6.399  18.009  0.00  0.00    +0.000 A 
ATOM      8  C   UNL     1       2.199   5.591  18.626  0.00  0.00    +0.000 A 
ATOM      9  C   UNL     1       2.154   4.196  18.440  0.00  0.00    +0.000 A 
BRANCH   3  11
ATOM     10  C   UNL     1       3.619   1.405  18.487  0.00  0.00    +0.000 C 
ATOM     11  O   UNL     1       3.067   2.217  17.455  0.00  0.00    +0.000 OA
ENDBRANCH   3  11
BRANCH   9  12
ATOM     12  O   UNL     1       1.103   3.638  19.119  0.00  0.00    +0.000 OA
ATOM     13  C   UNL     1       1.042   3.762  20.530  0.00  0.00    +0.000 C 
ENDBRANCH   9  12
ENDBRANCH   1   7
BRANCH   1  14
ATOM     14  C   UNL     1       2.068   8.611  17.995  0.00  0.00    +0.000 C 
BRANCH  14  15
ATOM     15  C   UNL     1       1.385   9.145  19.227  0.00  0.00    +0.000 A 
ATOM     16  N   UNL     1       0.997   8.422  20.263  0.00  0.00    +0.000 NA
ATOM     17  C   UNL     1       0.404   9.303  21.133  0.00  0.00    +0.000 A 
ATOM     18  C   UNL     1      -0.183   9.059  22.383  0.00  0.00    +0.000 A 
ATOM     19  C   UNL     1      -0.729  10.135  23.096  0.00  0.00    +0.000 A 
ATOM     20  C   UNL     1      -0.696  11.426  22.571  0.00  0.00    +0.000 A 
ATOM     21  C   UNL     1      -0.115  11.688  21.323  0.00  0.00    +0.000 A 
ATOM     22  C   UNL     1       0.431  10.599  20.628  0.00  0.00    +0.000 A 
ATOM     23  N   UNL     1       1.069  10.475  19.418  0.00  0.00    +0.000 N 
ATOM     24  C   UNL     1       1.361  11.550  18.499  0.00  0.00    +0.000 C 
ENDBRANCH  14  15
ENDBRANCH   1  14
TORSDOF 5
ENDMDL
MODEL 8
REMARK VINA RESULT:      -6.9      2.478      5.480
REMARK  Name = 
REMARK  8 active torsions:
REMARK  status: ('A' for Active; 'I' for Inactive)
REMARK    1  A    between atoms: C_1  and  O_2
REMARK    2  A    between atoms: O_2  and  C_3
REMARK    3  A    between atoms: C_7  and  N_8
REMARK    4  A    between atoms: N_8  and  C_9
REMARK    5  A    between atoms: C_9  and  C_10
REMARK    6  A    between atoms: N_18  and  C_19
REMARK    7  A    between atoms: C_21  and  O_22
REMARK    8  A    between atoms: O_22  and  C_23
REMARK                            x       y       z     vdW  Elec       q    Type
REMARK                         _______ _______ _______ _____ _____    ______ ____
ROOT
ATOM      1  N   UNL     1       2.306   3.398  17.837  0.00  0.00    +0.000 N 
ATOM      2  H   UNL     1       1.689   2.658  18.185  0.00  0.00    +0.000 HD
ENDROOT
BRANCH   1   7
ATOM      3  C   UNL     1       1.876   6.793  20.367  0.00  0.00    +0.000 A 
ATOM      4  C   UNL     1       1.578   5.502  20.819  0.00  0.00    +0.000 A 
ATOM      5  C   UNL     1       1.719   4.403  19.971  0.00  0.00    +0.000 A 
ATOM      6  F   UNL     1       1.433   3.185  20.461  0.00  0.00    +0.000 F 
ATOM      7  C   UNL     1       2.115   4.543  18.634  0.00  0.00    +0.000 A 
ATOM      8  C   UNL     1       2.436   5.834  18.207  0.00  0.00    +0.000 A 
ATOM      9  C   UNL     1       2.300   6.960  19.041  0.00  0.00    +0.000 A 
BRANCH   3  11
ATOM     10  C   UNL     1       0.422   8.466  21.220  0.00  0.00    +0.000 C 
ATOM     11  O   UNL     1       1.726   7.896  21.166  0.00  0.00    +0.000 OA
ENDBRANCH   3  11
BRANCH   9  12
ATOM     12  O   UNL     1       2.642   8.111  18.379  0.00  0.00    +0.000 OA
ATOM     13  C   UNL     1       1.636   8.855  17.713  0.00  0.00    +0.000 C 
ENDBRANCH   9  12
ENDBRANCH   1   7
BRANCH   1  14
ATOM     14  C   UNL     1       3.662   2.845  17.736  0.00  0.00    +0.000 C 
BRANCH  14  15
ATOM     15  C   UNL     1       4.785   3.834  17.906  0.00  0.00    +0.000 A 
ATOM     16  N   UNL     1       5.445   4.059  19.028  0.00  0.00    +0.000 NA
ATOM     17  C   UNL     1       6.353   5.047  18.736  0.00  0.00    +0.000 A 
ATOM     18  C   UNL     1       7.299   5.660  19.570  0.00  0.00    +0.000 A 
ATOM     19  C   UNL     1       8.126   6.658  19.036  0.00  0.00    +0.000 A 
ATOM     20  C   UNL     1       8.010   7.038  17.700  0.00  0.00    +0.000 A 
ATOM     21  C   UNL     1       7.071   6.437  16.853  0.00  0.00    +0.000 A 
ATOM     22  C   UNL     1       6.255   5.438  17.404  0.00  0.00    +0.000 A 
ATOM     23  N   UNL     1       5.256   4.645  16.894  0.00  0.00    +0.000 N 
ATOM     24  C   UNL     1       4.778   4.656  15.532  0.00  0.00    +0.000 C 
ENDBRANCH  14  15
ENDBRANCH   1  14
TORSDOF 5
ENDMDL
MODEL 9
REMARK VINA RESULT:      -6.9      2.342      4.041
REMARK  Name = 
REMARK  8 active torsions:
REMARK  status: ('A' for Active; 'I' for Inactive)
REMARK    1  A    between atoms: C_1  and  O_2
REMARK    2  A    between atoms: O_2  and  C_3
REMARK    3  A    between atoms: C_7  and  N_8
REMARK    4  A    between atoms: N_8  and  C_9
REMARK    5  A    between atoms: C_9  and  C_10
REMARK    6  A    between atoms: N_18  and  C_19
REMARK    7  A    between atoms: C_21  and  O_22
REMARK    8  A    between atoms: O_22  and  C_23
REMARK                            x       y       z     vdW  Elec       q    Type
REMARK                         _______ _______ _______ _____ _____    ______ ____
ROOT
ATOM      1  N   UNL     1       2.255   6.186  18.561  0.00  0.00    +0.000 N 
ATOM      2  H   UNL     1       1.808   6.895  17.971  0.00  0.00    +0.000 HD
ENDROOT
BRANCH   1   7
ATOM      3  C   UNL     1       5.368   4.464  16.228  0.00  0.00    +0.000 A 
ATOM      4  C   UNL     1       4.252   3.717  16.622  0.00  0.00    +0.000 A 
ATOM      5  C   UNL     1       3.245   4.299  17.393  0.00  0.00    +0.000 A 
ATOM      6  F   UNL     1       2.190   3.540  17.731  0.00  0.00    +0.000 F 
ATOM      7  C   UNL     1       3.326   5.625  17.841  0.00  0.00    +0.000 A 
ATOM      8  C   UNL     1       4.432   6.364  17.414  0.00  0.00    +0.000 A 
ATOM      9  C   UNL     1       5.462   5.802  16.638  0.00  0.00    +0.000 A 
BRANCH   3  11
ATOM     10  C   UNL     1       6.232   3.956  14.075  0.00  0.00    +0.000 C 
ATOM     11  O   UNL     1       6.386   3.918  15.490  0.00  0.00    +0.000 OA
ENDBRANCH   3  11
BRANCH   9  12
ATOM     12  O   UNL     1       6.448   6.720  16.382  0.00  0.00    +0.000 OA
ATOM     13  C   UNL     1       7.390   7.030  17.396  0.00  0.00    +0.000 C 
ENDBRANCH   9  12
ENDBRANCH   1   7
BRANCH   1  14
ATOM     14  C   UNL     1       2.544   6.800  19.863  0.00  0.00    +0.000 C 
BRANCH  14  15
ATOM     15  C   UNL     1       1.692   7.987  20.228  0.00  0.00    +0.000 A 
ATOM     16  N   UNL     1       1.111   8.183  21.399  0.00  0.00    +0.000 NA
ATOM     17  C   UNL     1       0.421   9.364  21.281  0.00  0.00    +0.000 A 
ATOM     18  C   UNL     1      -0.371  10.029  22.228  0.00  0.00    +0.000 A 
ATOM     19  C   UNL     1      -0.983  11.238  21.869  0.00  0.00    +0.000 A 
ATOM     20  C   UNL     1      -0.812  11.770  20.592  0.00  0.00    +0.000 A 
ATOM     21  C   UNL     1      -0.026  11.119  19.633  0.00  0.00    +0.000 A 
ATOM     22  C   UNL     1       0.581   9.913  20.012  0.00  0.00    +0.000 A 
ATOM     23  N   UNL     1       1.402   9.023  19.363  0.00  0.00    +0.000 N 
ATOM     24  C   UNL     1       1.883   9.147  18.007  0.00  0.00    +0.000 C 
ENDBRANCH  14  15
ENDBRANCH   1  14
TORSDOF 5
ENDMDL
