MODEL 1
REMARK VINA RESULT:      -7.9      0.000      0.000
REMARK  Name = 
REMARK  5 active torsions:
REMARK  status: ('A' for Active; 'I' for Inactive)
REMARK    1  A    between atoms: O_1  and  C_2
REMARK    2  A    between atoms: C_10  and  O_11
REMARK    3  A    between atoms: C_12  and  C_13
REMARK    4  A    between atoms: C_17  and  O_18
REMARK    5  A    between atoms: O_18  and  C_19
REMARK                            x       y       z     vdW  Elec       q    Type
REMARK                         _______ _______ _______ _____ _____    ______ ____
ROOT
ATOM      1  C   UNL     1       1.726   7.224  20.458  0.00  0.00    +0.000 A 
ATOM      2  N   UNL     1       1.234   8.197  21.248  0.00  0.00    +0.000 NA
ATOM      3  C   UNL     1       1.000   9.357  20.606  0.00  0.00    +0.000 A 
ATOM      4  S   UNL     1       0.363  10.700  21.441  0.00  0.00    +0.000 S 
ATOM      5  C   UNL     1       0.373  11.631  20.033  0.00  0.00    +0.000 A 
ATOM      6 CL   UNL     1      -0.189  13.254  20.075  0.00  0.00    +0.000 Cl
ATOM      7  C   UNL     1       0.855  10.966  18.935  0.00  0.00    +0.000 A 
ATOM      8  C   UNL     1       1.232   9.615  19.260  0.00  0.00    +0.000 A 
ATOM      9  C   UNL     1       1.775   8.548  18.503  0.00  0.00    +0.000 A 
ATOM     10  C   UNL     1       2.029   7.288  19.095  0.00  0.00    +0.000 A 
ENDROOT
BRANCH  10  11
ATOM     11  C   UNL     1       2.574   6.129  18.325  0.00  0.00    +0.000 A 
ATOM     12  C   UNL     1       1.820   4.967  18.077  0.00  0.00    +0.000 A 
ATOM     13  C   UNL     1       2.359   3.871  17.390  0.00  0.00    +0.000 A 
ATOM     14  C   UNL     1       3.692   3.881  16.993  0.00  0.00    +0.000 A 
ATOM     15  C   UNL     1       4.474   4.999  17.258  0.00  0.00    +0.000 A 
ATOM     16  C   UNL     1       3.895   6.135  17.837  0.00  0.00    +0.000 A 
BRANCH  15  17
ATOM     17  O   UNL     1       5.805   4.931  16.903  0.00  0.00    +0.000 OA
BRANCH  17  18
ATOM     18  C   UNL     1       6.701   5.778  17.522  0.00  0.00    +0.000 A 
ATOM     19  C   UNL     1       7.433   5.457  18.670  0.00  0.00    +0.000 A 
ATOM     20  C   UNL     1       8.279   6.404  19.253  0.00  0.00    +0.000 A 
ATOM     21  C   UNL     1       8.435   7.656  18.661  0.00  0.00    +0.000 A 
ATOM     22  C   UNL     1       7.756   7.957  17.480  0.00  0.00    +0.000 A 
ATOM     23  C   UNL     1       6.892   7.019  16.910  0.00  0.00    +0.000 A 
ENDBRANCH  17  18
ENDBRANCH  15  17
ENDBRANCH  10  11
BRANCH   1  24
ATOM     24  O   UNL     1       1.904   6.078  21.172  0.00  0.00    +0.000 OA
ATOM     25  H   UNL     1       2.875   6.005  21.143  0.00  0.00    +0.000 HD
ENDBRANCH   1  24
BRANCH   9  26
ATOM     26  O   UNL     1       2.091   8.745  17.175  0.00  0.00    +0.000 OA
ATOM     27  H   UNL     1       2.093   7.894  16.708  0.00  0.00    +0.000 HD
ENDBRANCH   9  26
TORSDOF 5
ENDMDL
MODEL 2
REMARK VINA RESULT:      -7.6      1.235      2.107
REMARK  Name = 
REMARK  5 active torsions:
REMARK  status: ('A' for Active; 'I' for Inactive)
REMARK    1  A    between atoms: O_1  and  C_2
REMARK    2  A    between atoms: C_10  and  O_11
REMARK    3  A    between atoms: C_12  and  C_13
REMARK    4  A    between atoms: C_17  and  O_18
REMARK    5  A    between atoms: O_18  and  C_19
REMARK                            x       y       z     vdW  Elec       q    Type
REMARK                         _______ _______ _______ _____ _____    ______ ____
ROOT
ATOM      1  C   UNL     1       2.012   8.433  18.156  0.00  0.00    +0.000 A 
ATOM      2  N   UNL     1       1.468   9.587  18.588  0.00  0.00    +0.000 NA
ATOM      3  C   UNL     1       0.999   9.531  19.849  0.00  0.00    +0.000 A 
ATOM      4  S   UNL     1       0.286  10.900  20.573  0.00  0.00    +0.000 S 
ATOM      5  C   UNL     1       0.012  10.050  22.005  0.00  0.00    +0.000 A 
ATOM      6 CL   UNL     1      -0.734  10.836  23.339  0.00  0.00    +0.000 Cl
ATOM      7  C   UNL     1       0.433   8.746  21.962  0.00  0.00    +0.000 A 
ATOM      8  C   UNL     1       1.021   8.423  20.688  0.00  0.00    +0.000 A 
ATOM      9  C   UNL     1       1.586   7.241  20.149  0.00  0.00    +0.000 A 
ATOM     10  C   UNL     1       2.123   7.219  18.841  0.00  0.00    +0.000 A 
ENDROOT
BRANCH  10  11
ATOM     11  C   UNL     1       2.755   6.003  18.246  0.00  0.00    +0.000 A 
ATOM     12  C   UNL     1       2.032   4.821  17.998  0.00  0.00    +0.000 A 
ATOM     13  C   UNL     1       2.647   3.675  17.479  0.00  0.00    +0.000 A 
ATOM     14  C   UNL     1       4.021   3.658  17.259  0.00  0.00    +0.000 A 
ATOM     15  C   UNL     1       4.769   4.795  17.531  0.00  0.00    +0.000 A 
ATOM     16  C   UNL     1       4.128   5.974  17.935  0.00  0.00    +0.000 A 
BRANCH  15  17
ATOM     17  O   UNL     1       6.135   4.703  17.360  0.00  0.00    +0.000 OA
BRANCH  17  18
ATOM     18  C   UNL     1       6.930   5.745  17.791  0.00  0.00    +0.000 A 
ATOM     19  C   UNL     1       7.707   5.720  18.955  0.00  0.00    +0.000 A 
ATOM     20  C   UNL     1       8.440   6.846  19.336  0.00  0.00    +0.000 A 
ATOM     21  C   UNL     1       8.440   7.982  18.529  0.00  0.00    +0.000 A 
ATOM     22  C   UNL     1       7.718   7.988  17.335  0.00  0.00    +0.000 A 
ATOM     23  C   UNL     1       6.966   6.870  16.966  0.00  0.00    +0.000 A 
ENDBRANCH  17  18
ENDBRANCH  15  17
ENDBRANCH  10  11
BRANCH   1  24
ATOM     24  O   UNL     1       2.491   8.580  16.890  0.00  0.00    +0.000 OA
ATOM     25  H   UNL     1       3.444   8.451  17.050  0.00  0.00    +0.000 HD
ENDBRANCH   1  24
BRANCH   9  26
ATOM     26  O   UNL     1       1.588   6.083  20.897  0.00  0.00    +0.000 OA
ATOM     27  H   UNL     1       0.700   5.918  21.251  0.00  0.00    +0.000 HD
ENDBRANCH   9  26
TORSDOF 5
ENDMDL
MODEL 3
REMARK VINA RESULT:      -7.5      3.070      5.006
REMARK  Name = 
REMARK  5 active torsions:
REMARK  status: ('A' for Active; 'I' for Inactive)
REMARK    1  A    between atoms: O_1  and  C_2
REMARK    2  A    between atoms: C_10  and  O_11
REMARK    3  A    between atoms: C_12  and  C_13
REMARK    4  A    between atoms: C_17  and  O_18
REMARK    5  A    between atoms: O_18  and  C_19
REMARK                            x       y       z     vdW  Elec       q    Type
REMARK                         _______ _______ _______ _____ _____    ______ ____
ROOT
ATOM      1  C   UNL     1      -0.632  10.408  18.850  0.00  0.00    +0.000 A 
ATOM      2  N   UNL     1      -1.613  11.274  19.168  0.00  0.00    +0.000 NA
ATOM      3  C   UNL     1      -1.548  11.731  20.433  0.00  0.00    +0.000 A 
ATOM      4  S   UNL     1      -2.700  12.848  21.014  0.00  0.00    +0.000 S 
ATOM      5  C   UNL     1      -1.953  12.891  22.527  0.00  0.00    +0.000 A 
ATOM      6 CL   UNL     1      -2.589  13.897  23.767  0.00  0.00    +0.000 Cl
ATOM      7  C   UNL     1      -0.854  12.078  22.624  0.00  0.00    +0.000 A 
ATOM      8  C   UNL     1      -0.602  11.382  21.389  0.00  0.00    +0.000 A 
ATOM      9  C   UNL     1       0.380  10.446  20.983  0.00  0.00    +0.000 A 
ATOM     10  C   UNL     1       0.400   9.933  19.665  0.00  0.00    +0.000 A 
ENDROOT
BRANCH  10  11
ATOM     11  C   UNL     1       1.436   8.967  19.188  0.00  0.00    +0.000 A 
ATOM     12  C   UNL     1       2.083   9.106  17.946  0.00  0.00    +0.000 A 
ATOM     13  C   UNL     1       3.022   8.170  17.494  0.00  0.00    +0.000 A 
ATOM     14  C   UNL     1       3.287   7.028  18.245  0.00  0.00    +0.000 A 
ATOM     15  C   UNL     1       2.635   6.842  19.457  0.00  0.00    +0.000 A 
ATOM     16  C   UNL     1       1.790   7.842  19.957  0.00  0.00    +0.000 A 
BRANCH  15  17
ATOM     17  O   UNL     1       2.884   5.663  20.128  0.00  0.00    +0.000 OA
BRANCH  17  18
ATOM     18  C   UNL     1       2.373   4.488  19.617  0.00  0.00    +0.000 A 
ATOM     19  C   UNL     1       3.029   3.679  18.682  0.00  0.00    +0.000 A 
ATOM     20  C   UNL     1       2.406   2.532  18.184  0.00  0.00    +0.000 A 
ATOM     21  C   UNL     1       1.149   2.162  18.658  0.00  0.00    +0.000 A 
ATOM     22  C   UNL     1       0.520   2.931  19.638  0.00  0.00    +0.000 A 
ATOM     23  C   UNL     1       1.133   4.090  20.118  0.00  0.00    +0.000 A 
ENDBRANCH  17  18
ENDBRANCH  15  17
ENDBRANCH  10  11
BRANCH   1  24
ATOM     24  O   UNL     1      -0.747  10.019  17.550  0.00  0.00    +0.000 OA
ATOM     25  H   UNL     1       0.155   9.686  17.389  0.00  0.00    +0.000 HD
ENDBRANCH   1  24
BRANCH   9  26
ATOM     26  O   UNL     1       1.317  10.001  21.892  0.00  0.00    +0.000 OA
ATOM     27  H   UNL     1       1.808   9.252  21.520  0.00  0.00    +0.000 HD
ENDBRANCH   9  26
TORSDOF 5
ENDMDL
MODEL 4
REMARK VINA RESULT:      -7.5      3.317      5.027
REMARK  Name = 
REMARK  5 active torsions:
REMARK  status: ('A' for Active; 'I' for Inactive)
REMARK    1  A    between atoms: O_1  and  C_2
REMARK    2  A    between atoms: C_10  and  O_11
REMARK    3  A    between atoms: C_12  and  C_13
REMARK    4  A    between atoms: C_17  and  O_18
REMARK    5  A    between atoms: O_18  and  C_19
REMARK                            x       y       z     vdW  Elec       q    Type
REMARK                         _______ _______ _______ _____ _____    ______ ____
ROOT
ATOM      1  C   UNL     1       0.339  10.216  22.080  0.00  0.00    +0.000 A 
ATOM      2  N   UNL     1      -0.398  10.925  22.956  0.00  0.00    +0.000 NA
ATOM      3  C   UNL     1      -1.387  11.639  22.386  0.00  0.00    +0.000 A 
ATOM      4  S   UNL     1      -2.433  12.590  23.340  0.00  0.00    +0.000 S 
ATOM      5  C   UNL     1      -3.291  13.088  21.973  0.00  0.00    +0.000 A 
ATOM      6 CL   UNL     1      -4.629  14.152  22.142  0.00  0.00    +0.000 Cl
ATOM      7  C   UNL     1      -2.809  12.567  20.800  0.00  0.00    +0.000 A 
ATOM      8  C   UNL     1      -1.679  11.706  21.029  0.00  0.00    +0.000 A 
ATOM      9  C   UNL     1      -0.841  10.952  20.171  0.00  0.00    +0.000 A 
ATOM     10  C   UNL     1       0.207  10.155  20.689  0.00  0.00    +0.000 A 
ENDROOT
BRANCH  10  11
ATOM     11  C   UNL     1       1.094   9.323  19.822  0.00  0.00    +0.000 A 
ATOM     12  C   UNL     1       1.333   9.630  18.470  0.00  0.00    +0.000 A 
ATOM     13  C   UNL     1       2.134   8.816  17.658  0.00  0.00    +0.000 A 
ATOM     14  C   UNL     1       2.662   7.631  18.161  0.00  0.00    +0.000 A 
ATOM     15  C   UNL     1       2.412   7.279  19.481  0.00  0.00    +0.000 A 
ATOM     16  C   UNL     1       1.712   8.158  20.318  0.00  0.00    +0.000 A 
BRANCH  15  17
ATOM     17  O   UNL     1       2.903   6.063  19.910  0.00  0.00    +0.000 OA
BRANCH  17  18
ATOM     18  C   UNL     1       2.192   4.919  19.612  0.00  0.00    +0.000 A 
ATOM     19  C   UNL     1       1.241   4.335  20.456  0.00  0.00    +0.000 A 
ATOM     20  C   UNL     1       0.609   3.145  20.088  0.00  0.00    +0.000 A 
ATOM     21  C   UNL     1       0.888   2.562  18.852  0.00  0.00    +0.000 A 
ATOM     22  C   UNL     1       1.787   3.177  17.981  0.00  0.00    +0.000 A 
ATOM     23  C   UNL     1       2.436   4.355  18.359  0.00  0.00    +0.000 A 
ENDBRANCH  17  18
ENDBRANCH  15  17
ENDBRANCH  10  11
BRANCH   1  24
ATOM     24  O   UNL     1       1.293   9.498  22.735  0.00  0.00    +0.000 OA
ATOM     25  H   UNL     1       0.802   8.674  22.907  0.00  0.00    +0.000 HD
ENDBRANCH   1  24
BRANCH   9  26
ATOM     26  O   UNL     1      -1.027  11.015  18.806  0.00  0.00    +0.000 OA
ATOM     27  H   UNL     1      -1.880  10.616  18.572  0.00  0.00    +0.000 HD
ENDBRANCH   9  26
TORSDOF 5
ENDMDL
MODEL 5
REMARK VINA RESULT:      -7.4      2.329      4.487
REMARK  Name = 
REMARK  5 active torsions:
REMARK  status: ('A' for Active; 'I' for Inactive)
REMARK    1  A    between atoms: O_1  and  C_2
REMARK    2  A    between atoms: C_10  and  O_11
REMARK    3  A    between atoms: C_12  and  C_13
REMARK    4  A    between atoms: C_17  and  O_18
REMARK    5  A    between atoms: O_18  and  C_19
REMARK                            x       y       z     vdW  Elec       q    Type
REMARK                         _______ _______ _______ _____ _____    ______ ____
ROOT
ATOM      1  C   UNL     1       1.693   9.642  18.280  0.00  0.00    +0.000 A 
ATOM      2  N   UNL     1       0.904  10.630  18.741  0.00  0.00    +0.000 NA
ATOM      3  C   UNL     1       0.417  10.408  19.977  0.00  0.00    +0.000 A 
ATOM      4  S   UNL     1      -0.594  11.557  20.732  0.00  0.00    +0.000 S 
ATOM      5  C   UNL     1      -0.728  10.591  22.110  0.00  0.00    +0.000 A 
ATOM      6 CL   UNL     1      -1.666  11.129  23.445  0.00  0.00    +0.000 Cl
ATOM      7  C   UNL     1      -0.038   9.409  22.025  0.00  0.00    +0.000 A 
ATOM      8  C   UNL     1       0.645   9.286  20.764  0.00  0.00    +0.000 A 
ATOM      9  C   UNL     1       1.465   8.281  20.196  0.00  0.00    +0.000 A 
ATOM     10  C   UNL     1       2.037   8.443  18.912  0.00  0.00    +0.000 A 
ENDROOT
BRANCH  10  11
ATOM     11  C   UNL     1       2.931   7.421  18.290  0.00  0.00    +0.000 A 
ATOM     12  C   UNL     1       3.907   7.754  17.332  0.00  0.00    +0.000 A 
ATOM     13  C   UNL     1       4.710   6.778  16.726  0.00  0.00    +0.000 A 
ATOM     14  C   UNL     1       4.509   5.432  17.013  0.00  0.00    +0.000 A 
ATOM     15  C   UNL     1       3.527   5.067  17.925  0.00  0.00    +0.000 A 
ATOM     16  C   UNL     1       2.812   6.056  18.614  0.00  0.00    +0.000 A 
BRANCH  15  17
ATOM     17  O   UNL     1       3.324   3.717  18.122  0.00  0.00    +0.000 OA
BRANCH  17  18
ATOM     18  C   UNL     1       2.630   3.307  19.241  0.00  0.00    +0.000 A 
ATOM     19  C   UNL     1       1.235   3.295  19.350  0.00  0.00    +0.000 A 
ATOM     20  C   UNL     1       0.625   2.910  20.546  0.00  0.00    +0.000 A 
ATOM     21  C   UNL     1       1.406   2.486  21.620  0.00  0.00    +0.000 A 
ATOM     22  C   UNL     1       2.794   2.435  21.494  0.00  0.00    +0.000 A 
ATOM     23  C   UNL     1       3.405   2.842  20.306  0.00  0.00    +0.000 A 
ENDBRANCH  17  18
ENDBRANCH  15  17
ENDBRANCH  10  11
BRANCH   1  24
ATOM     24  O   UNL     1       2.171   9.955  17.044  0.00  0.00    +0.000 OA
ATOM     25  H   UNL     1       1.579   9.415  16.488  0.00  0.00    +0.000 HD
ENDBRANCH   1  24
BRANCH   9  26
ATOM     26  O   UNL     1       1.689   7.110  20.889  0.00  0.00    +0.000 OA
ATOM     27  H   UNL     1       0.849   6.646  21.031  0.00  0.00    +0.000 HD
ENDBRANCH   9  26
TORSDOF 5
ENDMDL
MODEL 6
REMARK VINA RESULT:      -7.4      3.931      7.792
REMARK  Name = 
REMARK  5 active torsions:
REMARK  status: ('A' for Active; 'I' for Inactive)
REMARK    1  A    between atoms: O_1  and  C_2
REMARK    2  A    between atoms: C_10  and  O_11
REMARK    3  A    between atoms: C_12  and  C_13
REMARK    4  A    between atoms: C_17  and  O_18
REMARK    5  A    between atoms: O_18  and  C_19
REMARK                            x       y       z     vdW  Elec       q    Type
REMARK                         _______ _______ _______ _____ _____    ______ ____
ROOT
ATOM      1  C   UNL     1       2.980   5.909  19.688  0.00  0.00    +0.000 A 
ATOM      2  N   UNL     1       3.811   4.969  19.198  0.00  0.00    +0.000 NA
ATOM      3  C   UNL     1       4.382   5.302  18.025  0.00  0.00    +0.000 A 
ATOM      4  S   UNL     1       5.474   4.240  17.257  0.00  0.00    +0.000 S 
ATOM      5  C   UNL     1       5.698   5.327  15.985  0.00  0.00    +0.000 A 
ATOM      6 CL   UNL     1       6.770   4.934  14.701  0.00  0.00    +0.000 Cl
ATOM      7  C   UNL     1       4.964   6.479  16.107  0.00  0.00    +0.000 A 
ATOM      8  C   UNL     1       4.177   6.478  17.313  0.00  0.00    +0.000 A 
ATOM      9  C   UNL     1       3.270   7.404  17.883  0.00  0.00    +0.000 A 
ATOM     10  C   UNL     1       2.643   7.144  19.124  0.00  0.00    +0.000 A 
ENDROOT
BRANCH  10  11
ATOM     11  C   UNL     1       1.704   8.106  19.773  0.00  0.00    +0.000 A 
ATOM     12  C   UNL     1       1.196   7.908  21.071  0.00  0.00    +0.000 A 
ATOM     13  C   UNL     1       0.283   8.798  21.651  0.00  0.00    +0.000 A 
ATOM     14  C   UNL     1      -0.202   9.877  20.918  0.00  0.00    +0.000 A 
ATOM     15  C   UNL     1       0.249  10.079  19.620  0.00  0.00    +0.000 A 
ATOM     16  C   UNL     1       1.252   9.254  19.093  0.00  0.00    +0.000 A 
BRANCH  15  17
ATOM     17  O   UNL     1      -0.313  11.123  18.916  0.00  0.00    +0.000 OA
BRANCH  17  18
ATOM     18  C   UNL     1      -1.540  10.932  18.314  0.00  0.00    +0.000 A 
ATOM     19  C   UNL     1      -1.783  10.020  17.281  0.00  0.00    +0.000 A 
ATOM     20  C   UNL     1      -3.051   9.937  16.700  0.00  0.00    +0.000 A 
ATOM     21  C   UNL     1      -4.092  10.728  17.184  0.00  0.00    +0.000 A 
ATOM     22  C   UNL     1      -3.869  11.591  18.257  0.00  0.00    +0.000 A 
ATOM     23  C   UNL     1      -2.595  11.692  18.822  0.00  0.00    +0.000 A 
ENDBRANCH  17  18
ENDBRANCH  15  17
ENDBRANCH  10  11
BRANCH   1  24
ATOM     24  O   UNL     1       2.471   5.513  20.886  0.00  0.00    +0.000 OA
ATOM     25  H   UNL     1       1.651   5.078  20.590  0.00  0.00    +0.000 HD
ENDBRANCH   1  24
BRANCH   9  26
ATOM     26  O   UNL     1       2.966   8.567  17.206  0.00  0.00    +0.000 OA
ATOM     27  H   UNL     1       2.718   8.360  16.291  0.00  0.00    +0.000 HD
ENDBRANCH   9  26
TORSDOF 5
ENDMDL
MODEL 7
REMARK VINA RESULT:      -7.4      1.544      2.028
REMARK  Name = 
REMARK  5 active torsions:
REMARK  status: ('A' for Active; 'I' for Inactive)
REMARK    1  A    between atoms: O_1  and  C_2
REMARK    2  A    between atoms: C_10  and  O_11
REMARK    3  A    between atoms: C_12  and  C_13
REMARK    4  A    between atoms: C_17  and  O_18
REMARK    5  A    between atoms: O_18  and  C_19
REMARK                            x       y       z     vdW  Elec       q    Type
REMARK                         _______ _______ _______ _____ _____    ______ ____
ROOT
ATOM      1  C   UNL     1       1.429   9.458  21.410  0.00  0.00    +0.000 A 
ATOM      2  N   UNL     1       1.124  10.711  21.795  0.00  0.00    +0.000 NA
ATOM      3  C   UNL     1       0.765  11.522  20.781  0.00  0.00    +0.000 A 
ATOM      4  S   UNL     1       0.330  13.144  21.076  0.00  0.00    +0.000 S 
ATOM      5  C   UNL     1       0.045  13.409  19.434  0.00  0.00    +0.000 A 
ATOM      6 CL   UNL     1      -0.486  14.951  18.894  0.00  0.00    +0.000 Cl
ATOM      7  C   UNL     1       0.275  12.308  18.649  0.00  0.00    +0.000 A 
ATOM      8  C   UNL     1       0.705  11.180  19.435  0.00  0.00    +0.000 A 
ATOM      9  C   UNL     1       1.066   9.850  19.110  0.00  0.00    +0.000 A 
ATOM     10  C   UNL     1       1.433   8.927  20.117  0.00  0.00    +0.000 A 
ENDROOT
BRANCH  10  11
ATOM     11  C   UNL     1       1.793   7.507  19.820  0.00  0.00    +0.000 A 
ATOM     12  C   UNL     1       1.274   6.427  20.557  0.00  0.00    +0.000 A 
ATOM     13  C   UNL     1       1.653   5.104  20.294  0.00  0.00    +0.000 A 
ATOM     14  C   UNL     1       2.617   4.832  19.329  0.00  0.00    +0.000 A 
ATOM     15  C   UNL     1       3.178   5.880  18.610  0.00  0.00    +0.000 A 
ATOM     16  C   UNL     1       2.705   7.186  18.796  0.00  0.00    +0.000 A 
BRANCH  15  17
ATOM     17  O   UNL     1       4.177   5.562  17.713  0.00  0.00    +0.000 OA
BRANCH  17  18
ATOM     18  C   UNL     1       5.476   5.912  18.016  0.00  0.00    +0.000 A 
ATOM     19  C   UNL     1       6.239   5.323  19.031  0.00  0.00    +0.000 A 
ATOM     20  C   UNL     1       7.532   5.782  19.295  0.00  0.00    +0.000 A 
ATOM     21  C   UNL     1       8.085   6.795  18.514  0.00  0.00    +0.000 A 
ATOM     22  C   UNL     1       7.350   7.340  17.460  0.00  0.00    +0.000 A 
ATOM     23  C   UNL     1       6.049   6.897  17.210  0.00  0.00    +0.000 A 
ENDBRANCH  17  18
ENDBRANCH  15  17
ENDBRANCH  10  11
BRANCH   1  24
ATOM     24  O   UNL     1       1.748   8.695  22.492  0.00  0.00    +0.000 OA
ATOM     25  H   UNL     1       2.222   7.964  22.054  0.00  0.00    +0.000 HD
ENDBRANCH   1  24
BRANCH   9  26
ATOM     26  O   UNL     1       1.092   9.452  17.790  0.00  0.00    +0.000 OA
ATOM     27  H   UNL     1       1.586   8.622  17.706  0.00  0.00    +0.000 HD
ENDBRANCH   9  26
TORSDOF 5
ENDMDL
MODEL 8
REMARK VINA RESULT:      -7.3      3.056      4.869
REMARK  Name = 
REMARK  5 active torsions:
REMARK  status: ('A' for Active; 'I' for Inactive)
REMARK    1  A    between atoms: O_1  and  C_2
REMARK    2  A    between atoms: C_10  and  O_11
REMARK    3  A    between atoms: C_12  and  C_13
REMARK    4  A    between atoms: C_17  and  O_18
REMARK    5  A    between atoms: O_18  and  C_19
REMARK                            x       y       z     vdW  Elec       q    Type
REMARK                         _______ _______ _______ _____ _____    ______ ____
ROOT
ATOM      1  C   UNL     1       0.466  10.487  21.197  0.00  0.00    +0.000 A 
ATOM      2  N   UNL     1      -0.372  11.325  21.836  0.00  0.00    +0.000 NA
ATOM      3  C   UNL     1      -1.409  11.739  21.084  0.00  0.00    +0.000 A 
ATOM      4  S   UNL     1      -2.584  12.795  21.728  0.00  0.00    +0.000 S 
ATOM      5  C   UNL     1      -3.438  12.797  20.272  0.00  0.00    +0.000 A 
ATOM      6 CL   UNL     1      -4.886  13.711  20.129  0.00  0.00    +0.000 Cl
ATOM      7  C   UNL     1      -2.862  12.028  19.293  0.00  0.00    +0.000 A 
ATOM      8  C   UNL     1      -1.657  11.395  19.760  0.00  0.00    +0.000 A 
ATOM      9  C   UNL     1      -0.714  10.531  19.152  0.00  0.00    +0.000 A 
ATOM     10  C   UNL     1       0.392  10.030  19.878  0.00  0.00    +0.000 A 
ENDROOT
BRANCH  10  11
ATOM     11  C   UNL     1       1.393   9.094  19.283  0.00  0.00    +0.000 A 
ATOM     12  C   UNL     1       1.936   9.284  17.998  0.00  0.00    +0.000 A 
ATOM     13  C   UNL     1       2.841   8.375  17.437  0.00  0.00    +0.000 A 
ATOM     14  C   UNL     1       3.176   7.210  18.121  0.00  0.00    +0.000 A 
ATOM     15  C   UNL     1       2.627   6.973  19.374  0.00  0.00    +0.000 A 
ATOM     16  C   UNL     1       1.818   7.944  19.978  0.00  0.00    +0.000 A 
BRANCH  15  17
ATOM     17  O   UNL     1       2.938   5.773  19.979  0.00  0.00    +0.000 OA
BRANCH  17  18
ATOM     18  C   UNL     1       2.319   4.624  19.532  0.00  0.00    +0.000 A 
ATOM     19  C   UNL     1       2.712   3.899  18.401  0.00  0.00    +0.000 A 
ATOM     20  C   UNL     1       1.988   2.775  17.999  0.00  0.00    +0.000 A 
ATOM     21  C   UNL     1       0.900   2.341  18.754  0.00  0.00    +0.000 A 
ATOM     22  C   UNL     1       0.544   3.023  19.918  0.00  0.00    +0.000 A 
ATOM     23  C   UNL     1       1.254   4.161  20.307  0.00  0.00    +0.000 A 
ENDBRANCH  17  18
ENDBRANCH  15  17
ENDBRANCH  10  11
BRANCH   1  24
ATOM     24  O   UNL     1       1.466  10.090  22.031  0.00  0.00    +0.000 OA
ATOM     25  H   UNL     1       0.943   9.799  22.801  0.00  0.00    +0.000 HD
ENDBRANCH   1  24
BRANCH   9  26
ATOM     26  O   UNL     1      -0.856  10.193  17.822  0.00  0.00    +0.000 OA
ATOM     27  H   UNL     1      -0.404   9.352  17.647  0.00  0.00    +0.000 HD
ENDBRANCH   9  26
TORSDOF 5
ENDMDL
MODEL 9
REMARK VINA RESULT:      -7.3      3.221      5.115
REMARK  Name = 
REMARK  5 active torsions:
REMARK  status: ('A' for Active; 'I' for Inactive)
REMARK    1  A    between atoms: O_1  and  C_2
REMARK    2  A    between atoms: C_10  and  O_11
REMARK    3  A    between atoms: C_12  and  C_13
REMARK    4  A    between atoms: C_17  and  O_18
REMARK    5  A    between atoms: O_18  and  C_19
REMARK                            x       y       z     vdW  Elec       q    Type
REMARK                         _______ _______ _______ _____ _____    ______ ____
ROOT
ATOM      1  C   UNL     1      -0.852  10.682  18.993  0.00  0.00    +0.000 A 
ATOM      2  N   UNL     1      -1.810  11.561  19.343  0.00  0.00    +0.000 NA
ATOM      3  C   UNL     1      -1.674  12.049  20.591  0.00  0.00    +0.000 A 
ATOM      4  S   UNL     1      -2.787  13.185  21.206  0.00  0.00    +0.000 S 
ATOM      5  C   UNL     1      -1.956  13.264  22.674  0.00  0.00    +0.000 A 
ATOM      6 CL   UNL     1      -2.518  14.303  23.921  0.00  0.00    +0.000 Cl
ATOM      7  C   UNL     1      -0.856  12.447  22.729  0.00  0.00    +0.000 A 
ATOM      8  C   UNL     1      -0.676  11.719  21.501  0.00  0.00    +0.000 A 
ATOM      9  C   UNL     1       0.278  10.768  21.065  0.00  0.00    +0.000 A 
ATOM     10  C   UNL     1       0.222  10.222  19.761  0.00  0.00    +0.000 A 
ENDROOT
BRANCH  10  11
ATOM     11  C   UNL     1       1.226   9.239  19.252  0.00  0.00    +0.000 A 
ATOM     12  C   UNL     1       1.814   9.351  17.978  0.00  0.00    +0.000 A 
ATOM     13  C   UNL     1       2.722   8.399  17.498  0.00  0.00    +0.000 A 
ATOM     14  C   UNL     1       3.015   7.269  18.255  0.00  0.00    +0.000 A 
ATOM     15  C   UNL     1       2.421   7.109  19.500  0.00  0.00    +0.000 A 
ATOM     16  C   UNL     1       1.609   8.124  20.022  0.00  0.00    +0.000 A 
BRANCH  15  17
ATOM     17  O   UNL     1       2.694   5.940  20.179  0.00  0.00    +0.000 OA
BRANCH  17  18
ATOM     18  C   UNL     1       2.164   4.758  19.704  0.00  0.00    +0.000 A 
ATOM     19  C   UNL     1       1.008   4.149  20.205  0.00  0.00    +0.000 A 
ATOM     20  C   UNL     1       0.578   2.924  19.691  0.00  0.00    +0.000 A 
ATOM     21  C   UNL     1       1.274   2.328  18.641  0.00  0.00    +0.000 A 
ATOM     22  C   UNL     1       2.390   2.963  18.096  0.00  0.00    +0.000 A 
ATOM     23  C   UNL     1       2.833   4.178  18.625  0.00  0.00    +0.000 A 
ENDBRANCH  17  18
ENDBRANCH  15  17
ENDBRANCH  10  11
BRANCH   1  24
ATOM     24  O   UNL     1      -1.040  10.261  17.712  0.00  0.00    +0.000 OA
ATOM     25  H   UNL     1      -1.080  11.120  17.252  0.00  0.00    +0.000 HD
ENDBRANCH   1  24
BRANCH   9  26
ATOM     26  O   UNL     1       1.263  10.342  21.931  0.00  0.00    +0.000 OA
ATOM     27  H   UNL     1       2.136  10.520  21.550  0.00  0.00    +0.000 HD
ENDBRANCH   9  26
TORSDOF 5
ENDMDL
