MODEL 1
REMARK VINA RESULT:      -7.2      0.000      0.000
REMARK  Name = 
REMARK  11 active torsions:
REMARK  status: ('A' for Active; 'I' for Inactive)
REMARK    1  A    between atoms: C_1  and  C_2
REMARK    2  A    between atoms: C_2  and  N_3
REMARK    3  A    between atoms: C_5  and  C_6
REMARK    4  A    between atoms: N_11  and  C_12
REMARK    5  A    between atoms: C_12  and  C_13
REMARK    6  A    between atoms: C_12  and  C_17
REMARK    7  A    between atoms: N_15  and  C_16
REMARK    8  A    between atoms: C_23  and  C_24
REMARK    9  A    between atoms: C_24  and  O_25
REMARK   10  A    between atoms: O_25  and  C_26
REMARK   11  A    between atoms: C_29  and  C_30
REMARK                            x       y       z     vdW  Elec       q    Type
REMARK                         _______ _______ _______ _____ _____    ______ ____
ROOT
ATOM      1  N   UNL     1      -4.983  11.492  18.683  0.00  0.00    +0.000 N 
ATOM      2  N   UNL     1      -4.488  10.576  17.833  0.00  0.00    +0.000 NA
ATOM      3  C   UNL     1      -3.159  10.753  17.874  0.00  0.00    +0.000 A 
ATOM      4  C   UNL     1      -2.303   9.903  17.009  0.00  0.00    +0.000 C 
ATOM      5  C   UNL     1      -2.798  11.796  18.775  0.00  0.00    +0.000 A 
ATOM      6  C   UNL     1      -4.012  12.263  19.240  0.00  0.00    +0.000 A 
ATOM      7  C   UNL     1      -4.176  13.374  20.211  0.00  0.00    +0.000 C 
ATOM      8  C   UNL     1      -2.792  14.038  20.440  0.00  0.00    +0.000 C 
ATOM      9  N   UNL     1      -1.619  13.094  20.541  0.00  0.00    +0.000 NA
ATOM     10  C   UNL     1      -1.479  12.431  19.174  0.00  0.00    +0.000 C 
ENDROOT
BRANCH   1  12
ATOM     11  C   UNL     1      -6.959  10.280  19.514  0.00  0.00    +0.000 C 
ATOM     12  C   UNL     1      -6.414  11.556  18.895  0.00  0.00    +0.000 C 
ENDBRANCH   1  12
BRANCH   9  13
ATOM     13  C   UNL     1      -1.791  12.167  21.724  0.00  0.00    +0.000 C 
BRANCH  13  14
ATOM     14  C   UNL     1      -2.402  12.858  22.963  0.00  0.00    +0.000 A 
ATOM     15  C   UNL     1      -3.574  12.345  23.547  0.00  0.00    +0.000 A 
ATOM     16  C   UNL     1      -4.152  12.965  24.659  0.00  0.00    +0.000 A 
ATOM     17  C   UNL     1      -3.570  14.107  25.207  0.00  0.00    +0.000 A 
ATOM     18  C   UNL     1      -2.400  14.618  24.655  0.00  0.00    +0.000 A 
ATOM     19  C   UNL     1      -1.810  13.989  23.556  0.00  0.00    +0.000 A 
ENDBRANCH  13  14
BRANCH  13  20
ATOM     20  C   UNL     1      -0.477  11.452  22.158  0.00  0.00    +0.000 C 
ATOM     21  O   UNL     1       0.623  11.969  21.970  0.00  0.00    +0.000 OA
ATOM     22  N   UNL     1      -0.620  10.227  22.765  0.00  0.00    +0.000 N 
ATOM     23  C   UNL     1       0.505   9.464  23.253  0.00  0.00    +0.000 C 
ATOM     24  H   UNL     1      -1.551   9.844  22.866  0.00  0.00    +0.000 HD
ENDBRANCH  13  20
ENDBRANCH   9  13
BRANCH  10  25
ATOM     25  C   UNL     1      -0.239  11.565  18.878  0.00  0.00    +0.000 C 
BRANCH  25  26
ATOM     26  O   UNL     1      -0.296  10.300  19.554  0.00  0.00    +0.000 OA
BRANCH  26  27
ATOM     27  C   UNL     1       0.706   9.431  19.194  0.00  0.00    +0.000 A 
ATOM     28  C   UNL     1       1.097   8.499  20.155  0.00  0.00    +0.000 A 
ATOM     29  C   UNL     1       2.070   7.538  19.854  0.00  0.00    +0.000 A 
ATOM     30  C   UNL     1       2.649   7.489  18.580  0.00  0.00    +0.000 A 
ATOM     31  C   UNL     1       3.655   6.440  18.213  0.00  0.00    +0.000 C 
ATOM     32  C   UNL     1       2.249   8.422  17.621  0.00  0.00    +0.000 A 
ATOM     33  C   UNL     1       1.293   9.389  17.929  0.00  0.00    +0.000 A 
ENDBRANCH  26  27
ENDBRANCH  25  26
ENDBRANCH  10  25
TORSDOF 7
ENDMDL
MODEL 2
REMARK VINA RESULT:      -7.1      0.204      1.218
REMARK  Name = 
REMARK  11 active torsions:
REMARK  status: ('A' for Active; 'I' for Inactive)
REMARK    1  A    between atoms: C_1  and  C_2
REMARK    2  A    between atoms: C_2  and  N_3
REMARK    3  A    between atoms: C_5  and  C_6
REMARK    4  A    between atoms: N_11  and  C_12
REMARK    5  A    between atoms: C_12  and  C_13
REMARK    6  A    between atoms: C_12  and  C_17
REMARK    7  A    between atoms: N_15  and  C_16
REMARK    8  A    between atoms: C_23  and  C_24
REMARK    9  A    between atoms: C_24  and  O_25
REMARK   10  A    between atoms: O_25  and  C_26
REMARK   11  A    between atoms: C_29  and  C_30
REMARK                            x       y       z     vdW  Elec       q    Type
REMARK                         _______ _______ _______ _____ _____    ______ ____
ROOT
ATOM      1  N   UNL     1      -4.852  11.356  18.522  0.00  0.00    +0.000 N 
ATOM      2  N   UNL     1      -4.314  10.431  17.708  0.00  0.00    +0.000 NA
ATOM      3  C   UNL     1      -2.989  10.619  17.804  0.00  0.00    +0.000 A 
ATOM      4  C   UNL     1      -2.090   9.763  16.990  0.00  0.00    +0.000 C 
ATOM      5  C   UNL     1      -2.675  11.677  18.704  0.00  0.00    +0.000 A 
ATOM      6  C   UNL     1      -3.912  12.142  19.109  0.00  0.00    +0.000 A 
ATOM      7  C   UNL     1      -4.125  13.266  20.055  0.00  0.00    +0.000 C 
ATOM      8  C   UNL     1      -2.757  13.944  20.334  0.00  0.00    +0.000 C 
ATOM      9  N   UNL     1      -1.583  13.010  20.500  0.00  0.00    +0.000 NA
ATOM     10  C   UNL     1      -1.379  12.328  19.151  0.00  0.00    +0.000 C 
ENDROOT
BRANCH   1  12
ATOM     11  C   UNL     1      -6.864  10.108  19.197  0.00  0.00    +0.000 C 
ATOM     12  C   UNL     1      -6.291  11.412  18.670  0.00  0.00    +0.000 C 
ENDBRANCH   1  12
BRANCH   9  13
ATOM     13  C   UNL     1      -1.800  12.099  21.688  0.00  0.00    +0.000 C 
BRANCH  13  14
ATOM     14  C   UNL     1      -2.439  12.813  22.901  0.00  0.00    +0.000 A 
ATOM     15  C   UNL     1      -1.833  13.961  23.440  0.00  0.00    +0.000 A 
ATOM     16  C   UNL     1      -2.387  14.612  24.547  0.00  0.00    +0.000 A 
ATOM     17  C   UNL     1      -3.554  14.128  25.135  0.00  0.00    +0.000 A 
ATOM     18  C   UNL     1      -4.178  13.002  24.604  0.00  0.00    +0.000 A 
ATOM     19  C   UNL     1      -3.638  12.363  23.486  0.00  0.00    +0.000 A 
ENDBRANCH  13  14
BRANCH  13  20
ATOM     20  C   UNL     1      -0.508  11.375  22.169  0.00  0.00    +0.000 C 
ATOM     21  O   UNL     1       0.602  11.882  22.017  0.00  0.00    +0.000 OA
ATOM     22  N   UNL     1      -0.683  10.153  22.774  0.00  0.00    +0.000 N 
ATOM     23  C   UNL     1       0.419   9.381  23.302  0.00  0.00    +0.000 C 
ATOM     24  H   UNL     1      -1.620   9.779  22.844  0.00  0.00    +0.000 HD
ENDBRANCH  13  20
ENDBRANCH   9  13
BRANCH  10  25
ATOM     25  C   UNL     1      -0.122  11.468  18.923  0.00  0.00    +0.000 C 
BRANCH  25  26
ATOM     26  O   UNL     1      -0.171  10.239  19.664  0.00  0.00    +0.000 OA
BRANCH  26  27
ATOM     27  C   UNL     1       0.762   9.312  19.268  0.00  0.00    +0.000 A 
ATOM     28  C   UNL     1       1.302   9.478  17.992  0.00  0.00    +0.000 A 
ATOM     29  C   UNL     1       2.302   8.613  17.530  0.00  0.00    +0.000 A 
ATOM     30  C   UNL     1       2.784   7.584  18.347  0.00  0.00    +0.000 A 
ATOM     31  C   UNL     1       3.888   6.675  17.899  0.00  0.00    +0.000 C 
ATOM     32  C   UNL     1       2.242   7.426  19.625  0.00  0.00    +0.000 A 
ATOM     33  C   UNL     1       1.234   8.277  20.077  0.00  0.00    +0.000 A 
ENDBRANCH  26  27
ENDBRANCH  25  26
ENDBRANCH  10  25
TORSDOF 7
ENDMDL
MODEL 3
REMARK VINA RESULT:      -6.5      2.518      4.759
REMARK  Name = 
REMARK  11 active torsions:
REMARK  status: ('A' for Active; 'I' for Inactive)
REMARK    1  A    between atoms: C_1  and  C_2
REMARK    2  A    between atoms: C_2  and  N_3
REMARK    3  A    between atoms: C_5  and  C_6
REMARK    4  A    between atoms: N_11  and  C_12
REMARK    5  A    between atoms: C_12  and  C_13
REMARK    6  A    between atoms: C_12  and  C_17
REMARK    7  A    between atoms: N_15  and  C_16
REMARK    8  A    between atoms: C_23  and  C_24
REMARK    9  A    between atoms: C_24  and  O_25
REMARK   10  A    between atoms: O_25  and  C_26
REMARK   11  A    between atoms: C_29  and  C_30
REMARK                            x       y       z     vdW  Elec       q    Type
REMARK                         _______ _______ _______ _____ _____    ______ ____
ROOT
ATOM      1  N   UNL     1      -1.780  11.866  22.764  0.00  0.00    +0.000 N 
ATOM      2  N   UNL     1      -1.162  10.807  23.317  0.00  0.00    +0.000 NA
ATOM      3  C   UNL     1      -0.391  10.311  22.338  0.00  0.00    +0.000 A 
ATOM      4  C   UNL     1       0.414   9.095  22.616  0.00  0.00    +0.000 C 
ATOM      5  C   UNL     1      -0.511  11.072  21.140  0.00  0.00    +0.000 A 
ATOM      6  C   UNL     1      -1.447  12.039  21.458  0.00  0.00    +0.000 A 
ATOM      7  C   UNL     1      -1.931  13.088  20.526  0.00  0.00    +0.000 C 
ATOM      8  C   UNL     1      -1.376  12.783  19.108  0.00  0.00    +0.000 C 
ATOM      9  N   UNL     1       0.054  12.303  19.052  0.00  0.00    +0.000 NA
ATOM     10  C   UNL     1       0.082  10.947  19.750  0.00  0.00    +0.000 C 
ENDROOT
BRANCH   1  12
ATOM     11  C   UNL     1      -2.073  13.984  23.984  0.00  0.00    +0.000 C 
ATOM     12  C   UNL     1      -2.684  12.655  23.574  0.00  0.00    +0.000 C 
ENDBRANCH   1  12
BRANCH   9  13
ATOM     13  C   UNL     1       0.986  13.361  19.601  0.00  0.00    +0.000 C 
BRANCH  13  14
ATOM     14  C   UNL     1       0.371  14.778  19.606  0.00  0.00    +0.000 A 
ATOM     15  C   UNL     1       0.199  15.465  20.821  0.00  0.00    +0.000 A 
ATOM     16  C   UNL     1      -0.370  16.742  20.849  0.00  0.00    +0.000 A 
ATOM     17  C   UNL     1      -0.777  17.356  19.666  0.00  0.00    +0.000 A 
ATOM     18  C   UNL     1      -0.598  16.699  18.451  0.00  0.00    +0.000 A 
ATOM     19  C   UNL     1      -0.011  15.432  18.419  0.00  0.00    +0.000 A 
ENDBRANCH  13  14
BRANCH  13  20
ATOM     20  C   UNL     1       2.362  13.424  18.874  0.00  0.00    +0.000 C 
ATOM     21  O   UNL     1       2.659  12.614  17.998  0.00  0.00    +0.000 OA
ATOM     22  N   UNL     1       3.209  14.435  19.259  0.00  0.00    +0.000 N 
ATOM     23  C   UNL     1       4.503  14.641  18.650  0.00  0.00    +0.000 C 
ATOM     24  H   UNL     1       2.916  15.053  20.005  0.00  0.00    +0.000 HD
ENDBRANCH  13  20
ENDBRANCH   9  13
BRANCH  10  25
ATOM     25  C   UNL     1       1.358  10.087  19.677  0.00  0.00    +0.000 C 
BRANCH  25  26
ATOM     26  O   UNL     1       1.389   9.273  18.495  0.00  0.00    +0.000 OA
BRANCH  26  27
ATOM     27  C   UNL     1       2.124   8.120  18.631  0.00  0.00    +0.000 A 
ATOM     28  C   UNL     1       3.057   7.854  17.628  0.00  0.00    +0.000 A 
ATOM     29  C   UNL     1       3.891   6.733  17.716  0.00  0.00    +0.000 A 
ATOM     30  C   UNL     1       3.811   5.874  18.819  0.00  0.00    +0.000 A 
ATOM     31  C   UNL     1       4.724   4.695  18.966  0.00  0.00    +0.000 C 
ATOM     32  C   UNL     1       2.879   6.148  19.822  0.00  0.00    +0.000 A 
ATOM     33  C   UNL     1       2.037   7.256  19.723  0.00  0.00    +0.000 A 
ENDBRANCH  26  27
ENDBRANCH  25  26
ENDBRANCH  10  25
TORSDOF 7
ENDMDL
MODEL 4
REMARK VINA RESULT:      -6.5      2.180      4.951
REMARK  Name = 
REMARK  11 active torsions:
REMARK  status: ('A' for Active; 'I' for Inactive)
REMARK    1  A    between atoms: C_1  and  C_2
REMARK    2  A    between atoms: C_2  and  N_3
REMARK    3  A    between atoms: C_5  and  C_6
REMARK    4  A    between atoms: N_11  and  C_12
REMARK    5  A    between atoms: C_12  and  C_13
REMARK    6  A    between atoms: C_12  and  C_17
REMARK    7  A    between atoms: N_15  and  C_16
REMARK    8  A    between atoms: C_23  and  C_24
REMARK    9  A    between atoms: C_24  and  O_25
REMARK   10  A    between atoms: O_25  and  C_26
REMARK   11  A    between atoms: C_29  and  C_30
REMARK                            x       y       z     vdW  Elec       q    Type
REMARK                         _______ _______ _______ _____ _____    ______ ____
ROOT
ATOM      1  N   UNL     1      -0.667  15.497  19.432  0.00  0.00    +0.000 N 
ATOM      2  N   UNL     1       0.489  15.227  18.803  0.00  0.00    +0.000 NA
ATOM      3  C   UNL     1       0.567  13.888  18.788  0.00  0.00    +0.000 A 
ATOM      4  C   UNL     1       1.763  13.253  18.180  0.00  0.00    +0.000 C 
ATOM      5  C   UNL     1      -0.566  13.291  19.411  0.00  0.00    +0.000 A 
ATOM      6  C   UNL     1      -1.311  14.373  19.843  0.00  0.00    +0.000 A 
ATOM      7  C   UNL     1      -2.600  14.276  20.572  0.00  0.00    +0.000 C 
ATOM      8  C   UNL     1      -2.849  12.789  20.941  0.00  0.00    +0.000 C 
ATOM      9  N   UNL     1      -2.487  11.779  19.879  0.00  0.00    +0.000 NA
ATOM     10  C   UNL     1      -0.974  11.860  19.705  0.00  0.00    +0.000 C 
ENDROOT
BRANCH   1  12
ATOM     11  C   UNL     1      -1.051  17.643  18.288  0.00  0.00    +0.000 C 
ATOM     12  C   UNL     1      -1.072  16.877  19.600  0.00  0.00    +0.000 C 
ENDBRANCH   1  12
BRANCH   9  13
ATOM     13  C   UNL     1      -3.320  12.002  18.637  0.00  0.00    +0.000 C 
BRANCH  13  14
ATOM     14  C   UNL     1      -4.831  12.149  18.928  0.00  0.00    +0.000 A 
ATOM     15  C   UNL     1      -5.647  12.884  18.050  0.00  0.00    +0.000 A 
ATOM     16  C   UNL     1      -7.013  13.042  18.304  0.00  0.00    +0.000 A 
ATOM     17  C   UNL     1      -7.588  12.471  19.437  0.00  0.00    +0.000 A 
ATOM     18  C   UNL     1      -6.799  11.725  20.308  0.00  0.00    +0.000 A 
ATOM     19  C   UNL     1      -5.439  11.548  20.046  0.00  0.00    +0.000 A 
ENDBRANCH  13  14
BRANCH  13  20
ATOM     20  C   UNL     1      -3.134  10.902  17.550  0.00  0.00    +0.000 C 
ATOM     21  O   UNL     1      -3.170   9.706  17.839  0.00  0.00    +0.000 OA
ATOM     22  N   UNL     1      -2.940  11.342  16.263  0.00  0.00    +0.000 N 
ATOM     23  C   UNL     1      -2.788  10.439  15.146  0.00  0.00    +0.000 C 
ATOM     24  H   UNL     1      -2.893  12.339  16.095  0.00  0.00    +0.000 HD
ENDBRANCH  13  20
ENDBRANCH   9  13
BRANCH  10  25
ATOM     25  C   UNL     1      -0.257  10.803  18.842  0.00  0.00    +0.000 C 
BRANCH  25  26
ATOM     26  O   UNL     1       1.091  10.579  19.280  0.00  0.00    +0.000 OA
BRANCH  26  27
ATOM     27  C   UNL     1       1.471   9.259  19.261  0.00  0.00    +0.000 A 
ATOM     28  C   UNL     1       1.995   8.779  18.060  0.00  0.00    +0.000 A 
ATOM     29  C   UNL     1       2.461   7.462  17.967  0.00  0.00    +0.000 A 
ATOM     30  C   UNL     1       2.423   6.615  19.082  0.00  0.00    +0.000 A 
ATOM     31  C   UNL     1       2.961   5.217  19.028  0.00  0.00    +0.000 C 
ATOM     32  C   UNL     1       1.902   7.103  20.283  0.00  0.00    +0.000 A 
ATOM     33  C   UNL     1       1.422   8.410  20.367  0.00  0.00    +0.000 A 
ENDBRANCH  26  27
ENDBRANCH  25  26
ENDBRANCH  10  25
TORSDOF 7
ENDMDL
MODEL 5
REMARK VINA RESULT:      -6.5      2.628      4.782
REMARK  Name = 
REMARK  11 active torsions:
REMARK  status: ('A' for Active; 'I' for Inactive)
REMARK    1  A    between atoms: C_1  and  C_2
REMARK    2  A    between atoms: C_2  and  N_3
REMARK    3  A    between atoms: C_5  and  C_6
REMARK    4  A    between atoms: N_11  and  C_12
REMARK    5  A    between atoms: C_12  and  C_13
REMARK    6  A    between atoms: C_12  and  C_17
REMARK    7  A    between atoms: N_15  and  C_16
REMARK    8  A    between atoms: C_23  and  C_24
REMARK    9  A    between atoms: C_24  and  O_25
REMARK   10  A    between atoms: O_25  and  C_26
REMARK   11  A    between atoms: C_29  and  C_30
REMARK                            x       y       z     vdW  Elec       q    Type
REMARK                         _______ _______ _______ _____ _____    ______ ____
ROOT
ATOM      1  N   UNL     1      -1.340  11.940  22.817  0.00  0.00    +0.000 N 
ATOM      2  N   UNL     1      -0.692  10.865  23.297  0.00  0.00    +0.000 NA
ATOM      3  C   UNL     1      -0.020  10.372  22.247  0.00  0.00    +0.000 A 
ATOM      4  C   UNL     1       0.788   9.141  22.435  0.00  0.00    +0.000 C 
ATOM      5  C   UNL     1      -0.235  11.153  21.075  0.00  0.00    +0.000 A 
ATOM      6  C   UNL     1      -1.122  12.128  21.489  0.00  0.00    +0.000 A 
ATOM      7  C   UNL     1      -1.672  13.198  20.618  0.00  0.00    +0.000 C 
ATOM      8  C   UNL     1      -1.251  12.907  19.153  0.00  0.00    +0.000 C 
ATOM      9  N   UNL     1       0.161  12.406  18.961  0.00  0.00    +0.000 NA
ATOM     10  C   UNL     1       0.229  11.040  19.635  0.00  0.00    +0.000 C 
ENDROOT
BRANCH   1  12
ATOM     11  C   UNL     1      -3.618  12.321  23.670  0.00  0.00    +0.000 C 
ATOM     12  C   UNL     1      -2.156  12.730  23.715  0.00  0.00    +0.000 C 
ENDBRANCH   1  12
BRANCH   9  13
ATOM     13  C   UNL     1       1.154  13.443  19.439  0.00  0.00    +0.000 C 
BRANCH  13  14
ATOM     14  C   UNL     1       0.580  14.877  19.470  0.00  0.00    +0.000 A 
ATOM     15  C   UNL     1       0.046  15.446  18.300  0.00  0.00    +0.000 A 
ATOM     16  C   UNL     1      -0.464  16.748  18.305  0.00  0.00    +0.000 A 
ATOM     17  C   UNL     1      -0.450  17.504  19.476  0.00  0.00    +0.000 A 
ATOM     18  C   UNL     1       0.057  16.951  20.648  0.00  0.00    +0.000 A 
ATOM     19  C   UNL     1       0.549  15.644  20.650  0.00  0.00    +0.000 A 
ENDBRANCH  13  14
BRANCH  13  20
ATOM     20  C   UNL     1       2.481  13.462  18.624  0.00  0.00    +0.000 C 
ATOM     21  O   UNL     1       2.716  12.613  17.766  0.00  0.00    +0.000 OA
ATOM     22  N   UNL     1       3.359  14.480  18.911  0.00  0.00    +0.000 N 
ATOM     23  C   UNL     1       4.613  14.648  18.213  0.00  0.00    +0.000 C 
ATOM     24  H   UNL     1       3.118  15.132  19.647  0.00  0.00    +0.000 HD
ENDBRANCH  13  20
ENDBRANCH   9  13
BRANCH  10  25
ATOM     25  C   UNL     1       1.481  10.163  19.436  0.00  0.00    +0.000 C 
BRANCH  25  26
ATOM     26  O   UNL     1       1.261   9.130  18.464  0.00  0.00    +0.000 OA
BRANCH  26  27
ATOM     27  C   UNL     1       2.181   8.111  18.517  0.00  0.00    +0.000 A 
ATOM     28  C   UNL     1       2.089   7.245  19.608  0.00  0.00    +0.000 A 
ATOM     29  C   UNL     1       2.949   6.145  19.712  0.00  0.00    +0.000 A 
ATOM     30  C   UNL     1       3.899   5.889  18.716  0.00  0.00    +0.000 A 
ATOM     31  C   UNL     1       4.798   4.691  18.774  0.00  0.00    +0.000 C 
ATOM     32  C   UNL     1       3.982   6.756  17.624  0.00  0.00    +0.000 A 
ATOM     33  C   UNL     1       3.137   7.862  17.532  0.00  0.00    +0.000 A 
ENDBRANCH  26  27
ENDBRANCH  25  26
ENDBRANCH  10  25
TORSDOF 7
ENDMDL
MODEL 6
REMARK VINA RESULT:      -6.4      0.951      1.557
REMARK  Name = 
REMARK  11 active torsions:
REMARK  status: ('A' for Active; 'I' for Inactive)
REMARK    1  A    between atoms: C_1  and  C_2
REMARK    2  A    between atoms: C_2  and  N_3
REMARK    3  A    between atoms: C_5  and  C_6
REMARK    4  A    between atoms: N_11  and  C_12
REMARK    5  A    between atoms: C_12  and  C_13
REMARK    6  A    between atoms: C_12  and  C_17
REMARK    7  A    between atoms: N_15  and  C_16
REMARK    8  A    between atoms: C_23  and  C_24
REMARK    9  A    between atoms: C_24  and  O_25
REMARK   10  A    between atoms: O_25  and  C_26
REMARK   11  A    between atoms: C_29  and  C_30
REMARK                            x       y       z     vdW  Elec       q    Type
REMARK                         _______ _______ _______ _____ _____    ______ ____
ROOT
ATOM      1  N   UNL     1      -4.907  12.227  18.819  0.00  0.00    +0.000 N 
ATOM      2  N   UNL     1      -4.926  11.117  18.061  0.00  0.00    +0.000 NA
ATOM      3  C   UNL     1      -3.647  10.716  18.008  0.00  0.00    +0.000 A 
ATOM      4  C   UNL     1      -3.314   9.511  17.207  0.00  0.00    +0.000 C 
ATOM      5  C   UNL     1      -2.796  11.581  18.754  0.00  0.00    +0.000 A 
ATOM      6  C   UNL     1      -3.652  12.559  19.224  0.00  0.00    +0.000 A 
ATOM      7  C   UNL     1      -3.241  13.714  20.060  0.00  0.00    +0.000 C 
ATOM      8  C   UNL     1      -1.690  13.745  20.130  0.00  0.00    +0.000 C 
ATOM      9  N   UNL     1      -1.012  12.405  20.281  0.00  0.00    +0.000 NA
ATOM     10  C   UNL     1      -1.300  11.629  19.000  0.00  0.00    +0.000 C 
ENDROOT
BRANCH   1  12
ATOM     11  C   UNL     1      -7.164  12.737  17.979  0.00  0.00    +0.000 C 
ATOM     12  C   UNL     1      -6.152  12.911  19.099  0.00  0.00    +0.000 C 
ENDBRANCH   1  12
BRANCH   9  13
ATOM     13  C   UNL     1      -1.434  11.746  21.576  0.00  0.00    +0.000 C 
BRANCH  13  14
ATOM     14  C   UNL     1      -1.955  12.745  22.633  0.00  0.00    +0.000 A 
ATOM     15  C   UNL     1      -1.091  13.719  23.165  0.00  0.00    +0.000 A 
ATOM     16  C   UNL     1      -1.540  14.622  24.135  0.00  0.00    +0.000 A 
ATOM     17  C   UNL     1      -2.856  14.568  24.589  0.00  0.00    +0.000 A 
ATOM     18  C   UNL     1      -3.730  13.623  24.061  0.00  0.00    +0.000 A 
ATOM     19  C   UNL     1      -3.290  12.733  23.078  0.00  0.00    +0.000 A 
ENDBRANCH  13  14
BRANCH  13  20
ATOM     20  C   UNL     1      -0.320  10.875  22.229  0.00  0.00    +0.000 C 
ATOM     21  O   UNL     1       0.852  10.960  21.866  0.00  0.00    +0.000 OA
ATOM     22  N   UNL     1      -0.720  10.023  23.230  0.00  0.00    +0.000 N 
ATOM     23  C   UNL     1       0.205   9.180  23.951  0.00  0.00    +0.000 C 
ATOM     24  H   UNL     1      -1.704   9.980  23.464  0.00  0.00    +0.000 HD
ENDBRANCH  13  20
ENDBRANCH   9  13
BRANCH  10  25
ATOM     25  C   UNL     1      -0.569  10.297  18.745  0.00  0.00    +0.000 C 
BRANCH  25  26
ATOM     26  O   UNL     1       0.855  10.438  18.854  0.00  0.00    +0.000 OA
BRANCH  26  27
ATOM     27  C   UNL     1       1.537   9.245  18.830  0.00  0.00    +0.000 A 
ATOM     28  C   UNL     1       2.266   8.968  17.673  0.00  0.00    +0.000 A 
ATOM     29  C   UNL     1       3.037   7.803  17.585  0.00  0.00    +0.000 A 
ATOM     30  C   UNL     1       3.099   6.910  18.662  0.00  0.00    +0.000 A 
ATOM     31  C   UNL     1       3.956   5.681  18.616  0.00  0.00    +0.000 C 
ATOM     32  C   UNL     1       2.371   7.195  19.819  0.00  0.00    +0.000 A 
ATOM     33  C   UNL     1       1.590   8.348  19.897  0.00  0.00    +0.000 A 
ENDBRANCH  26  27
ENDBRANCH  25  26
ENDBRANCH  10  25
TORSDOF 7
ENDMDL
MODEL 7
REMARK VINA RESULT:      -6.4      3.157      7.254
REMARK  Name = 
REMARK  11 active torsions:
REMARK  status: ('A' for Active; 'I' for Inactive)
REMARK    1  A    between atoms: C_1  and  C_2
REMARK    2  A    between atoms: C_2  and  N_3
REMARK    3  A    between atoms: C_5  and  C_6
REMARK    4  A    between atoms: N_11  and  C_12
REMARK    5  A    between atoms: C_12  and  C_13
REMARK    6  A    between atoms: C_12  and  C_17
REMARK    7  A    between atoms: N_15  and  C_16
REMARK    8  A    between atoms: C_23  and  C_24
REMARK    9  A    between atoms: C_24  and  O_25
REMARK   10  A    between atoms: O_25  and  C_26
REMARK   11  A    between atoms: C_29  and  C_30
REMARK                            x       y       z     vdW  Elec       q    Type
REMARK                         _______ _______ _______ _____ _____    ______ ____
ROOT
ATOM      1  N   UNL     1      -1.862  11.042  18.449  0.00  0.00    +0.000 N 
ATOM      2  N   UNL     1      -3.128  11.443  18.657  0.00  0.00    +0.000 NA
ATOM      3  C   UNL     1      -3.048  12.318  19.671  0.00  0.00    +0.000 A 
ATOM      4  C   UNL     1      -4.300  12.935  20.176  0.00  0.00    +0.000 C 
ATOM      5  C   UNL     1      -1.704  12.486  20.112  0.00  0.00    +0.000 A 
ATOM      6  C   UNL     1      -0.986  11.613  19.317  0.00  0.00    +0.000 A 
ATOM      7  C   UNL     1       0.482  11.407  19.397  0.00  0.00    +0.000 C 
ATOM      8  C   UNL     1       1.020  12.166  20.639  0.00  0.00    +0.000 C 
ATOM      9  N   UNL     1       0.418  13.528  20.890  0.00  0.00    +0.000 NA
ATOM     10  C   UNL     1      -1.053  13.296  21.217  0.00  0.00    +0.000 C 
ENDROOT
BRANCH   1  12
ATOM     11  C   UNL     1      -2.783   9.906  16.468  0.00  0.00    +0.000 C 
ATOM     12  C   UNL     1      -1.589  10.096  17.388  0.00  0.00    +0.000 C 
ENDBRANCH   1  12
BRANCH   9  13
ATOM     13  C   UNL     1       0.711  14.453  19.729  0.00  0.00    +0.000 C 
BRANCH  13  14
ATOM     14  C   UNL     1       2.221  14.638  19.456  0.00  0.00    +0.000 A 
ATOM     15  C   UNL     1       3.112  14.818  20.528  0.00  0.00    +0.000 A 
ATOM     16  C   UNL     1       4.479  15.002  20.301  0.00  0.00    +0.000 A 
ATOM     17  C   UNL     1       4.980  15.011  19.000  0.00  0.00    +0.000 A 
ATOM     18  C   UNL     1       4.116  14.817  17.927  0.00  0.00    +0.000 A 
ATOM     19  C   UNL     1       2.753  14.612  18.153  0.00  0.00    +0.000 A 
ENDBRANCH  13  14
BRANCH  13  20
ATOM     20  C   UNL     1       0.060  15.861  19.868  0.00  0.00    +0.000 C 
ATOM     21  O   UNL     1       0.353  16.610  20.799  0.00  0.00    +0.000 OA
ATOM     22  N   UNL     1      -0.842  16.215  18.894  0.00  0.00    +0.000 N 
ATOM     23  C   UNL     1      -1.498  17.502  18.871  0.00  0.00    +0.000 C 
ATOM     24  H   UNL     1      -1.059  15.542  18.169  0.00  0.00    +0.000 HD
ENDBRANCH  13  20
ENDBRANCH   9  13
BRANCH  10  25
ATOM     25  C   UNL     1      -1.906  14.472  21.733  0.00  0.00    +0.000 C 
BRANCH  25  26
ATOM     26  O   UNL     1      -2.145  14.381  23.145  0.00  0.00    +0.000 OA
BRANCH  26  27
ATOM     27  C   UNL     1      -3.452  14.114  23.472  0.00  0.00    +0.000 A 
ATOM     28  C   UNL     1      -4.374  15.136  23.240  0.00  0.00    +0.000 A 
ATOM     29  C   UNL     1      -5.736  14.930  23.489  0.00  0.00    +0.000 A 
ATOM     30  C   UNL     1      -6.193  13.693  23.959  0.00  0.00    +0.000 A 
ATOM     31  C   UNL     1      -7.651  13.427  24.186  0.00  0.00    +0.000 C 
ATOM     32  C   UNL     1      -5.266  12.672  24.185  0.00  0.00    +0.000 A 
ATOM     33  C   UNL     1      -3.908  12.886  23.952  0.00  0.00    +0.000 A 
ENDBRANCH  26  27
ENDBRANCH  25  26
ENDBRANCH  10  25
TORSDOF 7
ENDMDL
MODEL 8
REMARK VINA RESULT:      -6.4      2.177      3.265
REMARK  Name = 
REMARK  11 active torsions:
REMARK  status: ('A' for Active; 'I' for Inactive)
REMARK    1  A    between atoms: C_1  and  C_2
REMARK    2  A    between atoms: C_2  and  N_3
REMARK    3  A    between atoms: C_5  and  C_6
REMARK    4  A    between atoms: N_11  and  C_12
REMARK    5  A    between atoms: C_12  and  C_13
REMARK    6  A    between atoms: C_12  and  C_17
REMARK    7  A    between atoms: N_15  and  C_16
REMARK    8  A    between atoms: C_23  and  C_24
REMARK    9  A    between atoms: C_24  and  O_25
REMARK   10  A    between atoms: O_25  and  C_26
REMARK   11  A    between atoms: C_29  and  C_30
REMARK                            x       y       z     vdW  Elec       q    Type
REMARK                         _______ _______ _______ _____ _____    ______ ____
ROOT
ATOM      1  N   UNL     1      -5.399  11.584  18.998  0.00  0.00    +0.000 N 
ATOM      2  N   UNL     1      -4.932  10.672  18.128  0.00  0.00    +0.000 NA
ATOM      3  C   UNL     1      -3.606  10.870  18.102  0.00  0.00    +0.000 A 
ATOM      4  C   UNL     1      -2.781  10.029  17.198  0.00  0.00    +0.000 C 
ATOM      5  C   UNL     1      -3.217  11.922  18.980  0.00  0.00    +0.000 A 
ATOM      6  C   UNL     1      -4.414  12.373  19.503  0.00  0.00    +0.000 A 
ATOM      7  C   UNL     1      -4.547  13.485  20.477  0.00  0.00    +0.000 C 
ATOM      8  C   UNL     1      -3.163  14.172  20.634  0.00  0.00    +0.000 C 
ATOM      9  N   UNL     1      -1.972  13.247  20.679  0.00  0.00    +0.000 NA
ATOM     10  C   UNL     1      -1.890  12.580  19.310  0.00  0.00    +0.000 C 
ENDROOT
BRANCH   1  12
ATOM     11  C   UNL     1      -7.228  10.588  20.311  0.00  0.00    +0.000 C 
ATOM     12  C   UNL     1      -6.818  11.626  19.281  0.00  0.00    +0.000 C 
ENDBRANCH   1  12
BRANCH   9  13
ATOM     13  C   UNL     1      -2.070  12.323  21.873  0.00  0.00    +0.000 C 
BRANCH  13  14
ATOM     14  C   UNL     1      -2.535  13.033  23.164  0.00  0.00    +0.000 A 
ATOM     15  C   UNL     1      -3.651  12.548  23.869  0.00  0.00    +0.000 A 
ATOM     16  C   UNL     1      -4.098  13.186  25.030  0.00  0.00    +0.000 A 
ATOM     17  C   UNL     1      -3.440  14.318  25.508  0.00  0.00    +0.000 A 
ATOM     18  C   UNL     1      -2.322  14.801  24.833  0.00  0.00    +0.000 A 
ATOM     19  C   UNL     1      -1.862  14.154  23.684  0.00  0.00    +0.000 A 
ENDBRANCH  13  14
BRANCH  13  20
ATOM     20  C   UNL     1      -0.750  11.555  22.183  0.00  0.00    +0.000 C 
ATOM     21  O   UNL     1       0.349  12.067  21.978  0.00  0.00    +0.000 OA
ATOM     22  N   UNL     1      -0.888  10.290  22.701  0.00  0.00    +0.000 N 
ATOM     23  C   UNL     1       0.245   9.472  23.070  0.00  0.00    +0.000 C 
ATOM     24  H   UNL     1      -1.821   9.915  22.820  0.00  0.00    +0.000 HD
ENDBRANCH  13  20
ENDBRANCH   9  13
BRANCH  10  25
ATOM     25  C   UNL     1      -0.653  11.733  18.956  0.00  0.00    +0.000 C 
BRANCH  25  26
ATOM     26  O   UNL     1       0.240  12.430  18.075  0.00  0.00    +0.000 OA
BRANCH  26  27
ATOM     27  C   UNL     1       0.999  13.392  18.698  0.00  0.00    +0.000 A 
ATOM     28  C   UNL     1       2.216  12.973  19.235  0.00  0.00    +0.000 A 
ATOM     29  C   UNL     1       3.080  13.897  19.836  0.00  0.00    +0.000 A 
ATOM     30  C   UNL     1       2.740  15.254  19.890  0.00  0.00    +0.000 A 
ATOM     31  C   UNL     1       3.667  16.274  20.481  0.00  0.00    +0.000 C 
ATOM     32  C   UNL     1       1.523  15.668  19.346  0.00  0.00    +0.000 A 
ATOM     33  C   UNL     1       0.656  14.743  18.764  0.00  0.00    +0.000 A 
ENDBRANCH  26  27
ENDBRANCH  25  26
ENDBRANCH  10  25
TORSDOF 7
ENDMDL
MODEL 9
REMARK VINA RESULT:      -6.3      2.536      4.504
REMARK  Name = 
REMARK  11 active torsions:
REMARK  status: ('A' for Active; 'I' for Inactive)
REMARK    1  A    between atoms: C_1  and  C_2
REMARK    2  A    between atoms: C_2  and  N_3
REMARK    3  A    between atoms: C_5  and  C_6
REMARK    4  A    between atoms: N_11  and  C_12
REMARK    5  A    between atoms: C_12  and  C_13
REMARK    6  A    between atoms: C_12  and  C_17
REMARK    7  A    between atoms: N_15  and  C_16
REMARK    8  A    between atoms: C_23  and  C_24
REMARK    9  A    between atoms: C_24  and  O_25
REMARK   10  A    between atoms: O_25  and  C_26
REMARK   11  A    between atoms: C_29  and  C_30
REMARK                            x       y       z     vdW  Elec       q    Type
REMARK                         _______ _______ _______ _____ _____    ______ ____
ROOT
ATOM      1  N   UNL     1      -2.928  12.413  22.819  0.00  0.00    +0.000 N 
ATOM      2  N   UNL     1      -2.303  11.412  23.463  0.00  0.00    +0.000 NA
ATOM      3  C   UNL     1      -1.307  11.046  22.644  0.00  0.00    +0.000 A 
ATOM      4  C   UNL     1      -0.427   9.922  23.053  0.00  0.00    +0.000 C 
ATOM      5  C   UNL     1      -1.288  11.834  21.457  0.00  0.00    +0.000 A 
ATOM      6  C   UNL     1      -2.377  12.673  21.604  0.00  0.00    +0.000 A 
ATOM      7  C   UNL     1      -2.799  13.694  20.613  0.00  0.00    +0.000 C 
ATOM      8  C   UNL     1      -1.952  13.511  19.324  0.00  0.00    +0.000 C 
ATOM      9  N   UNL     1      -0.490  13.201  19.537  0.00  0.00    +0.000 NA
ATOM     10  C   UNL     1      -0.432  11.832  20.206  0.00  0.00    +0.000 C 
ENDROOT
BRANCH   1  12
ATOM     11  C   UNL     1      -4.367  12.469  24.816  0.00  0.00    +0.000 C 
ATOM     12  C   UNL     1      -4.058  13.060  23.451  0.00  0.00    +0.000 C 
ENDBRANCH   1  12
BRANCH   9  13
ATOM     13  C   UNL     1       0.186  14.338  20.271  0.00  0.00    +0.000 C 
BRANCH  13  14
ATOM     14  C   UNL     1      -0.310  15.734  19.833  0.00  0.00    +0.000 A 
ATOM     15  C   UNL     1      -0.306  16.086  18.472  0.00  0.00    +0.000 A 
ATOM     16  C   UNL     1      -0.736  17.350  18.056  0.00  0.00    +0.000 A 
ATOM     17  C   UNL     1      -1.176  18.285  18.991  0.00  0.00    +0.000 A 
ATOM     18  C   UNL     1      -1.204  17.949  20.342  0.00  0.00    +0.000 A 
ATOM     19  C   UNL     1      -0.795  16.680  20.757  0.00  0.00    +0.000 A 
ENDBRANCH  13  14
BRANCH  13  20
ATOM     20  C   UNL     1       1.740  14.314  20.172  0.00  0.00    +0.000 C 
ATOM     21  O   UNL     1       2.443  14.271  21.180  0.00  0.00    +0.000 OA
ATOM     22  N   UNL     1       2.270  14.335  18.905  0.00  0.00    +0.000 N 
ATOM     23  C   UNL     1       3.693  14.282  18.655  0.00  0.00    +0.000 C 
ATOM     24  H   UNL     1       1.638  14.399  18.117  0.00  0.00    +0.000 HD
ENDBRANCH  13  20
ENDBRANCH   9  13
BRANCH  10  25
ATOM     25  C   UNL     1       0.930  11.129  20.367  0.00  0.00    +0.000 C 
BRANCH  25  26
ATOM     26  O   UNL     1       1.349  10.489  19.152  0.00  0.00    +0.000 OA
BRANCH  26  27
ATOM     27  C   UNL     1       1.615   9.148  19.292  0.00  0.00    +0.000 A 
ATOM     28  C   UNL     1       2.174   8.505  18.187  0.00  0.00    +0.000 A 
ATOM     29  C   UNL     1       2.532   7.153  18.261  0.00  0.00    +0.000 A 
ATOM     30  C   UNL     1       2.348   6.435  19.448  0.00  0.00    +0.000 A 
ATOM     31  C   UNL     1       2.767   5.001  19.573  0.00  0.00    +0.000 C 
ATOM     32  C   UNL     1       1.792   7.085  20.552  0.00  0.00    +0.000 A 
ATOM     33  C   UNL     1       1.421   8.427  20.471  0.00  0.00    +0.000 A 
ENDBRANCH  26  27
ENDBRANCH  25  26
ENDBRANCH  10  25
TORSDOF 7
ENDMDL
