MODEL 1
REMARK VINA RESULT:      -6.3      0.000      0.000
REMARK  Name = 
REMARK  5 active torsions:
REMARK  status: ('A' for Active; 'I' for Inactive)
REMARK    1  A    between atoms: C_1  and  O_2
REMARK    2  A    between atoms: O_2  and  C_3
REMARK    3  A    between atoms: C_9  and  O_10
REMARK    4  A    between atoms: O_10  and  C_11
REMARK    5  A    between atoms: N_20  and  C_21
REMARK                            x       y       z     vdW  Elec       q    Type
REMARK                         _______ _______ _______ _____ _____    ______ ____
ROOT
ATOM      1  C   UNL     1      -2.002  11.791  18.603  0.00  0.00    +0.000 A 
ATOM      2  C   UNL     1      -3.295  11.459  18.153  0.00  0.00    +0.000 A 
ATOM      3 BR   UNL     1      -3.660  10.349  16.628  0.00  0.00    +0.000 Br
ATOM      4  C   UNL     1      -4.403  11.868  18.906  0.00  0.00    +0.000 A 
ATOM      5  C   UNL     1      -4.243  12.562  20.147  0.00  0.00    +0.000 A 
ATOM      6  C   UNL     1      -2.969  12.921  20.665  0.00  0.00    +0.000 A 
ATOM      7  C   UNL     1      -1.842  12.519  19.850  0.00  0.00    +0.000 A 
ATOM      8  C   UNL     1      -2.919  13.693  22.002  0.00  0.00    +0.000 A 
ATOM      9  C   UNL     1      -1.759  14.022  22.741  0.00  0.00    +0.000 A 
ATOM     10  C   UNL     1      -1.863  14.675  23.975  0.00  0.00    +0.000 A 
ATOM     11  C   UNL     1      -3.064  15.076  24.487  0.00  0.00    +0.000 A 
ATOM     12  C   UNL     1      -4.216  14.826  23.815  0.00  0.00    +0.000 A 
ATOM     13  C   UNL     1      -4.138  14.090  22.610  0.00  0.00    +0.000 A 
ATOM     14  C   UNL     1      -5.458  13.545  22.194  0.00  0.00    +0.000 C 
ATOM     15  C   UNL     1      -5.573  12.893  20.833  0.00  0.00    +0.000 C 
ATOM     16  N   UNL     1      -6.431  11.681  20.951  0.00  0.00    +0.000 NA
ATOM     17  C   UNL     1      -7.744  11.910  21.550  0.00  0.00    +0.000 C 
ATOM     18  C   UNL     1      -6.554  10.929  19.697  0.00  0.00    +0.000 C 
ATOM     19  C   UNL     1      -5.842  11.580  18.513  0.00  0.00    +0.000 C 
ATOM     20  O   UNL     1      -2.994  15.641  25.716  0.00  0.00    +0.000 OA
ATOM     21  C   UNL     1      -1.582  15.497  25.971  0.00  0.00    +0.000 C 
ATOM     22  O   UNL     1      -0.850  14.958  24.847  0.00  0.00    +0.000 OA
ENDROOT
BRANCH   1  24
ATOM     23  C   UNL     1      -0.196  10.156  18.307  0.00  0.00    +0.000 C 
ATOM     24  O   UNL     1      -0.846  11.382  17.982  0.00  0.00    +0.000 OA
ENDBRANCH   1  24
BRANCH   7  25
ATOM     25  O   UNL     1      -0.615  12.899  20.362  0.00  0.00    +0.000 OA
ATOM     26  C   UNL     1       0.169  13.920  19.761  0.00  0.00    +0.000 C 
ENDBRANCH   7  25
TORSDOF 2
ENDMDL
MODEL 2
REMARK VINA RESULT:      -6.1      3.304      7.268
REMARK  Name = 
REMARK  5 active torsions:
REMARK  status: ('A' for Active; 'I' for Inactive)
REMARK    1  A    between atoms: C_1  and  O_2
REMARK    2  A    between atoms: O_2  and  C_3
REMARK    3  A    between atoms: C_9  and  O_10
REMARK    4  A    between atoms: O_10  and  C_11
REMARK    5  A    between atoms: N_20  and  C_21
REMARK                            x       y       z     vdW  Elec       q    Type
REMARK                         _______ _______ _______ _____ _____    ______ ____
ROOT
ATOM      1  C   UNL     1      -5.072  13.213  21.781  0.00  0.00    +0.000 A 
ATOM      2  C   UNL     1      -3.984  13.151  22.674  0.00  0.00    +0.000 A 
ATOM      3 BR   UNL     1      -4.100  13.542  24.551  0.00  0.00    +0.000 Br
ATOM      4  C   UNL     1      -2.749  12.681  22.210  0.00  0.00    +0.000 A 
ATOM      5  C   UNL     1      -2.590  12.209  20.869  0.00  0.00    +0.000 A 
ATOM      6  C   UNL     1      -3.646  12.234  19.917  0.00  0.00    +0.000 A 
ATOM      7  C   UNL     1      -4.902  12.758  20.411  0.00  0.00    +0.000 A 
ATOM      8  C   UNL     1      -3.351  11.723  18.490  0.00  0.00    +0.000 A 
ATOM      9  C   UNL     1      -4.292  11.545  17.448  0.00  0.00    +0.000 A 
ATOM     10  C   UNL     1      -3.895  11.014  16.215  0.00  0.00    +0.000 A 
ATOM     11  C   UNL     1      -2.593  10.707  15.940  0.00  0.00    +0.000 A 
ATOM     12  C   UNL     1      -1.631  10.886  16.879  0.00  0.00    +0.000 A 
ATOM     13  C   UNL     1      -2.026  11.338  18.159  0.00  0.00    +0.000 A 
ATOM     14  C   UNL     1      -0.976  11.111  19.188  0.00  0.00    +0.000 C 
ATOM     15  C   UNL     1      -1.174  11.707  20.566  0.00  0.00    +0.000 C 
ATOM     16  N   UNL     1      -0.727  10.719  21.587  0.00  0.00    +0.000 NA
ATOM     17  C   UNL     1       0.635  10.219  21.407  0.00  0.00    +0.000 C 
ATOM     18  C   UNL     1      -0.940  11.168  22.967  0.00  0.00    +0.000 C 
ATOM     19  C   UNL     1      -1.505  12.583  23.076  0.00  0.00    +0.000 C 
ATOM     20  O   UNL     1      -2.389  10.149  14.722  0.00  0.00    +0.000 OA
ATOM     21  C   UNL     1      -3.752  10.070  14.258  0.00  0.00    +0.000 C 
ATOM     22  O   UNL     1      -4.699  10.684  15.161  0.00  0.00    +0.000 OA
ENDROOT
BRANCH   1  24
ATOM     23  C   UNL     1      -7.301  12.664  22.647  0.00  0.00    +0.000 C 
ATOM     24  O   UNL     1      -6.343  13.591  22.145  0.00  0.00    +0.000 OA
ENDBRANCH   1  24
BRANCH   7  25
ATOM     25  O   UNL     1      -5.908  12.794  19.462  0.00  0.00    +0.000 OA
ATOM     26  C   UNL     1      -6.452  14.017  18.987  0.00  0.00    +0.000 C 
ENDBRANCH   7  25
TORSDOF 2
ENDMDL
MODEL 3
REMARK VINA RESULT:      -6.0      4.156      7.955
REMARK  Name = 
REMARK  5 active torsions:
REMARK  status: ('A' for Active; 'I' for Inactive)
REMARK    1  A    between atoms: C_1  and  O_2
REMARK    2  A    between atoms: O_2  and  C_3
REMARK    3  A    between atoms: C_9  and  O_10
REMARK    4  A    between atoms: O_10  and  C_11
REMARK    5  A    between atoms: N_20  and  C_21
REMARK                            x       y       z     vdW  Elec       q    Type
REMARK                         _______ _______ _______ _____ _____    ______ ____
ROOT
ATOM      1  C   UNL     1      -1.128  12.505  22.318  0.00  0.00    +0.000 A 
ATOM      2  C   UNL     1      -0.909  13.782  21.764  0.00  0.00    +0.000 A 
ATOM      3 BR   UNL     1      -1.491  15.425  22.570  0.00  0.00    +0.000 Br
ATOM      4  C   UNL     1      -0.132  13.896  20.605  0.00  0.00    +0.000 A 
ATOM      5  C   UNL     1       0.488  12.753  20.009  0.00  0.00    +0.000 A 
ATOM      6  C   UNL     1       0.317  11.436  20.519  0.00  0.00    +0.000 A 
ATOM      7  C   UNL     1      -0.519  11.340  21.697  0.00  0.00    +0.000 A 
ATOM      8  C   UNL     1       1.014  10.274  19.779  0.00  0.00    +0.000 A 
ATOM      9  C   UNL     1       1.075   8.924  20.198  0.00  0.00    +0.000 A 
ATOM     10  C   UNL     1       1.795   7.980  19.456  0.00  0.00    +0.000 A 
ATOM     11  C   UNL     1       2.411   8.296  18.279  0.00  0.00    +0.000 A 
ATOM     12  C   UNL     1       2.364   9.563  17.796  0.00  0.00    +0.000 A 
ATOM     13  C   UNL     1       1.715  10.549  18.576  0.00  0.00    +0.000 A 
ATOM     14  C   UNL     1       2.073  11.930  18.153  0.00  0.00    +0.000 C 
ATOM     15  C   UNL     1       1.321  13.090  18.768  0.00  0.00    +0.000 C 
ATOM     16  N   UNL     1       2.283  14.191  19.053  0.00  0.00    +0.000 NA
ATOM     17  C   UNL     1       3.090  14.617  17.910  0.00  0.00    +0.000 C 
ATOM     18  C   UNL     1       1.669  15.347  19.717  0.00  0.00    +0.000 C 
ATOM     19  C   UNL     1       0.160  15.217  19.913  0.00  0.00    +0.000 C 
ATOM     20  O   UNL     1       3.113   7.282  17.719  0.00  0.00    +0.000 OA
ATOM     21  C   UNL     1       2.927   6.270  18.728  0.00  0.00    +0.000 C 
ATOM     22  O   UNL     1       2.034   6.677  19.789  0.00  0.00    +0.000 OA
ENDROOT
BRANCH   1  24
ATOM     23  C   UNL     1      -3.235  12.210  23.539  0.00  0.00    +0.000 C 
ATOM     24  O   UNL     1      -1.814  12.284  23.489  0.00  0.00    +0.000 OA
ENDBRANCH   1  24
BRANCH   7  25
ATOM     25  O   UNL     1      -0.690  10.049  22.161  0.00  0.00    +0.000 OA
ATOM     26  C   UNL     1      -0.066   9.588  23.351  0.00  0.00    +0.000 C 
ENDBRANCH   7  25
TORSDOF 2
ENDMDL
MODEL 4
REMARK VINA RESULT:      -6.0      2.741      6.233
REMARK  Name = 
REMARK  5 active torsions:
REMARK  status: ('A' for Active; 'I' for Inactive)
REMARK    1  A    between atoms: C_1  and  O_2
REMARK    2  A    between atoms: O_2  and  C_3
REMARK    3  A    between atoms: C_9  and  O_10
REMARK    4  A    between atoms: O_10  and  C_11
REMARK    5  A    between atoms: N_20  and  C_21
REMARK                            x       y       z     vdW  Elec       q    Type
REMARK                         _______ _______ _______ _____ _____    ______ ____
ROOT
ATOM      1  C   UNL     1      -0.620  13.004  21.497  0.00  0.00    +0.000 A 
ATOM      2  C   UNL     1      -1.610  13.540  22.344  0.00  0.00    +0.000 A 
ATOM      3 BR   UNL     1      -1.242  14.522  23.953  0.00  0.00    +0.000 Br
ATOM      4  C   UNL     1      -2.953  13.452  21.959  0.00  0.00    +0.000 A 
ATOM      5  C   UNL     1      -3.332  12.885  20.702  0.00  0.00    +0.000 A 
ATOM      6  C   UNL     1      -2.386  12.334  19.794  0.00  0.00    +0.000 A 
ATOM      7  C   UNL     1      -1.007  12.404  20.231  0.00  0.00    +0.000 A 
ATOM      8  C   UNL     1      -2.911  11.724  18.476  0.00  0.00    +0.000 A 
ATOM      9  C   UNL     1      -2.130  11.251  17.397  0.00  0.00    +0.000 A 
ATOM     10  C   UNL     1      -2.742  10.776  16.230  0.00  0.00    +0.000 A 
ATOM     11  C   UNL     1      -4.099  10.688  16.104  0.00  0.00    +0.000 A 
ATOM     12  C   UNL     1      -4.911  11.090  17.114  0.00  0.00    +0.000 A 
ATOM     13  C   UNL     1      -4.313  11.654  18.265  0.00  0.00    +0.000 A 
ATOM     14  C   UNL     1      -5.289  12.406  19.098  0.00  0.00    +0.000 C 
ATOM     15  C   UNL     1      -4.843  12.911  20.453  0.00  0.00    +0.000 C 
ATOM     16  N   UNL     1      -5.397  14.278  20.665  0.00  0.00    +0.000 NA
ATOM     17  C   UNL     1      -6.845  14.390  20.498  0.00  0.00    +0.000 C 
ATOM     18  C   UNL     1      -4.968  14.893  21.925  0.00  0.00    +0.000 C 
ATOM     19  C   UNL     1      -4.106  13.982  22.796  0.00  0.00    +0.000 C 
ATOM     20  O   UNL     1      -4.527  10.263  14.892  0.00  0.00    +0.000 OA
ATOM     21  C   UNL     1      -3.261  10.144  14.213  0.00  0.00    +0.000 C 
ATOM     22  O   UNL     1      -2.126  10.392  15.073  0.00  0.00    +0.000 OA
ENDROOT
BRANCH   1  24
ATOM     23  C   UNL     1       1.508  14.212  21.317  0.00  0.00    +0.000 C 
ATOM     24  O   UNL     1       0.730  13.096  21.741  0.00  0.00    +0.000 OA
ENDBRANCH   1  24
BRANCH   7  25
ATOM     25  O   UNL     1      -0.107  11.842  19.343  0.00  0.00    +0.000 OA
ATOM     26  C   UNL     1       0.516  10.590  19.594  0.00  0.00    +0.000 C 
ENDBRANCH   7  25
TORSDOF 2
ENDMDL
MODEL 5
REMARK VINA RESULT:      -6.0      2.206      4.292
REMARK  Name = 
REMARK  5 active torsions:
REMARK  status: ('A' for Active; 'I' for Inactive)
REMARK    1  A    between atoms: C_1  and  O_2
REMARK    2  A    between atoms: O_2  and  C_3
REMARK    3  A    between atoms: C_9  and  O_10
REMARK    4  A    between atoms: O_10  and  C_11
REMARK    5  A    between atoms: N_20  and  C_21
REMARK                            x       y       z     vdW  Elec       q    Type
REMARK                         _______ _______ _______ _____ _____    ______ ____
ROOT
ATOM      1  C   UNL     1      -4.246  11.642  18.587  0.00  0.00    +0.000 A 
ATOM      2  C   UNL     1      -3.004  11.093  18.211  0.00  0.00    +0.000 A 
ATOM      3 BR   UNL     1      -2.695  10.134  16.576  0.00  0.00    +0.000 Br
ATOM      4  C   UNL     1      -1.883  11.334  19.015  0.00  0.00    +0.000 A 
ATOM      5  C   UNL     1      -1.963  12.171  20.172  0.00  0.00    +0.000 A 
ATOM      6  C   UNL     1      -3.181  12.765  20.605  0.00  0.00    +0.000 A 
ATOM      7  C   UNL     1      -4.333  12.471  19.778  0.00  0.00    +0.000 A 
ATOM      8  C   UNL     1      -3.154  13.630  21.884  0.00  0.00    +0.000 A 
ATOM      9  C   UNL     1      -4.220  14.404  22.399  0.00  0.00    +0.000 A 
ATOM     10  C   UNL     1      -4.038  15.193  23.542  0.00  0.00    +0.000 A 
ATOM     11  C   UNL     1      -2.864  15.204  24.239  0.00  0.00    +0.000 A 
ATOM     12  C   UNL     1      -1.810  14.458  23.824  0.00  0.00    +0.000 A 
ATOM     13  C   UNL     1      -1.946  13.723  22.623  0.00  0.00    +0.000 A 
ATOM     14  C   UNL     1      -0.634  13.287  22.075  0.00  0.00    +0.000 C 
ATOM     15  C   UNL     1      -0.624  12.337  20.897  0.00  0.00    +0.000 C 
ATOM     16  N   UNL     1       0.449  12.753  19.951  0.00  0.00    +0.000 NA
ATOM     17  C   UNL     1       1.778  12.888  20.546  0.00  0.00    +0.000 C 
ATOM     18  C   UNL     1       0.503  11.937  18.734  0.00  0.00    +0.000 C 
ATOM     19  C   UNL     1      -0.498  10.784  18.717  0.00  0.00    +0.000 C 
ATOM     20  O   UNL     1      -2.836  16.065  25.285  0.00  0.00    +0.000 OA
ATOM     21  C   UNL     1      -4.137  16.669  25.139  0.00  0.00    +0.000 C 
ATOM     22  O   UNL     1      -4.930  16.071  24.089  0.00  0.00    +0.000 OA
ENDROOT
BRANCH   1  24
ATOM     23  C   UNL     1      -5.857  12.573  16.988  0.00  0.00    +0.000 C 
ATOM     24  O   UNL     1      -5.393  11.528  17.838  0.00  0.00    +0.000 OA
ENDBRANCH   1  24
BRANCH   7  25
ATOM     25  O   UNL     1      -5.509  13.040  20.230  0.00  0.00    +0.000 OA
ATOM     26  C   UNL     1      -6.540  12.265  20.827  0.00  0.00    +0.000 C 
ENDBRANCH   7  25
TORSDOF 2
ENDMDL
MODEL 6
REMARK VINA RESULT:      -5.9      0.964      1.120
REMARK  Name = 
REMARK  5 active torsions:
REMARK  status: ('A' for Active; 'I' for Inactive)
REMARK    1  A    between atoms: C_1  and  O_2
REMARK    2  A    between atoms: O_2  and  C_3
REMARK    3  A    between atoms: C_9  and  O_10
REMARK    4  A    between atoms: O_10  and  C_11
REMARK    5  A    between atoms: N_20  and  C_21
REMARK                            x       y       z     vdW  Elec       q    Type
REMARK                         _______ _______ _______ _____ _____    ______ ____
ROOT
ATOM      1  C   UNL     1      -2.938  12.196  19.035  0.00  0.00    +0.000 A 
ATOM      2  C   UNL     1      -4.308  11.911  18.871  0.00  0.00    +0.000 A 
ATOM      3 BR   UNL     1      -5.025  10.823  17.461  0.00  0.00    +0.000 Br
ATOM      4  C   UNL     1      -5.215  12.354  19.841  0.00  0.00    +0.000 A 
ATOM      5  C   UNL     1      -4.772  13.036  21.018  0.00  0.00    +0.000 A 
ATOM      6  C   UNL     1      -3.405  13.349  21.253  0.00  0.00    +0.000 A 
ATOM      7  C   UNL     1      -2.491  12.912  20.218  0.00  0.00    +0.000 A 
ATOM      8  C   UNL     1      -3.045  14.111  22.547  0.00  0.00    +0.000 A 
ATOM      9  C   UNL     1      -1.744  14.396  23.022  0.00  0.00    +0.000 A 
ATOM     10  C   UNL     1      -1.561  15.046  24.249  0.00  0.00    +0.000 A 
ATOM     11  C   UNL     1      -2.612  15.486  25.003  0.00  0.00    +0.000 A 
ATOM     12  C   UNL     1      -3.888  15.279  24.592  0.00  0.00    +0.000 A 
ATOM     13  C   UNL     1      -4.093  14.547  23.400  0.00  0.00    +0.000 A 
ATOM     14  C   UNL     1      -5.489  14.049  23.275  0.00  0.00    +0.000 C 
ATOM     15  C   UNL     1      -5.913  13.408  21.970  0.00  0.00    +0.000 C 
ATOM     16  N   UNL     1      -6.767  12.226  22.270  0.00  0.00    +0.000 NA
ATOM     17  C   UNL     1      -7.915  12.497  23.135  0.00  0.00    +0.000 C 
ATOM     18  C   UNL     1      -7.180  11.485  21.073  0.00  0.00    +0.000 C 
ATOM     19  C   UNL     1      -6.714  12.117  19.763  0.00  0.00    +0.000 C 
ATOM     20  O   UNL     1      -2.263  16.041  26.188  0.00  0.00    +0.000 OA
ATOM     21  C   UNL     1      -0.835  15.847  26.138  0.00  0.00    +0.000 C 
ATOM     22  O   UNL     1      -0.377  15.290  24.885  0.00  0.00    +0.000 OA
ENDROOT
BRANCH   1  24
ATOM     23  C   UNL     1      -1.298  10.500  18.363  0.00  0.00    +0.000 C 
ATOM     24  O   UNL     1      -1.954  11.751  18.183  0.00  0.00    +0.000 OA
ENDBRANCH   1  24
BRANCH   7  25
ATOM     25  O   UNL     1      -1.171  13.248  20.457  0.00  0.00    +0.000 OA
ATOM     26  C   UNL     1      -0.496  14.239  19.696  0.00  0.00    +0.000 C 
ENDBRANCH   7  25
TORSDOF 2
ENDMDL
MODEL 7
REMARK VINA RESULT:      -5.8      2.229      3.738
REMARK  Name = 
REMARK  5 active torsions:
REMARK  status: ('A' for Active; 'I' for Inactive)
REMARK    1  A    between atoms: C_1  and  O_2
REMARK    2  A    between atoms: O_2  and  C_3
REMARK    3  A    between atoms: C_9  and  O_10
REMARK    4  A    between atoms: O_10  and  C_11
REMARK    5  A    between atoms: N_20  and  C_21
REMARK                            x       y       z     vdW  Elec       q    Type
REMARK                         _______ _______ _______ _____ _____    ______ ____
ROOT
ATOM      1  C   UNL     1      -3.799  11.329  18.204  0.00  0.00    +0.000 A 
ATOM      2  C   UNL     1      -4.975  11.705  18.883  0.00  0.00    +0.000 A 
ATOM      3 BR   UNL     1      -6.718  10.995  18.501  0.00  0.00    +0.000 Br
ATOM      4  C   UNL     1      -4.881  12.574  19.976  0.00  0.00    +0.000 A 
ATOM      5  C   UNL     1      -3.614  13.038  20.451  0.00  0.00    +0.000 A 
ATOM      6  C   UNL     1      -2.387  12.693  19.821  0.00  0.00    +0.000 A 
ATOM      7  C   UNL     1      -2.513  11.822  18.671  0.00  0.00    +0.000 A 
ATOM      8  C   UNL     1      -1.080  13.274  20.405  0.00  0.00    +0.000 A 
ATOM      9  C   UNL     1       0.238  12.948  20.007  0.00  0.00    +0.000 A 
ATOM     10  C   UNL     1       1.338  13.509  20.667  0.00  0.00    +0.000 A 
ATOM     11  C   UNL     1       1.197  14.429  21.666  0.00  0.00    +0.000 A 
ATOM     12  C   UNL     1      -0.037  14.816  22.075  0.00  0.00    +0.000 A 
ATOM     13  C   UNL     1      -1.161  14.195  21.481  0.00  0.00    +0.000 A 
ATOM     14  C   UNL     1      -2.403  14.398  22.273  0.00  0.00    +0.000 C 
ATOM     15  C   UNL     1      -3.721  13.953  21.675  0.00  0.00    +0.000 C 
ATOM     16  N   UNL     1      -4.546  13.323  22.743  0.00  0.00    +0.000 NA
ATOM     17  C   UNL     1      -4.746  14.146  23.935  0.00  0.00    +0.000 C 
ATOM     18  C   UNL     1      -5.824  12.791  22.257  0.00  0.00    +0.000 C 
ATOM     19  C   UNL     1      -6.080  13.057  20.775  0.00  0.00    +0.000 C 
ATOM     20  O   UNL     1       2.359  14.826  22.237  0.00  0.00    +0.000 OA
ATOM     21  C   UNL     1       3.284  13.988  21.516  0.00  0.00    +0.000 C 
ATOM     22  O   UNL     1       2.657  13.211  20.471  0.00  0.00    +0.000 OA
ENDROOT
BRANCH   1  24
ATOM     23  C   UNL     1      -3.802  10.838  15.801  0.00  0.00    +0.000 C 
ATOM     24  O   UNL     1      -3.766  10.429  17.165  0.00  0.00    +0.000 OA
ENDBRANCH   1  24
BRANCH   7  25
ATOM     25  O   UNL     1      -1.310  11.519  18.061  0.00  0.00    +0.000 OA
ATOM     26  C   UNL     1      -0.707  10.238  18.180  0.00  0.00    +0.000 C 
ENDBRANCH   7  25
TORSDOF 2
ENDMDL
MODEL 8
REMARK VINA RESULT:      -5.7      2.436      5.249
REMARK  Name = 
REMARK  5 active torsions:
REMARK  status: ('A' for Active; 'I' for Inactive)
REMARK    1  A    between atoms: C_1  and  O_2
REMARK    2  A    between atoms: O_2  and  C_3
REMARK    3  A    between atoms: C_9  and  O_10
REMARK    4  A    between atoms: O_10  and  C_11
REMARK    5  A    between atoms: N_20  and  C_21
REMARK                            x       y       z     vdW  Elec       q    Type
REMARK                         _______ _______ _______ _____ _____    ______ ____
ROOT
ATOM      1  C   UNL     1      -4.931  13.258  21.452  0.00  0.00    +0.000 A 
ATOM      2  C   UNL     1      -5.643  12.487  20.512  0.00  0.00    +0.000 A 
ATOM      3 BR   UNL     1      -7.557  12.337  20.463  0.00  0.00    +0.000 Br
ATOM      4  C   UNL     1      -4.941  11.862  19.474  0.00  0.00    +0.000 A 
ATOM      5  C   UNL     1      -3.530  12.039  19.318  0.00  0.00    +0.000 A 
ATOM      6  C   UNL     1      -2.750  12.809  20.224  0.00  0.00    +0.000 A 
ATOM      7  C   UNL     1      -3.493  13.415  21.309  0.00  0.00    +0.000 A 
ATOM      8  C   UNL     1      -1.230  12.909  19.972  0.00  0.00    +0.000 A 
ATOM      9  C   UNL     1      -0.311  13.724  20.673  0.00  0.00    +0.000 A 
ATOM     10  C   UNL     1       1.037  13.762  20.298  0.00  0.00    +0.000 A 
ATOM     11  C   UNL     1       1.536  12.980  19.295  0.00  0.00    +0.000 A 
ATOM     12  C   UNL     1       0.720  12.147  18.602  0.00  0.00    +0.000 A 
ATOM     13  C   UNL     1      -0.660  12.159  18.909  0.00  0.00    +0.000 A 
ATOM     14  C   UNL     1      -1.482  11.528  17.842  0.00  0.00    +0.000 C 
ATOM     15  C   UNL     1      -2.955  11.300  18.105  0.00  0.00    +0.000 C 
ATOM     16  N   UNL     1      -3.721  11.623  16.869  0.00  0.00    +0.000 NA
ATOM     17  C   UNL     1      -3.275  10.923  15.666  0.00  0.00    +0.000 C 
ATOM     18  C   UNL     1      -5.174  11.501  17.034  0.00  0.00    +0.000 C 
ATOM     19  C   UNL     1      -5.600  10.998  18.412  0.00  0.00    +0.000 C 
ATOM     20  O   UNL     1       2.847  13.182  19.021  0.00  0.00    +0.000 OA
ATOM     21  C   UNL     1       3.127  14.255  19.942  0.00  0.00    +0.000 C 
ATOM     22  O   UNL     1       2.012  14.574  20.804  0.00  0.00    +0.000 OA
ENDROOT
BRANCH   1  24
ATOM     23  C   UNL     1      -6.017  13.348  23.650  0.00  0.00    +0.000 C 
ATOM     24  O   UNL     1      -5.524  13.970  22.467  0.00  0.00    +0.000 OA
ENDBRANCH   1  24
BRANCH   7  25
ATOM     25  O   UNL     1      -2.711  14.140  22.189  0.00  0.00    +0.000 OA
ATOM     26  C   UNL     1      -2.396  13.659  23.488  0.00  0.00    +0.000 C 
ENDBRANCH   7  25
TORSDOF 2
ENDMDL
MODEL 9
REMARK VINA RESULT:      -5.7      3.142      6.072
REMARK  Name = 
REMARK  5 active torsions:
REMARK  status: ('A' for Active; 'I' for Inactive)
REMARK    1  A    between atoms: C_1  and  O_2
REMARK    2  A    between atoms: O_2  and  C_3
REMARK    3  A    between atoms: C_9  and  O_10
REMARK    4  A    between atoms: O_10  and  C_11
REMARK    5  A    between atoms: N_20  and  C_21
REMARK                            x       y       z     vdW  Elec       q    Type
REMARK                         _______ _______ _______ _____ _____    ______ ____
ROOT
ATOM      1  C   UNL     1      -5.967  12.753  20.245  0.00  0.00    +0.000 A 
ATOM      2  C   UNL     1      -5.948  13.704  21.285  0.00  0.00    +0.000 A 
ATOM      3 BR   UNL     1      -7.513  14.339  22.199  0.00  0.00    +0.000 Br
ATOM      4  C   UNL     1      -4.715  14.155  21.771  0.00  0.00    +0.000 A 
ATOM      5  C   UNL     1      -3.482  13.628  21.274  0.00  0.00    +0.000 A 
ATOM      6  C   UNL     1      -3.426  12.661  20.233  0.00  0.00    +0.000 A 
ATOM      7  C   UNL     1      -4.713  12.237  19.722  0.00  0.00    +0.000 A 
ATOM      8  C   UNL     1      -2.037  12.183  19.758  0.00  0.00    +0.000 A 
ATOM      9  C   UNL     1      -1.774  11.142  18.837  0.00  0.00    +0.000 A 
ATOM     10  C   UNL     1      -0.457  10.770  18.541  0.00  0.00    +0.000 A 
ATOM     11  C   UNL     1       0.620  11.424  19.068  0.00  0.00    +0.000 A 
ATOM     12  C   UNL     1       0.444  12.455  19.931  0.00  0.00    +0.000 A 
ATOM     13  C   UNL     1      -0.877  12.788  20.310  0.00  0.00    +0.000 A 
ATOM     14  C   UNL     1      -0.919  13.635  21.532  0.00  0.00    +0.000 C 
ATOM     15  C   UNL     1      -2.247  14.226  21.956  0.00  0.00    +0.000 C 
ATOM     16  N   UNL     1      -2.360  14.141  23.439  0.00  0.00    +0.000 NA
ATOM     17  C   UNL     1      -1.247  14.734  24.178  0.00  0.00    +0.000 C 
ATOM     18  C   UNL     1      -3.645  14.626  23.955  0.00  0.00    +0.000 C 
ATOM     19  C   UNL     1      -4.572  15.186  22.878  0.00  0.00    +0.000 C 
ATOM     20  O   UNL     1       1.822  10.901  18.725  0.00  0.00    +0.000 OA
ATOM     21  C   UNL     1       1.383   9.769  17.949  0.00  0.00    +0.000 C 
ATOM     22  O   UNL     1      -0.050   9.723  17.764  0.00  0.00    +0.000 OA
ENDROOT
BRANCH   1  24
ATOM     23  C   UNL     1      -7.667  10.984  20.261  0.00  0.00    +0.000 C 
ATOM     24  O   UNL     1      -7.116  12.191  19.741  0.00  0.00    +0.000 OA
ENDBRANCH   1  24
BRANCH   7  25
ATOM     25  O   UNL     1      -4.634  11.315  18.695  0.00  0.00    +0.000 OA
ATOM     26  C   UNL     1      -4.924  11.660  17.348  0.00  0.00    +0.000 C 
ENDBRANCH   7  25
TORSDOF 2
ENDMDL
