MODEL 1
REMARK VINA RESULT:      -7.1      0.000      0.000
REMARK  Name = 
REMARK  5 active torsions:
REMARK  status: ('A' for Active; 'I' for Inactive)
REMARK    1  A    between atoms: S_2  and  C_4
REMARK    2  A    between atoms: S_2  and  N_11
REMARK    3  A    between atoms: C_4  and  C_5
REMARK    4  A    between atoms: N_14  and  C_15
REMARK    5  A    between atoms: C_15  and  C_16
REMARK                            x       y       z     vdW  Elec       q    Type
REMARK                         _______ _______ _______ _____ _____    ______ ____
ROOT
ATOM      1  N   UNL     1       5.238   5.243  15.303  0.00  0.00    +0.000 NA
ATOM      2  C   UNL     1       4.601   4.191  16.168  0.00  0.00    +0.000 C 
ATOM      3  C   UNL     1       4.934   4.375  17.672  0.00  0.00    +0.000 C 
ATOM      4  N   UNL     1       4.749   5.743  18.223  0.00  0.00    +0.000 NA
ATOM      5  C   UNL     1       5.409   6.711  17.323  0.00  0.00    +0.000 C 
ATOM      6  C   UNL     1       4.956   6.594  15.861  0.00  0.00    +0.000 C 
ENDROOT
BRANCH   1   8
ATOM      7  O   UNL     1       7.030   3.473  15.066  0.00  0.00    +0.000 OA
ATOM      8  S   UNL     1       6.846   4.893  14.835  0.00  0.00    +0.000 S 
ATOM      9  O   UNL     1       7.707   5.862  15.478  0.00  0.00    +0.000 OA
BRANCH   8  10
ATOM     10  C   UNL     1       6.808   5.208  13.056  0.00  0.00    +0.000 C 
BRANCH  10  11
ATOM     11  C   UNL     1       6.521   3.917  12.344  0.00  0.00    +0.000 A 
ATOM     12  C   UNL     1       5.203   3.473  12.189  0.00  0.00    +0.000 A 
ATOM     13  C   UNL     1       4.944   2.260  11.558  0.00  0.00    +0.000 A 
ATOM     14  C   UNL     1       5.994   1.481  11.075  0.00  0.00    +0.000 A 
ATOM     15  C   UNL     1       7.307   1.916  11.217  0.00  0.00    +0.000 A 
ATOM     16  C   UNL     1       7.573   3.129  11.849  0.00  0.00    +0.000 A 
ENDBRANCH  10  11
ENDBRANCH   8  10
ENDBRANCH   1   8
BRANCH   4  17
ATOM     17  C   UNL     1       3.327   6.057  18.461  0.00  0.00    +0.000 C 
BRANCH  17  18
ATOM     18  C   UNL     1       2.636   5.021  19.335  0.00  0.00    +0.000 A 
ATOM     19  C   UNL     1       2.984   4.961  20.701  0.00  0.00    +0.000 A 
ATOM     20  C   UNL     1       2.334   4.085  21.569  0.00  0.00    +0.000 A 
ATOM     21  C   UNL     1       1.325   3.266  21.083  0.00  0.00    +0.000 A 
ATOM     22  F   UNL     1       0.687   2.437  21.918  0.00  0.00    +0.000 F 
ATOM     23  C   UNL     1       0.966   3.294  19.742  0.00  0.00    +0.000 A 
ATOM     24  C   UNL     1       1.625   4.162  18.868  0.00  0.00    +0.000 A 
ATOM     25 CL   UNL     1       1.123   4.130  17.215  0.00  0.00    +0.000 Cl
ENDBRANCH  17  18
ENDBRANCH   4  17
TORSDOF 5
ENDMDL
MODEL 2
REMARK VINA RESULT:      -6.6      1.336      1.712
REMARK  Name = 
REMARK  5 active torsions:
REMARK  status: ('A' for Active; 'I' for Inactive)
REMARK    1  A    between atoms: S_2  and  C_4
REMARK    2  A    between atoms: S_2  and  N_11
REMARK    3  A    between atoms: C_4  and  C_5
REMARK    4  A    between atoms: N_14  and  C_15
REMARK    5  A    between atoms: C_15  and  C_16
REMARK                            x       y       z     vdW  Elec       q    Type
REMARK                         _______ _______ _______ _____ _____    ______ ____
ROOT
ATOM      1  N   UNL     1       5.946   5.695  15.785  0.00  0.00    +0.000 NA
ATOM      2  C   UNL     1       4.701   4.982  16.236  0.00  0.00    +0.000 C 
ATOM      3  C   UNL     1       4.974   3.976  17.385  0.00  0.00    +0.000 C 
ATOM      4  N   UNL     1       5.775   4.486  18.529  0.00  0.00    +0.000 NA
ATOM      5  C   UNL     1       6.978   5.163  18.002  0.00  0.00    +0.000 C 
ATOM      6  C   UNL     1       6.665   6.249  16.965  0.00  0.00    +0.000 C 
ENDROOT
BRANCH   1   8
ATOM      7  O   UNL     1       7.037   3.505  15.146  0.00  0.00    +0.000 OA
ATOM      8  S   UNL     1       6.863   4.844  14.619  0.00  0.00    +0.000 S 
ATOM      9  O   UNL     1       8.011   5.660  14.288  0.00  0.00    +0.000 OA
BRANCH   8  10
ATOM     10  C   UNL     1       5.737   4.789  13.207  0.00  0.00    +0.000 C 
BRANCH  10  11
ATOM     11  C   UNL     1       6.074   3.589  12.369  0.00  0.00    +0.000 A 
ATOM     12  C   UNL     1       7.376   3.402  11.892  0.00  0.00    +0.000 A 
ATOM     13  C   UNL     1       7.675   2.306  11.087  0.00  0.00    +0.000 A 
ATOM     14  C   UNL     1       6.682   1.388  10.752  0.00  0.00    +0.000 A 
ATOM     15  C   UNL     1       5.386   1.559  11.227  0.00  0.00    +0.000 A 
ATOM     16  C   UNL     1       5.080   2.655  12.032  0.00  0.00    +0.000 A 
ENDBRANCH  10  11
ENDBRANCH   8  10
ENDBRANCH   1   8
BRANCH   4  17
ATOM     17  C   UNL     1       4.978   5.348  19.422  0.00  0.00    +0.000 C 
BRANCH  17  18
ATOM     18  C   UNL     1       3.738   4.647  19.961  0.00  0.00    +0.000 A 
ATOM     19  C   UNL     1       3.869   3.321  20.423  0.00  0.00    +0.000 A 
ATOM     20  C   UNL     1       2.789   2.651  20.996  0.00  0.00    +0.000 A 
ATOM     21  C   UNL     1       1.569   3.302  21.117  0.00  0.00    +0.000 A 
ATOM     22  F   UNL     1       0.535   2.667  21.683  0.00  0.00    +0.000 F 
ATOM     23  C   UNL     1       1.405   4.603  20.663  0.00  0.00    +0.000 A 
ATOM     24  C   UNL     1       2.483   5.272  20.077  0.00  0.00    +0.000 A 
ATOM     25 CL   UNL     1       2.194   6.886  19.532  0.00  0.00    +0.000 Cl
ENDBRANCH  17  18
ENDBRANCH   4  17
TORSDOF 5
ENDMDL
MODEL 3
REMARK VINA RESULT:      -6.6      3.731      7.751
REMARK  Name = 
REMARK  5 active torsions:
REMARK  status: ('A' for Active; 'I' for Inactive)
REMARK    1  A    between atoms: S_2  and  C_4
REMARK    2  A    between atoms: S_2  and  N_11
REMARK    3  A    between atoms: C_4  and  C_5
REMARK    4  A    between atoms: N_14  and  C_15
REMARK    5  A    between atoms: C_15  and  C_16
REMARK                            x       y       z     vdW  Elec       q    Type
REMARK                         _______ _______ _______ _____ _____    ______ ____
ROOT
ATOM      1  N   UNL     1       4.557   4.498  17.538  0.00  0.00    +0.000 NA
ATOM      2  C   UNL     1       4.341   5.878  16.981  0.00  0.00    +0.000 C 
ATOM      3  C   UNL     1       5.594   6.428  16.250  0.00  0.00    +0.000 C 
ATOM      4  N   UNL     1       6.232   5.517  15.264  0.00  0.00    +0.000 NA
ATOM      5  C   UNL     1       6.416   4.192  15.891  0.00  0.00    +0.000 C 
ATOM      6  C   UNL     1       5.125   3.612  16.486  0.00  0.00    +0.000 C 
ENDROOT
BRANCH   1   8
ATOM      7  O   UNL     1       4.736   5.597  19.810  0.00  0.00    +0.000 OA
ATOM      8  S   UNL     1       5.286   4.468  19.086  0.00  0.00    +0.000 S 
ATOM      9  O   UNL     1       6.715   4.344  18.891  0.00  0.00    +0.000 OA
BRANCH   8  10
ATOM     10  C   UNL     1       4.638   2.935  19.788  0.00  0.00    +0.000 C 
BRANCH  10  11
ATOM     11  C   UNL     1       3.138   2.966  19.712  0.00  0.00    +0.000 A 
ATOM     12  C   UNL     1       2.399   3.719  20.630  0.00  0.00    +0.000 A 
ATOM     13  C   UNL     1       1.007   3.718  20.576  0.00  0.00    +0.000 A 
ATOM     14  C   UNL     1       0.343   2.968  19.607  0.00  0.00    +0.000 A 
ATOM     15  C   UNL     1       1.068   2.222  18.685  0.00  0.00    +0.000 A 
ATOM     16  C   UNL     1       2.461   2.218  18.735  0.00  0.00    +0.000 A 
ENDBRANCH  10  11
ENDBRANCH   8  10
ENDBRANCH   1   8
BRANCH   4  17
ATOM     17  C   UNL     1       5.476   5.454  13.999  0.00  0.00    +0.000 C 
BRANCH  17  18
ATOM     18  C   UNL     1       5.969   4.348  13.076  0.00  0.00    +0.000 A 
ATOM     19  C   UNL     1       5.079   3.303  12.752  0.00  0.00    +0.000 A 
ATOM     20  C   UNL     1       5.445   2.301  11.853  0.00  0.00    +0.000 A 
ATOM     21  C   UNL     1       6.701   2.338  11.266  0.00  0.00    +0.000 A 
ATOM     22  F   UNL     1       7.049   1.387  10.390  0.00  0.00    +0.000 F 
ATOM     23  C   UNL     1       7.604   3.347  11.572  0.00  0.00    +0.000 A 
ATOM     24  C   UNL     1       7.244   4.345  12.482  0.00  0.00    +0.000 A 
ATOM     25 CL   UNL     1       8.427   5.560  12.812  0.00  0.00    +0.000 Cl
ENDBRANCH  17  18
ENDBRANCH   4  17
TORSDOF 5
ENDMDL
MODEL 4
REMARK VINA RESULT:      -6.5      3.223      5.914
REMARK  Name = 
REMARK  5 active torsions:
REMARK  status: ('A' for Active; 'I' for Inactive)
REMARK    1  A    between atoms: S_2  and  C_4
REMARK    2  A    between atoms: S_2  and  N_11
REMARK    3  A    between atoms: C_4  and  C_5
REMARK    4  A    between atoms: N_14  and  C_15
REMARK    5  A    between atoms: C_15  and  C_16
REMARK                            x       y       z     vdW  Elec       q    Type
REMARK                         _______ _______ _______ _____ _____    ______ ____
ROOT
ATOM      1  N   UNL     1       7.098   5.564  17.976  0.00  0.00    +0.000 NA
ATOM      2  C   UNL     1       6.152   5.440  19.139  0.00  0.00    +0.000 C 
ATOM      3  C   UNL     1       4.664   5.464  18.703  0.00  0.00    +0.000 C 
ATOM      4  N   UNL     1       4.294   4.562  17.580  0.00  0.00    +0.000 NA
ATOM      5  C   UNL     1       5.263   4.751  16.480  0.00  0.00    +0.000 C 
ATOM      6  C   UNL     1       6.725   4.586  16.917  0.00  0.00    +0.000 C 
ENDROOT
BRANCH   1   8
ATOM      7  O   UNL     1       6.146   7.865  17.532  0.00  0.00    +0.000 OA
ATOM      8  S   UNL     1       7.420   7.174  17.497  0.00  0.00    +0.000 S 
ATOM      9  O   UNL     1       8.195   7.119  16.276  0.00  0.00    +0.000 OA
BRANCH   8  10
ATOM     10  C   UNL     1       8.463   7.776  18.844  0.00  0.00    +0.000 C 
BRANCH  10  11
ATOM     11  C   UNL     1       8.663   9.255  18.675  0.00  0.00    +0.000 A 
ATOM     12  C   UNL     1       8.027   9.940  17.634  0.00  0.00    +0.000 A 
ATOM     13  C   UNL     1       8.242  11.305  17.461  0.00  0.00    +0.000 A 
ATOM     14  C   UNL     1       9.090  11.998  18.324  0.00  0.00    +0.000 A 
ATOM     15  C   UNL     1       9.721  11.328  19.367  0.00  0.00    +0.000 A 
ATOM     16  C   UNL     1       9.511   9.962  19.544  0.00  0.00    +0.000 A 
ENDBRANCH  10  11
ENDBRANCH   8  10
ENDBRANCH   1   8
BRANCH   4  17
ATOM     17  C   UNL     1       4.184   3.156  18.012  0.00  0.00    +0.000 C 
BRANCH  17  18
ATOM     18  C   UNL     1       3.201   2.970  19.160  0.00  0.00    +0.000 A 
ATOM     19  C   UNL     1       3.681   2.423  20.367  0.00  0.00    +0.000 A 
ATOM     20  C   UNL     1       2.848   2.298  21.479  0.00  0.00    +0.000 A 
ATOM     21  C   UNL     1       1.530   2.723  21.395  0.00  0.00    +0.000 A 
ATOM     22  F   UNL     1       0.733   2.620  22.466  0.00  0.00    +0.000 F 
ATOM     23  C   UNL     1       1.024   3.257  20.218  0.00  0.00    +0.000 A 
ATOM     24  C   UNL     1       1.854   3.372  19.099  0.00  0.00    +0.000 A 
ATOM     25 CL   UNL     1       1.146   4.039  17.671  0.00  0.00    +0.000 Cl
ENDBRANCH  17  18
ENDBRANCH   4  17
TORSDOF 5
ENDMDL
MODEL 5
REMARK VINA RESULT:      -6.5      7.620     11.380
REMARK  Name = 
REMARK  5 active torsions:
REMARK  status: ('A' for Active; 'I' for Inactive)
REMARK    1  A    between atoms: S_2  and  C_4
REMARK    2  A    between atoms: S_2  and  N_11
REMARK    3  A    between atoms: C_4  and  C_5
REMARK    4  A    between atoms: N_14  and  C_15
REMARK    5  A    between atoms: C_15  and  C_16
REMARK                            x       y       z     vdW  Elec       q    Type
REMARK                         _______ _______ _______ _____ _____    ______ ____
ROOT
ATOM      1  N   UNL     1      -0.600   9.846  20.950  0.00  0.00    +0.000 NA
ATOM      2  C   UNL     1      -0.323  10.132  19.499  0.00  0.00    +0.000 C 
ATOM      3  C   UNL     1       1.185  10.028  19.149  0.00  0.00    +0.000 C 
ATOM      4  N   UNL     1       1.888   8.808  19.626  0.00  0.00    +0.000 NA
ATOM      5  C   UNL     1       1.571   8.605  21.055  0.00  0.00    +0.000 C 
ATOM      6  C   UNL     1       0.065   8.576  21.350  0.00  0.00    +0.000 C 
ENDROOT
BRANCH   1   8
ATOM      7  O   UNL     1       0.760  11.902  21.521  0.00  0.00    +0.000 OA
ATOM      8  S   UNL     1      -0.421  11.199  21.982  0.00  0.00    +0.000 S 
ATOM      9  O   UNL     1      -0.510  10.722  23.345  0.00  0.00    +0.000 OA
BRANCH   8  10
ATOM     10  C   UNL     1      -1.888  12.179  21.590  0.00  0.00    +0.000 C 
BRANCH  10  11
ATOM     11  C   UNL     1      -2.283  12.963  22.809  0.00  0.00    +0.000 A 
ATOM     12  C   UNL     1      -3.453  12.645  23.507  0.00  0.00    +0.000 A 
ATOM     13  C   UNL     1      -3.833  13.396  24.616  0.00  0.00    +0.000 A 
ATOM     14  C   UNL     1      -3.050  14.469  25.038  0.00  0.00    +0.000 A 
ATOM     15  C   UNL     1      -1.881  14.790  24.357  0.00  0.00    +0.000 A 
ATOM     16  C   UNL     1      -1.497  14.042  23.245  0.00  0.00    +0.000 A 
ENDBRANCH  10  11
ENDBRANCH   8  10
ENDBRANCH   1   8
BRANCH   4  17
ATOM     17  C   UNL     1       1.575   7.629  18.796  0.00  0.00    +0.000 C 
BRANCH  17  18
ATOM     18  C   UNL     1       2.756   6.678  18.659  0.00  0.00    +0.000 A 
ATOM     19  C   UNL     1       3.762   6.994  17.723  0.00  0.00    +0.000 A 
ATOM     20  C   UNL     1       4.905   6.204  17.603  0.00  0.00    +0.000 A 
ATOM     21  C   UNL     1       5.056   5.094  18.422  0.00  0.00    +0.000 A 
ATOM     22  F   UNL     1       6.160   4.344  18.322  0.00  0.00    +0.000 F 
ATOM     23  C   UNL     1       4.079   4.750  19.347  0.00  0.00    +0.000 A 
ATOM     24  C   UNL     1       2.927   5.534  19.460  0.00  0.00    +0.000 A 
ATOM     25 CL   UNL     1       1.758   5.034  20.629  0.00  0.00    +0.000 Cl
ENDBRANCH  17  18
ENDBRANCH   4  17
TORSDOF 5
ENDMDL
MODEL 6
REMARK VINA RESULT:      -6.4      8.532     12.071
REMARK  Name = 
REMARK  5 active torsions:
REMARK  status: ('A' for Active; 'I' for Inactive)
REMARK    1  A    between atoms: S_2  and  C_4
REMARK    2  A    between atoms: S_2  and  N_11
REMARK    3  A    between atoms: C_4  and  C_5
REMARK    4  A    between atoms: N_14  and  C_15
REMARK    5  A    between atoms: C_15  and  C_16
REMARK                            x       y       z     vdW  Elec       q    Type
REMARK                         _______ _______ _______ _____ _____    ______ ____
ROOT
ATOM      1  N   UNL     1       0.126  11.177  22.383  0.00  0.00    +0.000 NA
ATOM      2  C   UNL     1       0.006   9.814  23.008  0.00  0.00    +0.000 C 
ATOM      3  C   UNL     1      -0.395   8.721  21.983  0.00  0.00    +0.000 C 
ATOM      4  N   UNL     1       0.383   8.691  20.717  0.00  0.00    +0.000 NA
ATOM      5  C   UNL     1       0.446  10.061  20.165  0.00  0.00    +0.000 C 
ATOM      6  C   UNL     1       0.976  11.099  21.164  0.00  0.00    +0.000 C 
ENDROOT
BRANCH   1   8
ATOM      7  O   UNL     1      -2.195  11.517  23.331  0.00  0.00    +0.000 OA
ATOM      8  S   UNL     1      -1.351  12.035  22.272  0.00  0.00    +0.000 S 
ATOM      9  O   UNL     1      -1.783  11.981  20.892  0.00  0.00    +0.000 OA
BRANCH   8  10
ATOM     10  C   UNL     1      -0.848  13.721  22.680  0.00  0.00    +0.000 C 
BRANCH  10  11
ATOM     11  C   UNL     1      -2.017  14.437  23.295  0.00  0.00    +0.000 A 
ATOM     12  C   UNL     1      -3.108  14.816  22.506  0.00  0.00    +0.000 A 
ATOM     13  C   UNL     1      -4.174  15.510  23.073  0.00  0.00    +0.000 A 
ATOM     14  C   UNL     1      -4.162  15.829  24.430  0.00  0.00    +0.000 A 
ATOM     15  C   UNL     1      -3.086  15.450  25.225  0.00  0.00    +0.000 A 
ATOM     16  C   UNL     1      -2.015  14.757  24.662  0.00  0.00    +0.000 A 
ENDBRANCH  10  11
ENDBRANCH   8  10
ENDBRANCH   1   8
BRANCH   4  17
ATOM     17  C   UNL     1       1.715   8.085  20.899  0.00  0.00    +0.000 C 
BRANCH  17  18
ATOM     18  C   UNL     1       1.895   6.809  20.089  0.00  0.00    +0.000 A 
ATOM     19  C   UNL     1       1.541   5.583  20.689  0.00  0.00    +0.000 A 
ATOM     20  C   UNL     1       1.611   4.387  19.975  0.00  0.00    +0.000 A 
ATOM     21  C   UNL     1       2.030   4.407  18.652  0.00  0.00    +0.000 A 
ATOM     22  F   UNL     1       2.082   3.263  17.958  0.00  0.00    +0.000 F 
ATOM     23  C   UNL     1       2.395   5.596  18.035  0.00  0.00    +0.000 A 
ATOM     24  C   UNL     1       2.337   6.793  18.754  0.00  0.00    +0.000 A 
ATOM     25 CL   UNL     1       2.815   8.227  17.917  0.00  0.00    +0.000 Cl
ENDBRANCH  17  18
ENDBRANCH   4  17
TORSDOF 5
ENDMDL
MODEL 7
REMARK VINA RESULT:      -6.3      1.219      1.305
REMARK  Name = 
REMARK  5 active torsions:
REMARK  status: ('A' for Active; 'I' for Inactive)
REMARK    1  A    between atoms: S_2  and  C_4
REMARK    2  A    between atoms: S_2  and  N_11
REMARK    3  A    between atoms: C_4  and  C_5
REMARK    4  A    between atoms: N_14  and  C_15
REMARK    5  A    between atoms: C_15  and  C_16
REMARK                            x       y       z     vdW  Elec       q    Type
REMARK                         _______ _______ _______ _____ _____    ______ ____
ROOT
ATOM      1  N   UNL     1       5.707   5.558  15.797  0.00  0.00    +0.000 NA
ATOM      2  C   UNL     1       4.606   4.711  16.374  0.00  0.00    +0.000 C 
ATOM      3  C   UNL     1       5.082   3.855  17.577  0.00  0.00    +0.000 C 
ATOM      4  N   UNL     1       5.852   4.570  18.629  0.00  0.00    +0.000 NA
ATOM      5  C   UNL     1       6.914   5.368  17.982  0.00  0.00    +0.000 C 
ATOM      6  C   UNL     1       6.391   6.307  16.886  0.00  0.00    +0.000 C 
ENDROOT
BRANCH   1   8
ATOM      7  O   UNL     1       6.861   3.404  15.141  0.00  0.00    +0.000 OA
ATOM      8  S   UNL     1       6.685   4.755  14.645  0.00  0.00    +0.000 S 
ATOM      9  O   UNL     1       7.831   5.599  14.383  0.00  0.00    +0.000 OA
BRANCH   8  10
ATOM     10  C   UNL     1       5.616   4.722  13.189  0.00  0.00    +0.000 C 
BRANCH  10  11
ATOM     11  C   UNL     1       6.010   3.555  12.328  0.00  0.00    +0.000 A 
ATOM     12  C   UNL     1       5.074   2.569  12.002  0.00  0.00    +0.000 A 
ATOM     13  C   UNL     1       5.452   1.471  11.233  0.00  0.00    +0.000 A 
ATOM     14  C   UNL     1       6.766   1.350  10.782  0.00  0.00    +0.000 A 
ATOM     15  C   UNL     1       7.703   2.328  11.094  0.00  0.00    +0.000 A 
ATOM     16  C   UNL     1       7.330   3.428  11.865  0.00  0.00    +0.000 A 
ENDBRANCH  10  11
ENDBRANCH   8  10
ENDBRANCH   1   8
BRANCH   4  17
ATOM     17  C   UNL     1       4.978   5.378  19.502  0.00  0.00    +0.000 C 
BRANCH  17  18
ATOM     18  C   UNL     1       3.705   4.644  19.899  0.00  0.00    +0.000 A 
ATOM     19  C   UNL     1       3.827   3.451  20.641  0.00  0.00    +0.000 A 
ATOM     20  C   UNL     1       2.698   2.773  21.099  0.00  0.00    +0.000 A 
ATOM     21  C   UNL     1       1.438   3.283  20.824  0.00  0.00    +0.000 A 
ATOM     22  F   UNL     1       0.352   2.643  21.277  0.00  0.00    +0.000 F 
ATOM     23  C   UNL     1       1.283   4.449  20.087  0.00  0.00    +0.000 A 
ATOM     24  C   UNL     1       2.413   5.124  19.616  0.00  0.00    +0.000 A 
ATOM     25 CL   UNL     1       2.135   6.562  18.702  0.00  0.00    +0.000 Cl
ENDBRANCH  17  18
ENDBRANCH   4  17
TORSDOF 5
ENDMDL
MODEL 8
REMARK VINA RESULT:      -6.2      3.625      7.961
REMARK  Name = 
REMARK  5 active torsions:
REMARK  status: ('A' for Active; 'I' for Inactive)
REMARK    1  A    between atoms: S_2  and  C_4
REMARK    2  A    between atoms: S_2  and  N_11
REMARK    3  A    between atoms: C_4  and  C_5
REMARK    4  A    between atoms: N_14  and  C_15
REMARK    5  A    between atoms: C_15  and  C_16
REMARK                            x       y       z     vdW  Elec       q    Type
REMARK                         _______ _______ _______ _____ _____    ______ ____
ROOT
ATOM      1  N   UNL     1       4.377   4.824  17.524  0.00  0.00    +0.000 NA
ATOM      2  C   UNL     1       4.394   6.191  16.896  0.00  0.00    +0.000 C 
ATOM      3  C   UNL     1       5.746   6.512  16.206  0.00  0.00    +0.000 C 
ATOM      4  N   UNL     1       6.283   5.468  15.294  0.00  0.00    +0.000 NA
ATOM      5  C   UNL     1       6.240   4.164  15.988  0.00  0.00    +0.000 C 
ATOM      6  C   UNL     1       4.853   3.812  16.543  0.00  0.00    +0.000 C 
ENDROOT
BRANCH   1   8
ATOM      7  O   UNL     1       6.148   5.686  19.112  0.00  0.00    +0.000 OA
ATOM      8  S   UNL     1       5.026   4.768  19.106  0.00  0.00    +0.000 S 
ATOM      9  O   UNL     1       5.213   3.375  19.451  0.00  0.00    +0.000 OA
BRANCH   8  10
ATOM     10  C   UNL     1       3.684   5.459  20.099  0.00  0.00    +0.000 C 
BRANCH  10  11
ATOM     11  C   UNL     1       2.573   4.451  20.175  0.00  0.00    +0.000 A 
ATOM     12  C   UNL     1       2.343   3.740  21.358  0.00  0.00    +0.000 A 
ATOM     13  C   UNL     1       1.334   2.782  21.414  0.00  0.00    +0.000 A 
ATOM     14  C   UNL     1       0.546   2.526  20.293  0.00  0.00    +0.000 A 
ATOM     15  C   UNL     1       0.761   3.232  19.115  0.00  0.00    +0.000 A 
ATOM     16  C   UNL     1       1.770   4.191  19.052  0.00  0.00    +0.000 A 
ENDBRANCH  10  11
ENDBRANCH   8  10
ENDBRANCH   1   8
BRANCH   4  17
ATOM     17  C   UNL     1       5.582   5.451  13.997  0.00  0.00    +0.000 C 
BRANCH  17  18
ATOM     18  C   UNL     1       6.069   4.336  13.082  0.00  0.00    +0.000 A 
ATOM     19  C   UNL     1       5.177   3.288  12.775  0.00  0.00    +0.000 A 
ATOM     20  C   UNL     1       5.537   2.277  11.883  0.00  0.00    +0.000 A 
ATOM     21  C   UNL     1       6.790   2.309  11.287  0.00  0.00    +0.000 A 
ATOM     22  F   UNL     1       7.132   1.349  10.418  0.00  0.00    +0.000 F 
ATOM     23  C   UNL     1       7.694   3.321  11.576  0.00  0.00    +0.000 A 
ATOM     24  C   UNL     1       7.340   4.328  12.478  0.00  0.00    +0.000 A 
ATOM     25 CL   UNL     1       8.524   5.547  12.789  0.00  0.00    +0.000 Cl
ENDBRANCH  17  18
ENDBRANCH   4  17
TORSDOF 5
ENDMDL
MODEL 9
REMARK VINA RESULT:      -6.2      7.404     11.077
REMARK  Name = 
REMARK  5 active torsions:
REMARK  status: ('A' for Active; 'I' for Inactive)
REMARK    1  A    between atoms: S_2  and  C_4
REMARK    2  A    between atoms: S_2  and  N_11
REMARK    3  A    between atoms: C_4  and  C_5
REMARK    4  A    between atoms: N_14  and  C_15
REMARK    5  A    between atoms: C_15  and  C_16
REMARK                            x       y       z     vdW  Elec       q    Type
REMARK                         _______ _______ _______ _____ _____    ______ ____
ROOT
ATOM      1  N   UNL     1      -0.479   9.830  20.903  0.00  0.00    +0.000 NA
ATOM      2  C   UNL     1       0.021   9.951  19.489  0.00  0.00    +0.000 C 
ATOM      3  C   UNL     1       1.518   9.569  19.352  0.00  0.00    +0.000 C 
ATOM      4  N   UNL     1       1.930   8.289  19.987  0.00  0.00    +0.000 NA
ATOM      5  C   UNL     1       1.408   8.254  21.369  0.00  0.00    +0.000 C 
ATOM      6  C   UNL     1      -0.104   8.501  21.459  0.00  0.00    +0.000 C 
ENDROOT
BRANCH   1   8
ATOM      7  O   UNL     1       1.067  11.764  21.420  0.00  0.00    +0.000 OA
ATOM      8  S   UNL     1      -0.194  11.210  21.873  0.00  0.00    +0.000 S 
ATOM      9  O   UNL     1      -0.372  10.816  23.254  0.00  0.00    +0.000 OA
BRANCH   8  10
ATOM     10  C   UNL     1      -1.540  12.311  21.382  0.00  0.00    +0.000 C 
BRANCH  10  11
ATOM     11  C   UNL     1      -2.116  12.947  22.616  0.00  0.00    +0.000 A 
ATOM     12  C   UNL     1      -3.312  12.470  23.163  0.00  0.00    +0.000 A 
ATOM     13  C   UNL     1      -3.860  13.084  24.287  0.00  0.00    +0.000 A 
ATOM     14  C   UNL     1      -3.221  14.175  24.873  0.00  0.00    +0.000 A 
ATOM     15  C   UNL     1      -2.028  14.652  24.341  0.00  0.00    +0.000 A 
ATOM     16  C   UNL     1      -1.475  14.043  23.216  0.00  0.00    +0.000 A 
ENDBRANCH  10  11
ENDBRANCH   8  10
ENDBRANCH   1   8
BRANCH   4  17
ATOM     17  C   UNL     1       1.519   7.118  19.189  0.00  0.00    +0.000 C 
BRANCH  17  18
ATOM     18  C   UNL     1       2.264   5.850  19.582  0.00  0.00    +0.000 A 
ATOM     19  C   UNL     1       1.648   4.972  20.498  0.00  0.00    +0.000 A 
ATOM     20  C   UNL     1       2.244   3.759  20.841  0.00  0.00    +0.000 A 
ATOM     21  C   UNL     1       3.459   3.410  20.267  0.00  0.00    +0.000 A 
ATOM     22  F   UNL     1       4.025   2.238  20.581  0.00  0.00    +0.000 F 
ATOM     23  C   UNL     1       4.095   4.256  19.370  0.00  0.00    +0.000 A 
ATOM     24  C   UNL     1       3.505   5.478  19.035  0.00  0.00    +0.000 A 
ATOM     25 CL   UNL     1       4.365   6.476  17.917  0.00  0.00    +0.000 Cl
ENDBRANCH  17  18
ENDBRANCH   4  17
TORSDOF 5
ENDMDL
