MODEL 1
REMARK VINA RESULT:      -7.1      0.000      0.000
REMARK  Name = 
REMARK  3 active torsions:
REMARK  status: ('A' for Active; 'I' for Inactive)
REMARK    1  A    between atoms: C_2  and  O_3
REMARK    2  A    between atoms: C_2  and  C_4
REMARK    3  A    between atoms: C_9  and  C_10
REMARK                            x       y       z     vdW  Elec       q    Type
REMARK                         _______ _______ _______ _____ _____    ______ ____
ROOT
ATOM      1  C   UNL     1       6.701   4.696  14.237  0.00  0.00    +0.000 C 
ATOM      2  O   UNL     1       5.537   4.430  13.989  0.00  0.00    +0.000 OA
ATOM      3  N   UNL     1       7.327   4.866  15.460  0.00  0.00    +0.000 N 
ATOM      4  C   UNL     1       6.645   4.690  16.629  0.00  0.00    +0.000 A 
ATOM      5  N   UNL     1       5.480   4.126  16.805  0.00  0.00    +0.000 NA
ATOM      6  C   UNL     1       5.096   4.243  18.130  0.00  0.00    +0.000 A 
ATOM      7  C   UNL     1       5.991   4.932  18.930  0.00  0.00    +0.000 A 
ATOM      8  S   UNL     1       7.393   5.336  18.018  0.00  0.00    +0.000 S 
ATOM      9  H   UNL     1       8.268   5.245  15.496  0.00  0.00    +0.000 HD
ENDROOT
BRANCH   6  10
ATOM     10  C   UNL     1       3.826   3.709  18.593  0.00  0.00    +0.000 A 
ATOM     11  C   UNL     1       2.669   3.849  17.822  0.00  0.00    +0.000 A 
ATOM     12  C   UNL     1       1.462   3.322  18.278  0.00  0.00    +0.000 A 
ATOM     13  C   UNL     1       1.451   2.660  19.495  0.00  0.00    +0.000 A 
ATOM     14  N   UNL     1       2.544   2.500  20.271  0.00  0.00    +0.000 NA
ATOM     15  C   UNL     1       3.701   3.026  19.801  0.00  0.00    +0.000 A 
ENDBRANCH   6  10
BRANCH   1  17
ATOM     16  O   UNL     1       7.434   4.414  11.976  0.00  0.00    +0.000 OA
ATOM     17  C   UNL     1       7.611   4.974  13.044  0.00  0.00    +0.000 C 
BRANCH  17  18
ATOM     18  O   UNL     1       8.582   5.861  13.312  0.00  0.00    +0.000 OA
ATOM     19  H   UNL     1       8.921   6.254  12.475  0.00  0.00    +0.000 HD
ENDBRANCH  17  18
ENDBRANCH   1  17
TORSDOF 3
ENDMDL
MODEL 2
REMARK VINA RESULT:      -7.1      0.774      1.429
REMARK  Name = 
REMARK  3 active torsions:
REMARK  status: ('A' for Active; 'I' for Inactive)
REMARK    1  A    between atoms: C_2  and  O_3
REMARK    2  A    between atoms: C_2  and  C_4
REMARK    3  A    between atoms: C_9  and  C_10
REMARK                            x       y       z     vdW  Elec       q    Type
REMARK                         _______ _______ _______ _____ _____    ______ ____
ROOT
ATOM      1  C   UNL     1       6.724   4.732  14.244  0.00  0.00    +0.000 C 
ATOM      2  O   UNL     1       5.570   4.506  13.921  0.00  0.00    +0.000 OA
ATOM      3  N   UNL     1       7.287   4.827  15.505  0.00  0.00    +0.000 N 
ATOM      4  C   UNL     1       6.539   4.611  16.626  0.00  0.00    +0.000 A 
ATOM      5  N   UNL     1       5.355   4.066  16.712  0.00  0.00    +0.000 NA
ATOM      6  C   UNL     1       4.902   4.129  18.019  0.00  0.00    +0.000 A 
ATOM      7  C   UNL     1       5.767   4.756  18.898  0.00  0.00    +0.000 A 
ATOM      8  S   UNL     1       7.224   5.171  18.083  0.00  0.00    +0.000 S 
ATOM      9  H   UNL     1       8.232   5.182  15.609  0.00  0.00    +0.000 HD
ENDROOT
BRANCH   6  10
ATOM     10  C   UNL     1       3.598   3.602  18.388  0.00  0.00    +0.000 A 
ATOM     11  C   UNL     1       3.421   2.917  19.592  0.00  0.00    +0.000 A 
ATOM     12  C   UNL     1       2.161   2.427  19.934  0.00  0.00    +0.000 A 
ATOM     13  C   UNL     1       1.110   2.647  19.059  0.00  0.00    +0.000 A 
ATOM     14  N   UNL     1       1.236   3.305  17.886  0.00  0.00    +0.000 NA
ATOM     15  C   UNL     1       2.474   3.766  17.582  0.00  0.00    +0.000 A 
ENDBRANCH   6  10
BRANCH   1  17
ATOM     16  O   UNL     1       8.634   5.813  13.288  0.00  0.00    +0.000 OA
ATOM     17  C   UNL     1       7.703   5.045  13.116  0.00  0.00    +0.000 C 
BRANCH  17  18
ATOM     18  O   UNL     1       7.418   4.404  11.972  0.00  0.00    +0.000 OA
ATOM     19  H   UNL     1       7.656   3.451  12.051  0.00  0.00    +0.000 HD
ENDBRANCH  17  18
ENDBRANCH   1  17
TORSDOF 3
ENDMDL
MODEL 3
REMARK VINA RESULT:      -7.0      3.663      4.055
REMARK  Name = 
REMARK  3 active torsions:
REMARK  status: ('A' for Active; 'I' for Inactive)
REMARK    1  A    between atoms: C_2  and  O_3
REMARK    2  A    between atoms: C_2  and  C_4
REMARK    3  A    between atoms: C_9  and  C_10
REMARK                            x       y       z     vdW  Elec       q    Type
REMARK                         _______ _______ _______ _____ _____    ______ ____
ROOT
ATOM      1  C   UNL     1       5.786   5.477  15.554  0.00  0.00    +0.000 C 
ATOM      2  O   UNL     1       5.583   6.661  15.350  0.00  0.00    +0.000 OA
ATOM      3  N   UNL     1       5.327   4.665  16.578  0.00  0.00    +0.000 N 
ATOM      4  C   UNL     1       4.480   5.149  17.532  0.00  0.00    +0.000 A 
ATOM      5  N   UNL     1       3.799   6.263  17.515  0.00  0.00    +0.000 NA
ATOM      6  C   UNL     1       3.142   6.432  18.721  0.00  0.00    +0.000 A 
ATOM      7  C   UNL     1       3.372   5.430  19.647  0.00  0.00    +0.000 A 
ATOM      8  S   UNL     1       4.342   4.197  18.940  0.00  0.00    +0.000 S 
ATOM      9  H   UNL     1       5.718   3.736  16.697  0.00  0.00    +0.000 HD
ENDROOT
BRANCH   6  10
ATOM     10  C   UNL     1       2.319   7.605  18.971  0.00  0.00    +0.000 A 
ATOM     11  C   UNL     1       1.999   8.485  17.934  0.00  0.00    +0.000 A 
ATOM     12  C   UNL     1       1.202   9.599  18.189  0.00  0.00    +0.000 A 
ATOM     13  C   UNL     1       0.739   9.794  19.480  0.00  0.00    +0.000 A 
ATOM     14  N   UNL     1       1.021   8.969  20.511  0.00  0.00    +0.000 NA
ATOM     15  C   UNL     1       1.801   7.897  20.230  0.00  0.00    +0.000 A 
ENDBRANCH   6  10
BRANCH   1  17
ATOM     16  O   UNL     1       7.738   5.346  14.175  0.00  0.00    +0.000 OA
ATOM     17  C   UNL     1       6.753   4.772  14.607  0.00  0.00    +0.000 C 
BRANCH  17  18
ATOM     18  O   UNL     1       6.395   3.510  14.325  0.00  0.00    +0.000 OA
ATOM     19  H   UNL     1       6.815   3.220  13.483  0.00  0.00    +0.000 HD
ENDBRANCH  17  18
ENDBRANCH   1  17
TORSDOF 3
ENDMDL
MODEL 4
REMARK VINA RESULT:      -6.9      3.904      6.834
REMARK  Name = 
REMARK  3 active torsions:
REMARK  status: ('A' for Active; 'I' for Inactive)
REMARK    1  A    between atoms: C_2  and  O_3
REMARK    2  A    between atoms: C_2  and  C_4
REMARK    3  A    between atoms: C_9  and  C_10
REMARK                            x       y       z     vdW  Elec       q    Type
REMARK                         _______ _______ _______ _____ _____    ______ ____
ROOT
ATOM      1  C   UNL     1       2.847   3.250  20.144  0.00  0.00    +0.000 C 
ATOM      2  O   UNL     1       3.766   2.541  19.769  0.00  0.00    +0.000 OA
ATOM      3  N   UNL     1       2.468   4.509  19.710  0.00  0.00    +0.000 N 
ATOM      4  C   UNL     1       3.124   5.126  18.685  0.00  0.00    +0.000 A 
ATOM      5  N   UNL     1       3.961   4.599  17.831  0.00  0.00    +0.000 NA
ATOM      6  C   UNL     1       4.485   5.587  17.015  0.00  0.00    +0.000 A 
ATOM      7  C   UNL     1       4.037   6.865  17.300  0.00  0.00    +0.000 A 
ATOM      8  S   UNL     1       2.849   6.802  18.542  0.00  0.00    +0.000 S 
ATOM      9  H   UNL     1       1.778   5.036  20.236  0.00  0.00    +0.000 HD
ENDROOT
BRANCH   6  10
ATOM     10  C   UNL     1       5.456   5.270  15.981  0.00  0.00    +0.000 A 
ATOM     11  C   UNL     1       5.139   4.377  14.954  0.00  0.00    +0.000 A 
ATOM     12  C   UNL     1       6.080   4.092  13.966  0.00  0.00    +0.000 A 
ATOM     13  C   UNL     1       7.313   4.719  14.032  0.00  0.00    +0.000 A 
ATOM     14  N   UNL     1       7.662   5.589  15.004  0.00  0.00    +0.000 NA
ATOM     15  C   UNL     1       6.726   5.843  15.951  0.00  0.00    +0.000 A 
ENDBRANCH   6  10
BRANCH   1  17
ATOM     16  O   UNL     1       2.565   2.293  22.320  0.00  0.00    +0.000 OA
ATOM     17  C   UNL     1       2.024   2.740  21.324  0.00  0.00    +0.000 C 
BRANCH  17  18
ATOM     18  O   UNL     1       0.700   2.839  21.129  0.00  0.00    +0.000 OA
ATOM     19  H   UNL     1       0.514   3.117  20.203  0.00  0.00    +0.000 HD
ENDBRANCH  17  18
ENDBRANCH   1  17
TORSDOF 3
ENDMDL
MODEL 5
REMARK VINA RESULT:      -6.8      3.654      4.141
REMARK  Name = 
REMARK  3 active torsions:
REMARK  status: ('A' for Active; 'I' for Inactive)
REMARK    1  A    between atoms: C_2  and  O_3
REMARK    2  A    between atoms: C_2  and  C_4
REMARK    3  A    between atoms: C_9  and  C_10
REMARK                            x       y       z     vdW  Elec       q    Type
REMARK                         _______ _______ _______ _____ _____    ______ ____
ROOT
ATOM      1  C   UNL     1       5.772   5.401  15.491  0.00  0.00    +0.000 C 
ATOM      2  O   UNL     1       5.612   6.601  15.342  0.00  0.00    +0.000 OA
ATOM      3  N   UNL     1       5.274   4.558  16.471  0.00  0.00    +0.000 N 
ATOM      4  C   UNL     1       4.435   5.026  17.440  0.00  0.00    +0.000 A 
ATOM      5  N   UNL     1       3.793   6.164  17.470  0.00  0.00    +0.000 NA
ATOM      6  C   UNL     1       3.131   6.298  18.678  0.00  0.00    +0.000 A 
ATOM      7  C   UNL     1       3.317   5.245  19.557  0.00  0.00    +0.000 A 
ATOM      8  S   UNL     1       4.249   4.014  18.799  0.00  0.00    +0.000 S 
ATOM      9  H   UNL     1       5.631   3.611  16.549  0.00  0.00    +0.000 HD
ENDROOT
BRANCH   6  10
ATOM     10  C   UNL     1       2.347   7.486  18.977  0.00  0.00    +0.000 A 
ATOM     11  C   UNL     1       1.823   7.691  20.256  0.00  0.00    +0.000 A 
ATOM     12  C   UNL     1       1.082   8.840  20.526  0.00  0.00    +0.000 A 
ATOM     13  C   UNL     1       0.894   9.757  19.505  0.00  0.00    +0.000 A 
ATOM     14  N   UNL     1       1.383   9.601  18.257  0.00  0.00    +0.000 NA
ATOM     15  C   UNL     1       2.097   8.472  18.025  0.00  0.00    +0.000 A 
ENDBRANCH   6  10
BRANCH   1  17
ATOM     16  O   UNL     1       7.677   5.301  14.046  0.00  0.00    +0.000 OA
ATOM     17  C   UNL     1       6.723   4.709  14.519  0.00  0.00    +0.000 C 
BRANCH  17  18
ATOM     18  O   UNL     1       6.387   3.435  14.265  0.00  0.00    +0.000 OA
ATOM     19  H   UNL     1       6.738   3.162  13.386  0.00  0.00    +0.000 HD
ENDBRANCH  17  18
ENDBRANCH   1  17
TORSDOF 3
ENDMDL
MODEL 6
REMARK VINA RESULT:      -6.7      3.156      6.542
REMARK  Name = 
REMARK  3 active torsions:
REMARK  status: ('A' for Active; 'I' for Inactive)
REMARK    1  A    between atoms: C_2  and  O_3
REMARK    2  A    between atoms: C_2  and  C_4
REMARK    3  A    between atoms: C_9  and  C_10
REMARK                            x       y       z     vdW  Elec       q    Type
REMARK                         _______ _______ _______ _____ _____    ______ ____
ROOT
ATOM      1  C   UNL     1       2.310   3.368  17.991  0.00  0.00    +0.000 C 
ATOM      2  O   UNL     1       2.195   2.871  16.884  0.00  0.00    +0.000 OA
ATOM      3  N   UNL     1       3.367   4.079  18.535  0.00  0.00    +0.000 N 
ATOM      4  C   UNL     1       4.478   4.361  17.795  0.00  0.00    +0.000 A 
ATOM      5  N   UNL     1       4.630   4.267  16.501  0.00  0.00    +0.000 NA
ATOM      6  C   UNL     1       5.943   4.546  16.160  0.00  0.00    +0.000 A 
ATOM      7  C   UNL     1       6.770   4.825  17.234  0.00  0.00    +0.000 A 
ATOM      8  S   UNL     1       5.848   4.847  18.686  0.00  0.00    +0.000 S 
ATOM      9  H   UNL     1       3.375   4.287  19.528  0.00  0.00    +0.000 HD
ENDROOT
BRANCH   6  10
ATOM     10  C   UNL     1       6.385   4.499  14.776  0.00  0.00    +0.000 A 
ATOM     11  C   UNL     1       5.789   3.621  13.866  0.00  0.00    +0.000 A 
ATOM     12  C   UNL     1       6.220   3.596  12.541  0.00  0.00    +0.000 A 
ATOM     13  C   UNL     1       7.234   4.461  12.162  0.00  0.00    +0.000 A 
ATOM     14  N   UNL     1       7.835   5.326  13.005  0.00  0.00    +0.000 NA
ATOM     15  C   UNL     1       7.396   5.324  14.288  0.00  0.00    +0.000 A 
ENDBRANCH   6  10
BRANCH   1  17
ATOM     16  O   UNL     1       1.152   3.672  20.063  0.00  0.00    +0.000 OA
ATOM     17  C   UNL     1       1.175   3.116  18.979  0.00  0.00    +0.000 C 
BRANCH  17  18
ATOM     18  O   UNL     1       0.258   2.248  18.524  0.00  0.00    +0.000 OA
ATOM     19  H   UNL     1       0.025   1.602  19.229  0.00  0.00    +0.000 HD
ENDBRANCH  17  18
ENDBRANCH   1  17
TORSDOF 3
ENDMDL
MODEL 7
REMARK VINA RESULT:      -6.6      1.315      1.366
REMARK  Name = 
REMARK  3 active torsions:
REMARK  status: ('A' for Active; 'I' for Inactive)
REMARK    1  A    between atoms: C_2  and  O_3
REMARK    2  A    between atoms: C_2  and  C_4
REMARK    3  A    between atoms: C_9  and  C_10
REMARK                            x       y       z     vdW  Elec       q    Type
REMARK                         _______ _______ _______ _____ _____    ______ ____
ROOT
ATOM      1  C   UNL     1       6.510   4.742  14.002  0.00  0.00    +0.000 C 
ATOM      2  O   UNL     1       5.647   3.910  13.777  0.00  0.00    +0.000 OA
ATOM      3  N   UNL     1       6.652   5.597  15.082  0.00  0.00    +0.000 N 
ATOM      4  C   UNL     1       5.777   5.559  16.128  0.00  0.00    +0.000 A 
ATOM      5  N   UNL     1       4.900   4.633  16.412  0.00  0.00    +0.000 NA
ATOM      6  C   UNL     1       4.137   5.026  17.499  0.00  0.00    +0.000 A 
ATOM      7  C   UNL     1       4.450   6.278  17.999  0.00  0.00    +0.000 A 
ATOM      8  S   UNL     1       5.805   6.919  17.157  0.00  0.00    +0.000 S 
ATOM      9  H   UNL     1       7.337   6.345  15.044  0.00  0.00    +0.000 HD
ENDROOT
BRANCH   6  10
ATOM     10  C   UNL     1       3.074   4.179  18.014  0.00  0.00    +0.000 A 
ATOM     11  C   UNL     1       2.963   2.846  17.608  0.00  0.00    +0.000 A 
ATOM     12  C   UNL     1       1.943   2.047  18.120  0.00  0.00    +0.000 A 
ATOM     13  C   UNL     1       1.065   2.605  19.035  0.00  0.00    +0.000 A 
ATOM     14  N   UNL     1       1.136   3.886  19.457  0.00  0.00    +0.000 NA
ATOM     15  C   UNL     1       2.137   4.638  18.938  0.00  0.00    +0.000 A 
ENDBRANCH   6  10
BRANCH   1  17
ATOM     16  O   UNL     1       7.464   4.399  11.834  0.00  0.00    +0.000 OA
ATOM     17  C   UNL     1       7.557   4.957  12.914  0.00  0.00    +0.000 C 
BRANCH  17  18
ATOM     18  O   UNL     1       8.542   5.792  13.282  0.00  0.00    +0.000 OA
ATOM     19  H   UNL     1       8.313   6.716  13.030  0.00  0.00    +0.000 HD
ENDBRANCH  17  18
ENDBRANCH   1  17
TORSDOF 3
ENDMDL
MODEL 8
REMARK VINA RESULT:      -6.5      4.328      6.715
REMARK  Name = 
REMARK  3 active torsions:
REMARK  status: ('A' for Active; 'I' for Inactive)
REMARK    1  A    between atoms: C_2  and  O_3
REMARK    2  A    between atoms: C_2  and  C_4
REMARK    3  A    between atoms: C_9  and  C_10
REMARK                            x       y       z     vdW  Elec       q    Type
REMARK                         _______ _______ _______ _____ _____    ______ ____
ROOT
ATOM      1  C   UNL     1       2.301   7.682  19.484  0.00  0.00    +0.000 C 
ATOM      2  O   UNL     1       2.548   8.198  18.407  0.00  0.00    +0.000 OA
ATOM      3  N   UNL     1       2.658   6.436  19.970  0.00  0.00    +0.000 N 
ATOM      4  C   UNL     1       3.440   5.593  19.235  0.00  0.00    +0.000 A 
ATOM      5  N   UNL     1       4.148   5.871  18.173  0.00  0.00    +0.000 NA
ATOM      6  C   UNL     1       4.713   4.713  17.668  0.00  0.00    +0.000 A 
ATOM      7  C   UNL     1       4.387   3.562  18.364  0.00  0.00    +0.000 A 
ATOM      8  S   UNL     1       3.445   3.966  19.746  0.00  0.00    +0.000 S 
ATOM      9  H   UNL     1       2.237   6.090  20.826  0.00  0.00    +0.000 HD
ENDROOT
BRANCH   6  10
ATOM     10  C   UNL     1       5.543   4.740  16.475  0.00  0.00    +0.000 A 
ATOM     11  C   UNL     1       5.127   4.104  15.302  0.00  0.00    +0.000 A 
ATOM     12  C   UNL     1       5.931   4.149  14.165  0.00  0.00    +0.000 A 
ATOM     13  C   UNL     1       7.130   4.840  14.233  0.00  0.00    +0.000 A 
ATOM     14  N   UNL     1       7.570   5.470  15.343  0.00  0.00    +0.000 NA
ATOM     15  C   UNL     1       6.766   5.405  16.433  0.00  0.00    +0.000 A 
ENDBRANCH   6  10
BRANCH   1  17
ATOM     16  O   UNL     1       0.596   9.281  19.998  0.00  0.00    +0.000 OA
ATOM     17  C   UNL     1       1.393   8.466  20.427  0.00  0.00    +0.000 C 
BRANCH  17  18
ATOM     18  O   UNL     1       1.581   8.160  21.721  0.00  0.00    +0.000 OA
ATOM     19  H   UNL     1       1.781   8.975  22.235  0.00  0.00    +0.000 HD
ENDBRANCH  17  18
ENDBRANCH   1  17
TORSDOF 3
ENDMDL
MODEL 9
REMARK VINA RESULT:      -6.5      4.752      6.788
REMARK  Name = 
REMARK  3 active torsions:
REMARK  status: ('A' for Active; 'I' for Inactive)
REMARK    1  A    between atoms: C_2  and  O_3
REMARK    2  A    between atoms: C_2  and  C_4
REMARK    3  A    between atoms: C_9  and  C_10
REMARK                            x       y       z     vdW  Elec       q    Type
REMARK                         _______ _______ _______ _____ _____    ______ ____
ROOT
ATOM      1  C   UNL     1       1.760   8.939  18.418  0.00  0.00    +0.000 C 
ATOM      2  O   UNL     1       2.175   9.144  17.290  0.00  0.00    +0.000 OA
ATOM      3  N   UNL     1       1.991   7.866  19.263  0.00  0.00    +0.000 N 
ATOM      4  C   UNL     1       2.826   6.851  18.897  0.00  0.00    +0.000 A 
ATOM      5  N   UNL     1       3.684   6.828  17.912  0.00  0.00    +0.000 NA
ATOM      6  C   UNL     1       4.259   5.572  17.817  0.00  0.00    +0.000 A 
ATOM      7  C   UNL     1       3.788   4.653  18.739  0.00  0.00    +0.000 A 
ATOM      8  S   UNL     1       2.687   5.421  19.815  0.00  0.00    +0.000 S 
ATOM      9  H   UNL     1       1.442   7.766  20.110  0.00  0.00    +0.000 HD
ENDROOT
BRANCH   6  10
ATOM     10  C   UNL     1       5.243   5.272  16.791  0.00  0.00    +0.000 A 
ATOM     11  C   UNL     1       5.038   4.223  15.890  0.00  0.00    +0.000 A 
ATOM     12  C   UNL     1       5.988   3.956  14.907  0.00  0.00    +0.000 A 
ATOM     13  C   UNL     1       7.117   4.757  14.848  0.00  0.00    +0.000 A 
ATOM     14  N   UNL     1       7.355   5.781  15.695  0.00  0.00    +0.000 NA
ATOM     15  C   UNL     1       6.414   6.013  16.641  0.00  0.00    +0.000 A 
ENDBRANCH   6  10
BRANCH   1  17
ATOM     16  O   UNL     1       0.579  10.046  20.181  0.00  0.00    +0.000 OA
ATOM     17  C   UNL     1       0.770   9.954  18.981  0.00  0.00    +0.000 C 
BRANCH  17  18
ATOM     18  O   UNL     1       0.166  10.688  18.033  0.00  0.00    +0.000 OA
ATOM     19  H   UNL     1      -0.108  11.558  18.404  0.00  0.00    +0.000 HD
ENDBRANCH  17  18
ENDBRANCH   1  17
TORSDOF 3
ENDMDL
