MODEL 1
REMARK VINA RESULT:      -8.5      0.000      0.000
REMARK  Name = 
REMARK  3 active torsions:
REMARK  status: ('A' for Active; 'I' for Inactive)
REMARK    1  A    between atoms: C_7  and  C_8
REMARK    2  A    between atoms: C_10  and  C_11
REMARK    3  A    between atoms: C_14  and  C_15
REMARK                            x       y       z     vdW  Elec       q    Type
REMARK                         _______ _______ _______ _____ _____    ______ ____
ROOT
ATOM      1  C   UNL     1       4.282   6.236  17.215  0.00  0.00    +0.000 A 
ATOM      2  N   UNL     1       3.892   7.404  17.745  0.00  0.00    +0.000 NA
ATOM      3  C   UNL     1       2.710   7.093  18.305  0.00  0.00    +0.000 A 
ATOM      4  N   UNL     1       2.398   5.794  18.117  0.00  0.00    +0.000 NA
ATOM      5  O   UNL     1       3.390   5.298  17.438  0.00  0.00    +0.000 OA
ENDROOT
BRANCH   1  12
ATOM      6  N   UNL     1       8.346   4.036  17.726  0.00  0.00    +0.000 NA
ATOM      7  C   UNL     1       7.505   5.008  17.782  0.00  0.00    +0.000 C 
ATOM      8  N   UNL     1       7.770   6.129  18.614  0.00  0.00    +0.000 N 
ATOM      9  N   UNL     1       6.288   4.931  17.045  0.00  0.00    +0.000 N 
ATOM     10  C   UNL     1       6.100   4.157  15.843  0.00  0.00    +0.000 C 
ATOM     11  C   UNL     1       5.475   5.360  15.130  0.00  0.00    +0.000 C 
ATOM     12  C   UNL     1       5.583   6.056  16.493  0.00  0.00    +0.000 C 
ATOM     13  H   UNL     1       9.227   4.054  18.261  0.00  0.00    +0.000 HD
ATOM     14  H   UNL     1       8.639   6.182  19.165  0.00  0.00    +0.000 HD
ATOM     15  H   UNL     1       7.087   6.895  18.703  0.00  0.00    +0.000 HD
ENDBRANCH   1  12
BRANCH   3  16
ATOM     16  C   UNL     1       1.873   8.064  19.030  0.00  0.00    +0.000 A 
ATOM     17  C   UNL     1       1.336   9.161  18.344  0.00  0.00    +0.000 A 
ATOM     18  C   UNL     1       0.523  10.077  19.003  0.00  0.00    +0.000 A 
ATOM     19  C   UNL     1       0.238   9.937  20.375  0.00  0.00    +0.000 A 
ATOM     20  C   UNL     1       0.802   8.844  21.066  0.00  0.00    +0.000 A 
ATOM     21  C   UNL     1       1.600   7.910  20.397  0.00  0.00    +0.000 A 
BRANCH  19  22
ATOM     22  C   UNL     1      -0.654  10.917  21.067  0.00  0.00    +0.000 A 
ATOM     23  C   UNL     1      -1.431  11.827  20.316  0.00  0.00    +0.000 A 
ATOM     24  C   UNL     1      -2.285  12.730  20.948  0.00  0.00    +0.000 A 
ATOM     25  C   UNL     1      -2.368  12.759  22.339  0.00  0.00    +0.000 A 
ATOM     26  C   UNL     1      -1.601  11.877  23.102  0.00  0.00    +0.000 A 
ATOM     27  C   UNL     1      -0.756  10.954  22.474  0.00  0.00    +0.000 A 
ENDBRANCH  19  22
ENDBRANCH   3  16
TORSDOF 3
ENDMDL
MODEL 2
REMARK VINA RESULT:      -8.4      5.796      7.669
REMARK  Name = 
REMARK  3 active torsions:
REMARK  status: ('A' for Active; 'I' for Inactive)
REMARK    1  A    between atoms: C_7  and  C_8
REMARK    2  A    between atoms: C_10  and  C_11
REMARK    3  A    between atoms: C_14  and  C_15
REMARK                            x       y       z     vdW  Elec       q    Type
REMARK                         _______ _______ _______ _____ _____    ______ ____
ROOT
ATOM      1  C   UNL     1       4.966   4.094  17.246  0.00  0.00    +0.000 A 
ATOM      2  N   UNL     1       5.434   5.062  18.047  0.00  0.00    +0.000 NA
ATOM      3  C   UNL     1       6.273   5.733  17.238  0.00  0.00    +0.000 A 
ATOM      4  N   UNL     1       6.313   5.191  16.005  0.00  0.00    +0.000 NA
ATOM      5  O   UNL     1       5.497   4.179  16.047  0.00  0.00    +0.000 OA
ENDROOT
BRANCH   1  12
ATOM      6  N   UNL     1       3.027   2.489  21.155  0.00  0.00    +0.000 NA
ATOM      7  C   UNL     1       3.848   2.530  20.165  0.00  0.00    +0.000 C 
ATOM      8  N   UNL     1       5.060   1.791  20.216  0.00  0.00    +0.000 N 
ATOM      9  N   UNL     1       3.556   3.357  19.042  0.00  0.00    +0.000 N 
ATOM     10  C   UNL     1       2.231   3.750  18.628  0.00  0.00    +0.000 C 
ATOM     11  C   UNL     1       2.526   3.335  17.184  0.00  0.00    +0.000 C 
ATOM     12  C   UNL     1       3.953   3.082  17.687  0.00  0.00    +0.000 C 
ATOM     13  H   UNL     1       3.218   1.915  21.989  0.00  0.00    +0.000 HD
ATOM     14  H   UNL     1       5.286   1.206  21.034  0.00  0.00    +0.000 HD
ATOM     15  H   UNL     1       5.746   1.847  19.450  0.00  0.00    +0.000 HD
ENDBRANCH   1  12
BRANCH   3  16
ATOM     16  C   UNL     1       7.045   6.912  17.666  0.00  0.00    +0.000 A 
ATOM     17  C   UNL     1       7.987   6.785  18.695  0.00  0.00    +0.000 A 
ATOM     18  C   UNL     1       8.744   7.880  19.098  0.00  0.00    +0.000 A 
ATOM     19  C   UNL     1       8.568   9.143  18.500  0.00  0.00    +0.000 A 
ATOM     20  C   UNL     1       7.600   9.270  17.482  0.00  0.00    +0.000 A 
ATOM     21  C   UNL     1       6.856   8.163  17.061  0.00  0.00    +0.000 A 
BRANCH  19  22
ATOM     22  C   UNL     1       9.403  10.306  18.928  0.00  0.00    +0.000 A 
ATOM     23  C   UNL     1      10.135  11.048  17.975  0.00  0.00    +0.000 A 
ATOM     24  C   UNL     1      10.898  12.151  18.358  0.00  0.00    +0.000 A 
ATOM     25  C   UNL     1      10.965  12.523  19.700  0.00  0.00    +0.000 A 
ATOM     26  C   UNL     1      10.259  11.798  20.661  0.00  0.00    +0.000 A 
ATOM     27  C   UNL     1       9.475  10.703  20.281  0.00  0.00    +0.000 A 
ENDBRANCH  19  22
ENDBRANCH   3  16
TORSDOF 3
ENDMDL
MODEL 3
REMARK VINA RESULT:      -8.4      1.289      2.144
REMARK  Name = 
REMARK  3 active torsions:
REMARK  status: ('A' for Active; 'I' for Inactive)
REMARK    1  A    between atoms: C_7  and  C_8
REMARK    2  A    between atoms: C_10  and  C_11
REMARK    3  A    between atoms: C_14  and  C_15
REMARK                            x       y       z     vdW  Elec       q    Type
REMARK                         _______ _______ _______ _____ _____    ______ ____
ROOT
ATOM      1  C   UNL     1       4.636   5.119  17.694  0.00  0.00    +0.000 A 
ATOM      2  N   UNL     1       4.372   6.227  18.401  0.00  0.00    +0.000 NA
ATOM      3  C   UNL     1       3.030   6.212  18.483  0.00  0.00    +0.000 A 
ATOM      4  N   UNL     1       2.506   5.143  17.849  0.00  0.00    +0.000 NA
ATOM      5  O   UNL     1       3.527   4.493  17.372  0.00  0.00    +0.000 OA
ENDROOT
BRANCH   1  12
ATOM      6  N   UNL     1       7.723   5.435  14.231  0.00  0.00    +0.000 NA
ATOM      7  C   UNL     1       6.786   4.917  14.946  0.00  0.00    +0.000 C 
ATOM      8  N   UNL     1       5.990   3.864  14.419  0.00  0.00    +0.000 N 
ATOM      9  N   UNL     1       6.522   5.437  16.246  0.00  0.00    +0.000 N 
ATOM     10  C   UNL     1       7.489   6.112  17.077  0.00  0.00    +0.000 C 
ATOM     11  C   UNL     1       7.123   5.229  18.273  0.00  0.00    +0.000 C 
ATOM     12  C   UNL     1       6.026   4.671  17.358  0.00  0.00    +0.000 C 
ATOM     13  H   UNL     1       7.927   5.093  13.281  0.00  0.00    +0.000 HD
ATOM     14  H   UNL     1       6.164   3.497  13.473  0.00  0.00    +0.000 HD
ATOM     15  H   UNL     1       5.210   3.468  14.963  0.00  0.00    +0.000 HD
ENDBRANCH   1  12
BRANCH   3  16
ATOM     16  C   UNL     1       2.246   7.244  19.182  0.00  0.00    +0.000 A 
ATOM     17  C   UNL     1       1.924   8.435  18.518  0.00  0.00    +0.000 A 
ATOM     18  C   UNL     1       1.164   9.413  19.151  0.00  0.00    +0.000 A 
ATOM     19  C   UNL     1       0.720   9.240  20.477  0.00  0.00    +0.000 A 
ATOM     20  C   UNL     1       1.069   8.050  21.149  0.00  0.00    +0.000 A 
ATOM     21  C   UNL     1       1.813   7.057  20.503  0.00  0.00    +0.000 A 
BRANCH  19  22
ATOM     22  C   UNL     1      -0.114  10.290  21.138  0.00  0.00    +0.000 A 
ATOM     23  C   UNL     1      -0.505  10.145  22.488  0.00  0.00    +0.000 A 
ATOM     24  C   UNL     1      -1.263  11.128  23.123  0.00  0.00    +0.000 A 
ATOM     25  C   UNL     1      -1.662  12.265  22.423  0.00  0.00    +0.000 A 
ATOM     26  C   UNL     1      -1.296  12.426  21.086  0.00  0.00    +0.000 A 
ATOM     27  C   UNL     1      -0.520  11.452  20.447  0.00  0.00    +0.000 A 
ENDBRANCH  19  22
ENDBRANCH   3  16
TORSDOF 3
ENDMDL
MODEL 4
REMARK VINA RESULT:      -8.4      1.400      2.420
REMARK  Name = 
REMARK  3 active torsions:
REMARK  status: ('A' for Active; 'I' for Inactive)
REMARK    1  A    between atoms: C_7  and  C_8
REMARK    2  A    between atoms: C_10  and  C_11
REMARK    3  A    between atoms: C_14  and  C_15
REMARK                            x       y       z     vdW  Elec       q    Type
REMARK                         _______ _______ _______ _____ _____    ______ ____
ROOT
ATOM      1  C   UNL     1       4.526   4.928  17.548  0.00  0.00    +0.000 A 
ATOM      2  N   UNL     1       4.325   6.067  18.225  0.00  0.00    +0.000 NA
ATOM      3  C   UNL     1       2.989   6.085  18.382  0.00  0.00    +0.000 A 
ATOM      4  N   UNL     1       2.410   5.005  17.820  0.00  0.00    +0.000 NA
ATOM      5  O   UNL     1       3.389   4.315  17.312  0.00  0.00    +0.000 OA
ENDROOT
BRANCH   1  12
ATOM      6  N   UNL     1       7.637   5.471  14.135  0.00  0.00    +0.000 NA
ATOM      7  C   UNL     1       6.668   4.930  14.786  0.00  0.00    +0.000 C 
ATOM      8  N   UNL     1       5.808   4.003  14.137  0.00  0.00    +0.000 N 
ATOM      9  N   UNL     1       6.433   5.301  16.141  0.00  0.00    +0.000 N 
ATOM     10  C   UNL     1       7.439   5.806  17.043  0.00  0.00    +0.000 C 
ATOM     11  C   UNL     1       7.014   4.807  18.123  0.00  0.00    +0.000 C 
ATOM     12  C   UNL     1       5.886   4.438  17.152  0.00  0.00    +0.000 C 
ATOM     13  H   UNL     1       7.822   5.236  13.149  0.00  0.00    +0.000 HD
ATOM     14  H   UNL     1       5.960   3.744  13.151  0.00  0.00    +0.000 HD
ATOM     15  H   UNL     1       5.002   3.593  14.631  0.00  0.00    +0.000 HD
ENDBRANCH   1  12
BRANCH   3  16
ATOM     16  C   UNL     1       2.267   7.159  19.084  0.00  0.00    +0.000 A 
ATOM     17  C   UNL     1       1.882   6.975  20.418  0.00  0.00    +0.000 A 
ATOM     18  C   UNL     1       1.220   7.985  21.108  0.00  0.00    +0.000 A 
ATOM     19  C   UNL     1       0.905   9.205  20.479  0.00  0.00    +0.000 A 
ATOM     20  C   UNL     1       1.273   9.375  19.128  0.00  0.00    +0.000 A 
ATOM     21  C   UNL     1       1.959   8.368  18.442  0.00  0.00    +0.000 A 
BRANCH  19  22
ATOM     22  C   UNL     1       0.212  10.291  21.238  0.00  0.00    +0.000 A 
ATOM     23  C   UNL     1      -0.546   9.984  22.390  0.00  0.00    +0.000 A 
ATOM     24  C   UNL     1      -1.177  10.991  23.121  0.00  0.00    +0.000 A 
ATOM     25  C   UNL     1      -1.083  12.319  22.708  0.00  0.00    +0.000 A 
ATOM     26  C   UNL     1      -0.349  12.644  21.567  0.00  0.00    +0.000 A 
ATOM     27  C   UNL     1       0.303  11.642  20.839  0.00  0.00    +0.000 A 
ENDBRANCH  19  22
ENDBRANCH   3  16
TORSDOF 3
ENDMDL
MODEL 5
REMARK VINA RESULT:      -8.4      0.213      1.412
REMARK  Name = 
REMARK  3 active torsions:
REMARK  status: ('A' for Active; 'I' for Inactive)
REMARK    1  A    between atoms: C_7  and  C_8
REMARK    2  A    between atoms: C_10  and  C_11
REMARK    3  A    between atoms: C_14  and  C_15
REMARK                            x       y       z     vdW  Elec       q    Type
REMARK                         _______ _______ _______ _____ _____    ______ ____
ROOT
ATOM      1  C   UNL     1       4.306   6.344  17.247  0.00  0.00    +0.000 A 
ATOM      2  N   UNL     1       3.866   7.535  17.676  0.00  0.00    +0.000 NA
ATOM      3  C   UNL     1       2.698   7.222  18.265  0.00  0.00    +0.000 A 
ATOM      4  N   UNL     1       2.443   5.900  18.191  0.00  0.00    +0.000 NA
ATOM      5  O   UNL     1       3.456   5.391  17.553  0.00  0.00    +0.000 OA
ENDROOT
BRANCH   1  12
ATOM      6  N   UNL     1       8.325   4.062  17.757  0.00  0.00    +0.000 NA
ATOM      7  C   UNL     1       7.499   5.046  17.826  0.00  0.00    +0.000 C 
ATOM      8  N   UNL     1       7.772   6.142  18.690  0.00  0.00    +0.000 N 
ATOM      9  N   UNL     1       6.292   5.009  17.071  0.00  0.00    +0.000 N 
ATOM     10  C   UNL     1       6.107   4.270  15.847  0.00  0.00    +0.000 C 
ATOM     11  C   UNL     1       5.513   5.500  15.157  0.00  0.00    +0.000 C 
ATOM     12  C   UNL     1       5.614   6.160  16.538  0.00  0.00    +0.000 C 
ATOM     13  H   UNL     1       9.198   4.051  18.304  0.00  0.00    +0.000 HD
ATOM     14  H   UNL     1       8.634   6.166  19.253  0.00  0.00    +0.000 HD
ATOM     15  H   UNL     1       7.101   6.917  18.789  0.00  0.00    +0.000 HD
ENDBRANCH   1  12
BRANCH   3  16
ATOM     16  C   UNL     1       1.819   8.214  18.908  0.00  0.00    +0.000 A 
ATOM     17  C   UNL     1       1.549   8.112  20.278  0.00  0.00    +0.000 A 
ATOM     18  C   UNL     1       0.742   9.052  20.911  0.00  0.00    +0.000 A 
ATOM     19  C   UNL     1       0.162  10.113  20.188  0.00  0.00    +0.000 A 
ATOM     20  C   UNL     1       0.417  10.195  18.803  0.00  0.00    +0.000 A 
ATOM     21  C   UNL     1       1.248   9.263  18.173  0.00  0.00    +0.000 A 
BRANCH  19  22
ATOM     22  C   UNL     1      -0.687  11.128  20.883  0.00  0.00    +0.000 A 
ATOM     23  C   UNL     1      -0.691  11.207  22.294  0.00  0.00    +0.000 A 
ATOM     24  C   UNL     1      -1.460  12.166  22.954  0.00  0.00    +0.000 A 
ATOM     25  C   UNL     1      -2.254  13.050  22.225  0.00  0.00    +0.000 A 
ATOM     26  C   UNL     1      -2.273  12.983  20.832  0.00  0.00    +0.000 A 
ATOM     27  C   UNL     1      -1.490  12.037  20.161  0.00  0.00    +0.000 A 
ENDBRANCH  19  22
ENDBRANCH   3  16
TORSDOF 3
ENDMDL
MODEL 6
REMARK VINA RESULT:      -8.4      1.390      2.305
REMARK  Name = 
REMARK  3 active torsions:
REMARK  status: ('A' for Active; 'I' for Inactive)
REMARK    1  A    between atoms: C_7  and  C_8
REMARK    2  A    between atoms: C_10  and  C_11
REMARK    3  A    between atoms: C_14  and  C_15
REMARK                            x       y       z     vdW  Elec       q    Type
REMARK                         _______ _______ _______ _____ _____    ______ ____
ROOT
ATOM      1  C   UNL     1       4.706   4.895  17.488  0.00  0.00    +0.000 A 
ATOM      2  N   UNL     1       4.464   6.041  18.140  0.00  0.00    +0.000 NA
ATOM      3  C   UNL     1       3.133   5.997  18.329  0.00  0.00    +0.000 A 
ATOM      4  N   UNL     1       2.595   4.875  17.809  0.00  0.00    +0.000 NA
ATOM      5  O   UNL     1       3.596   4.220  17.296  0.00  0.00    +0.000 OA
ENDROOT
BRANCH   1  12
ATOM      6  N   UNL     1       7.678   5.437  13.953  0.00  0.00    +0.000 NA
ATOM      7  C   UNL     1       6.760   4.876  14.661  0.00  0.00    +0.000 C 
ATOM      8  N   UNL     1       5.936   3.871  14.086  0.00  0.00    +0.000 N 
ATOM      9  N   UNL     1       6.546   5.302  16.003  0.00  0.00    +0.000 N 
ATOM     10  C   UNL     1       7.547   5.907  16.846  0.00  0.00    +0.000 C 
ATOM     11  C   UNL     1       7.213   4.943  17.987  0.00  0.00    +0.000 C 
ATOM     12  C   UNL     1       6.079   4.462  17.073  0.00  0.00    +0.000 C 
ATOM     13  H   UNL     1       7.846   5.164  12.974  0.00  0.00    +0.000 HD
ATOM     14  H   UNL     1       6.074   3.572  13.110  0.00  0.00    +0.000 HD
ATOM     15  H   UNL     1       5.171   3.443  14.626  0.00  0.00    +0.000 HD
ENDBRANCH   1  12
BRANCH   3  16
ATOM     16  C   UNL     1       2.374   7.053  19.020  0.00  0.00    +0.000 A 
ATOM     17  C   UNL     1       1.905   6.827  20.320  0.00  0.00    +0.000 A 
ATOM     18  C   UNL     1       1.207   7.819  21.001  0.00  0.00    +0.000 A 
ATOM     19  C   UNL     1       0.938   9.062  20.395  0.00  0.00    +0.000 A 
ATOM     20  C   UNL     1       1.391   9.274  19.076  0.00  0.00    +0.000 A 
ATOM     21  C   UNL     1       2.113   8.284  18.401  0.00  0.00    +0.000 A 
BRANCH  19  22
ATOM     22  C   UNL     1       0.205  10.127  21.145  0.00  0.00    +0.000 A 
ATOM     23  C   UNL     1       0.053  11.416  20.587  0.00  0.00    +0.000 A 
ATOM     24  C   UNL     1      -0.648  12.412  21.267  0.00  0.00    +0.000 A 
ATOM     25  C   UNL     1      -1.195  12.151  22.522  0.00  0.00    +0.000 A 
ATOM     26  C   UNL     1      -1.048  10.888  23.097  0.00  0.00    +0.000 A 
ATOM     27  C   UNL     1      -0.361   9.878  22.414  0.00  0.00    +0.000 A 
ENDBRANCH  19  22
ENDBRANCH   3  16
TORSDOF 3
ENDMDL
MODEL 7
REMARK VINA RESULT:      -8.4      5.750      7.744
REMARK  Name = 
REMARK  3 active torsions:
REMARK  status: ('A' for Active; 'I' for Inactive)
REMARK    1  A    between atoms: C_7  and  C_8
REMARK    2  A    between atoms: C_10  and  C_11
REMARK    3  A    between atoms: C_14  and  C_15
REMARK                            x       y       z     vdW  Elec       q    Type
REMARK                         _______ _______ _______ _____ _____    ______ ____
ROOT
ATOM      1  C   UNL     1       5.156   4.053  17.308  0.00  0.00    +0.000 A 
ATOM      2  N   UNL     1       5.508   5.116  18.044  0.00  0.00    +0.000 NA
ATOM      3  C   UNL     1       6.484   5.675  17.307  0.00  0.00    +0.000 A 
ATOM      4  N   UNL     1       6.714   4.977  16.177  0.00  0.00    +0.000 NA
ATOM      5  O   UNL     1       5.878   3.981  16.213  0.00  0.00    +0.000 OA
ENDROOT
BRANCH   1  12
ATOM      6  N   UNL     1       2.984   2.536  21.129  0.00  0.00    +0.000 NA
ATOM      7  C   UNL     1       3.837   2.533  20.166  0.00  0.00    +0.000 C 
ATOM      8  N   UNL     1       4.993   1.710  20.244  0.00  0.00    +0.000 N 
ATOM      9  N   UNL     1       3.641   3.393  19.047  0.00  0.00    +0.000 N 
ATOM     10  C   UNL     1       2.360   3.882  18.598  0.00  0.00    +0.000 C 
ATOM     11  C   UNL     1       2.672   3.467  17.158  0.00  0.00    +0.000 C 
ATOM     12  C   UNL     1       4.061   3.108  17.701  0.00  0.00    +0.000 C 
ATOM     13  H   UNL     1       3.107   1.939  21.960  0.00  0.00    +0.000 HD
ATOM     14  H   UNL     1       5.151   1.101  21.059  0.00  0.00    +0.000 HD
ATOM     15  H   UNL     1       5.706   1.728  19.500  0.00  0.00    +0.000 HD
ENDBRANCH   1  12
BRANCH   3  16
ATOM     16  C   UNL     1       7.201   6.899  17.701  0.00  0.00    +0.000 A 
ATOM     17  C   UNL     1       8.121   6.851  18.757  0.00  0.00    +0.000 A 
ATOM     18  C   UNL     1       8.828   7.989  19.131  0.00  0.00    +0.000 A 
ATOM     19  C   UNL     1       8.622   9.218  18.474  0.00  0.00    +0.000 A 
ATOM     20  C   UNL     1       7.676   9.266  17.429  0.00  0.00    +0.000 A 
ATOM     21  C   UNL     1       6.983   8.116  17.038  0.00  0.00    +0.000 A 
BRANCH  19  22
ATOM     22  C   UNL     1       9.403  10.429  18.872  0.00  0.00    +0.000 A 
ATOM     23  C   UNL     1       9.608  10.728  20.237  0.00  0.00    +0.000 A 
ATOM     24  C   UNL     1      10.355  11.842  20.621  0.00  0.00    +0.000 A 
ATOM     25  C   UNL     1      10.896  12.689  19.655  0.00  0.00    +0.000 A 
ATOM     26  C   UNL     1      10.698  12.418  18.300  0.00  0.00    +0.000 A 
ATOM     27  C   UNL     1       9.965  11.293  17.907  0.00  0.00    +0.000 A 
ENDBRANCH  19  22
ENDBRANCH   3  16
TORSDOF 3
ENDMDL
MODEL 8
REMARK VINA RESULT:      -8.4      5.674      7.593
REMARK  Name = 
REMARK  3 active torsions:
REMARK  status: ('A' for Active; 'I' for Inactive)
REMARK    1  A    between atoms: C_7  and  C_8
REMARK    2  A    between atoms: C_10  and  C_11
REMARK    3  A    between atoms: C_14  and  C_15
REMARK                            x       y       z     vdW  Elec       q    Type
REMARK                         _______ _______ _______ _____ _____    ______ ____
ROOT
ATOM      1  C   UNL     1       4.735   4.245  17.307  0.00  0.00    +0.000 A 
ATOM      2  N   UNL     1       5.351   5.115  18.119  0.00  0.00    +0.000 NA
ATOM      3  C   UNL     1       6.084   5.849  17.263  0.00  0.00    +0.000 A 
ATOM      4  N   UNL     1       5.920   5.436  15.990  0.00  0.00    +0.000 NA
ATOM      5  O   UNL     1       5.083   4.442  16.056  0.00  0.00    +0.000 OA
ENDROOT
BRANCH   1  12
ATOM      6  N   UNL     1       3.119   2.505  21.305  0.00  0.00    +0.000 NA
ATOM      7  C   UNL     1       3.858   2.583  20.254  0.00  0.00    +0.000 C 
ATOM      8  N   UNL     1       5.073   1.850  20.185  0.00  0.00    +0.000 N 
ATOM      9  N   UNL     1       3.475   3.443  19.184  0.00  0.00    +0.000 N 
ATOM     10  C   UNL     1       2.120   3.840  18.890  0.00  0.00    +0.000 C 
ATOM     11  C   UNL     1       2.300   3.473  17.415  0.00  0.00    +0.000 C 
ATOM     12  C   UNL     1       3.764   3.213  17.795  0.00  0.00    +0.000 C 
ATOM     13  H   UNL     1       3.377   1.906  22.102  0.00  0.00    +0.000 HD
ATOM     14  H   UNL     1       5.365   1.241  20.963  0.00  0.00    +0.000 HD
ATOM     15  H   UNL     1       5.696   1.934  19.369  0.00  0.00    +0.000 HD
ENDBRANCH   1  12
BRANCH   3  16
ATOM     16  C   UNL     1       6.951   6.962  17.683  0.00  0.00    +0.000 A 
ATOM     17  C   UNL     1       6.785   8.225  17.100  0.00  0.00    +0.000 A 
ATOM     18  C   UNL     1       7.577   9.297  17.498  0.00  0.00    +0.000 A 
ATOM     19  C   UNL     1       8.575   9.135  18.479  0.00  0.00    +0.000 A 
ATOM     20  C   UNL     1       8.755   7.855  19.044  0.00  0.00    +0.000 A 
ATOM     21  C   UNL     1       7.942   6.783  18.659  0.00  0.00    +0.000 A 
BRANCH  19  22
ATOM     22  C   UNL     1       9.405  10.300  18.913  0.00  0.00    +0.000 A 
ATOM     23  C   UNL     1      10.131  11.052  17.963  0.00  0.00    +0.000 A 
ATOM     24  C   UNL     1      10.890  12.155  18.353  0.00  0.00    +0.000 A 
ATOM     25  C   UNL     1      10.958  12.519  19.696  0.00  0.00    +0.000 A 
ATOM     26  C   UNL     1      10.258  11.784  20.654  0.00  0.00    +0.000 A 
ATOM     27  C   UNL     1       9.479  10.687  20.269  0.00  0.00    +0.000 A 
ENDBRANCH  19  22
ENDBRANCH   3  16
TORSDOF 3
ENDMDL
MODEL 9
REMARK VINA RESULT:      -8.3      0.360      1.050
REMARK  Name = 
REMARK  3 active torsions:
REMARK  status: ('A' for Active; 'I' for Inactive)
REMARK    1  A    between atoms: C_7  and  C_8
REMARK    2  A    between atoms: C_10  and  C_11
REMARK    3  A    between atoms: C_14  and  C_15
REMARK                            x       y       z     vdW  Elec       q    Type
REMARK                         _______ _______ _______ _____ _____    ______ ____
ROOT
ATOM      1  C   UNL     1       4.337   6.119  17.154  0.00  0.00    +0.000 A 
ATOM      2  N   UNL     1       3.980   7.297  17.684  0.00  0.00    +0.000 NA
ATOM      3  C   UNL     1       2.782   7.023  18.230  0.00  0.00    +0.000 A 
ATOM      4  N   UNL     1       2.431   5.736  18.035  0.00  0.00    +0.000 NA
ATOM      5  O   UNL     1       3.413   5.210  17.364  0.00  0.00    +0.000 OA
ENDROOT
BRANCH   1  12
ATOM      6  N   UNL     1       8.427   4.010  17.821  0.00  0.00    +0.000 NA
ATOM      7  C   UNL     1       7.574   4.973  17.806  0.00  0.00    +0.000 C 
ATOM      8  N   UNL     1       7.828   6.157  18.550  0.00  0.00    +0.000 N 
ATOM      9  N   UNL     1       6.358   4.828  17.079  0.00  0.00    +0.000 N 
ATOM     10  C   UNL     1       6.177   3.963  15.939  0.00  0.00    +0.000 C 
ATOM     11  C   UNL     1       5.537   5.101  15.139  0.00  0.00    +0.000 C 
ATOM     12  C   UNL     1       5.639   5.900  16.445  0.00  0.00    +0.000 C 
ATOM     13  H   UNL     1       9.308   4.077  18.351  0.00  0.00    +0.000 HD
ATOM     14  H   UNL     1       8.697   6.261  19.093  0.00  0.00    +0.000 HD
ATOM     15  H   UNL     1       7.137   6.920  18.581  0.00  0.00    +0.000 HD
ENDBRANCH   1  12
BRANCH   3  16
ATOM     16  C   UNL     1       1.970   8.018  18.950  0.00  0.00    +0.000 A 
ATOM     17  C   UNL     1       1.802   7.900  20.336  0.00  0.00    +0.000 A 
ATOM     18  C   UNL     1       1.059   8.842  21.040  0.00  0.00    +0.000 A 
ATOM     19  C   UNL     1       0.442   9.921  20.377  0.00  0.00    +0.000 A 
ATOM     20  C   UNL     1       0.594  10.020  18.978  0.00  0.00    +0.000 A 
ATOM     21  C   UNL     1       1.361   9.086  18.275  0.00  0.00    +0.000 A 
BRANCH  19  22
ATOM     22  C   UNL     1      -0.336  10.938  21.148  0.00  0.00    +0.000 A 
ATOM     23  C   UNL     1      -0.615  12.202  20.582  0.00  0.00    +0.000 A 
ATOM     24  C   UNL     1      -1.361  13.151  21.282  0.00  0.00    +0.000 A 
ATOM     25  C   UNL     1      -1.825  12.868  22.565  0.00  0.00    +0.000 A 
ATOM     26  C   UNL     1      -1.553  11.630  23.148  0.00  0.00    +0.000 A 
ATOM     27  C   UNL     1      -0.822  10.666  22.445  0.00  0.00    +0.000 A 
ENDBRANCH  19  22
ENDBRANCH   3  16
TORSDOF 3
ENDMDL
