MODEL 1
REMARK VINA RESULT:      -6.9      0.000      0.000
REMARK  Name = 
REMARK  7 active torsions:
REMARK  status: ('A' for Active; 'I' for Inactive)
REMARK    1  A    between atoms: C_1  and  C_2
REMARK    2  A    between atoms: C_2  and  C_3
REMARK    3  A    between atoms: C_6  and  S_7
REMARK    4  A    between atoms: S_7  and  C_10
REMARK    5  A    between atoms: N_17  and  C_18
REMARK    6  A    between atoms: C_18  and  C_19
REMARK    7  A    between atoms: C_18  and  C_20
REMARK                            x       y       z     vdW  Elec       q    Type
REMARK                         _______ _______ _______ _____ _____    ______ ____
ROOT
ATOM      1  C   UNL     1      -1.939  13.420  20.881  0.00  0.00    +0.000 A 
ATOM      2  N   UNL     1      -3.295  13.590  21.093  0.00  0.00    +0.000 NA
ATOM      3  N   UNL     1      -3.946  12.911  20.150  0.00  0.00    +0.000 NA
ATOM      4  N   UNL     1      -3.023  12.280  19.411  0.00  0.00    +0.000 N 
ATOM      5  C   UNL     1      -1.739  12.546  19.842  0.00  0.00    +0.000 A 
ATOM      6  N   UNL     1      -0.657  11.926  19.323  0.00  0.00    +0.000 NA
ATOM      7  C   UNL     1      -0.995  10.729  18.915  0.00  0.00    +0.000 A 
ATOM      8  N   UNL     1      -0.586   9.642  19.676  0.00  0.00    +0.000 N 
ATOM      9  C   UNL     1      -2.149  10.640  17.961  0.00  0.00    +0.000 A 
ATOM     10  C   UNL     1      -2.113   9.993  16.731  0.00  0.00    +0.000 A 
ATOM     11  C   UNL     1      -3.175  10.209  15.847  0.00  0.00    +0.000 A 
ATOM     12 CL   UNL     1      -3.093   9.582  14.243  0.00  0.00    +0.000 Cl
ATOM     13  C   UNL     1      -4.288  10.986  16.214  0.00  0.00    +0.000 A 
ATOM     14  C   UNL     1      -4.346  11.599  17.468  0.00  0.00    +0.000 A 
ATOM     15  C   UNL     1      -3.239  11.464  18.294  0.00  0.00    +0.000 A 
ATOM     16  H   UNL     1      -1.399   9.139  20.035  0.00  0.00    +0.000 HD
ENDROOT
BRANCH   1  17
ATOM     17  S   UNL     1      -0.727  14.266  21.764  0.00  0.00    +0.000 S 
ATOM     18  O   UNL     1       0.306  13.332  22.111  0.00  0.00    +0.000 OA
ATOM     19  O   UNL     1      -1.475  15.001  22.751  0.00  0.00    +0.000 OA
BRANCH  17  23
ATOM     20  C   UNL     1       0.860  17.083  18.584  0.00  0.00    +0.000 A 
ATOM     21  C   UNL     1       1.726  16.178  19.218  0.00  0.00    +0.000 A 
ATOM     22  C   UNL     1       1.241  15.323  20.208  0.00  0.00    +0.000 A 
ATOM     23  C   UNL     1      -0.117  15.370  20.553  0.00  0.00    +0.000 A 
ATOM     24  C   UNL     1      -0.987  16.260  19.920  0.00  0.00    +0.000 A 
ATOM     25  C   UNL     1      -0.498  17.107  18.931  0.00  0.00    +0.000 A 
BRANCH  20  27
ATOM     26  C   UNL     1       0.290  18.438  16.553  0.00  0.00    +0.000 C 
ATOM     27  C   UNL     1       1.381  18.015  17.521  0.00  0.00    +0.000 C 
ENDBRANCH  20  27
ENDBRANCH  17  23
ENDBRANCH   1  17
BRANCH   8  28
ATOM     28  C   UNL     1       0.366   9.904  20.788  0.00  0.00    +0.000 C 
ATOM     29  C   UNL     1      -0.358   9.939  22.132  0.00  0.00    +0.000 C 
ATOM     30  C   UNL     1       1.449   8.830  20.790  0.00  0.00    +0.000 C 
ENDBRANCH   8  28
TORSDOF 4
ENDMDL
MODEL 2
REMARK VINA RESULT:      -6.9      0.933      1.220
REMARK  Name = 
REMARK  7 active torsions:
REMARK  status: ('A' for Active; 'I' for Inactive)
REMARK    1  A    between atoms: C_1  and  C_2
REMARK    2  A    between atoms: C_2  and  C_3
REMARK    3  A    between atoms: C_6  and  S_7
REMARK    4  A    between atoms: S_7  and  C_10
REMARK    5  A    between atoms: N_17  and  C_18
REMARK    6  A    between atoms: C_18  and  C_19
REMARK    7  A    between atoms: C_18  and  C_20
REMARK                            x       y       z     vdW  Elec       q    Type
REMARK                         _______ _______ _______ _____ _____    ______ ____
ROOT
ATOM      1  C   UNL     1      -1.974  13.380  21.218  0.00  0.00    +0.000 A 
ATOM      2  N   UNL     1      -3.333  13.592  21.364  0.00  0.00    +0.000 NA
ATOM      3  N   UNL     1      -3.955  12.964  20.368  0.00  0.00    +0.000 NA
ATOM      4  N   UNL     1      -3.015  12.322  19.658  0.00  0.00    +0.000 N 
ATOM      5  C   UNL     1      -1.748  12.531  20.165  0.00  0.00    +0.000 A 
ATOM      6  N   UNL     1      -0.661  11.888  19.684  0.00  0.00    +0.000 NA
ATOM      7  C   UNL     1      -1.016  10.716  19.222  0.00  0.00    +0.000 A 
ATOM      8  N   UNL     1      -0.686   9.594  19.969  0.00  0.00    +0.000 N 
ATOM      9  C   UNL     1      -2.119  10.696  18.206  0.00  0.00    +0.000 A 
ATOM     10  C   UNL     1      -2.039  10.085  16.960  0.00  0.00    +0.000 A 
ATOM     11  C   UNL     1      -3.044  10.364  16.028  0.00  0.00    +0.000 A 
ATOM     12 CL   UNL     1      -2.897   9.782  14.412  0.00  0.00    +0.000 Cl
ATOM     13  C   UNL     1      -4.149  11.170  16.360  0.00  0.00    +0.000 A 
ATOM     14  C   UNL     1      -4.253  11.746  17.628  0.00  0.00    +0.000 A 
ATOM     15  C   UNL     1      -3.198  11.548  18.506  0.00  0.00    +0.000 A 
ATOM     16  H   UNL     1      -1.534   9.109  20.268  0.00  0.00    +0.000 HD
ENDROOT
BRANCH   1  17
ATOM     17  S   UNL     1      -0.783  14.156  22.190  0.00  0.00    +0.000 S 
ATOM     18  O   UNL     1      -0.082  13.145  22.929  0.00  0.00    +0.000 OA
ATOM     19  O   UNL     1      -1.509  15.224  22.829  0.00  0.00    +0.000 OA
BRANCH  17  23
ATOM     20  C   UNL     1       1.977  15.829  19.005  0.00  0.00    +0.000 A 
ATOM     21  C   UNL     1       2.427  14.814  19.863  0.00  0.00    +0.000 A 
ATOM     22  C   UNL     1       1.583  14.311  20.854  0.00  0.00    +0.000 A 
ATOM     23  C   UNL     1       0.283  14.821  20.975  0.00  0.00    +0.000 A 
ATOM     24  C   UNL     1      -0.176  15.824  20.119  0.00  0.00    +0.000 A 
ATOM     25  C   UNL     1       0.669  16.318  19.130  0.00  0.00    +0.000 A 
BRANCH  20  27
ATOM     26  C   UNL     1       4.066  15.464  17.668  0.00  0.00    +0.000 C 
ATOM     27  C   UNL     1       2.887  16.382  17.940  0.00  0.00    +0.000 C 
ENDBRANCH  20  27
ENDBRANCH  17  23
ENDBRANCH   1  17
BRANCH   8  28
ATOM     28  C   UNL     1       0.213   9.789  21.138  0.00  0.00    +0.000 C 
ATOM     29  C   UNL     1      -0.572   9.740  22.447  0.00  0.00    +0.000 C 
ATOM     30  C   UNL     1       1.300   8.718  21.124  0.00  0.00    +0.000 C 
ENDBRANCH   8  28
TORSDOF 4
ENDMDL
MODEL 3
REMARK VINA RESULT:      -6.8      0.858      1.391
REMARK  Name = 
REMARK  7 active torsions:
REMARK  status: ('A' for Active; 'I' for Inactive)
REMARK    1  A    between atoms: C_1  and  C_2
REMARK    2  A    between atoms: C_2  and  C_3
REMARK    3  A    between atoms: C_6  and  S_7
REMARK    4  A    between atoms: S_7  and  C_10
REMARK    5  A    between atoms: N_17  and  C_18
REMARK    6  A    between atoms: C_18  and  C_19
REMARK    7  A    between atoms: C_18  and  C_20
REMARK                            x       y       z     vdW  Elec       q    Type
REMARK                         _______ _______ _______ _____ _____    ______ ____
ROOT
ATOM      1  C   UNL     1      -1.881  13.291  21.157  0.00  0.00    +0.000 A 
ATOM      2  N   UNL     1      -3.237  13.529  21.292  0.00  0.00    +0.000 NA
ATOM      3  N   UNL     1      -3.863  12.920  20.287  0.00  0.00    +0.000 NA
ATOM      4  N   UNL     1      -2.930  12.264  19.582  0.00  0.00    +0.000 N 
ATOM      5  C   UNL     1      -1.663  12.443  20.101  0.00  0.00    +0.000 A 
ATOM      6  N   UNL     1      -0.585  11.781  19.626  0.00  0.00    +0.000 NA
ATOM      7  C   UNL     1      -0.961  10.619  19.154  0.00  0.00    +0.000 A 
ATOM      8  N   UNL     1      -0.660   9.486  19.897  0.00  0.00    +0.000 N 
ATOM      9  C   UNL     1      -2.055  10.627  18.128  0.00  0.00    +0.000 A 
ATOM     10  C   UNL     1      -1.977  10.022  16.880  0.00  0.00    +0.000 A 
ATOM     11  C   UNL     1      -2.968  10.327  15.941  0.00  0.00    +0.000 A 
ATOM     12 CL   UNL     1      -2.818   9.751  14.323  0.00  0.00    +0.000 Cl
ATOM     13  C   UNL     1      -4.058  11.153  16.268  0.00  0.00    +0.000 A 
ATOM     14  C   UNL     1      -4.162  11.724  17.538  0.00  0.00    +0.000 A 
ATOM     15  C   UNL     1      -3.119  11.500  18.424  0.00  0.00    +0.000 A 
ATOM     16  H   UNL     1      -1.520   9.017  20.186  0.00  0.00    +0.000 HD
ENDROOT
BRANCH   1  17
ATOM     17  S   UNL     1      -0.683  14.037  22.144  0.00  0.00    +0.000 S 
ATOM     18  O   UNL     1      -0.059  13.016  22.936  0.00  0.00    +0.000 OA
ATOM     19  O   UNL     1      -1.372  15.160  22.725  0.00  0.00    +0.000 OA
BRANCH  17  23
ATOM     20  C   UNL     1       2.269  15.570  19.063  0.00  0.00    +0.000 A 
ATOM     21  C   UNL     1       0.957  16.067  19.088  0.00  0.00    +0.000 A 
ATOM     22  C   UNL     1       0.044  15.584  20.026  0.00  0.00    +0.000 A 
ATOM     23  C   UNL     1       0.454  14.607  20.945  0.00  0.00    +0.000 A 
ATOM     24  C   UNL     1       1.760  14.114  20.932  0.00  0.00    +0.000 A 
ATOM     25  C   UNL     1       2.666  14.603  19.997  0.00  0.00    +0.000 A 
BRANCH  20  27
ATOM     26  C   UNL     1       2.626  17.093  17.103  0.00  0.00    +0.000 C 
ATOM     27  C   UNL     1       3.256  16.082  18.046  0.00  0.00    +0.000 C 
ENDBRANCH  20  27
ENDBRANCH  17  23
ENDBRANCH   1  17
BRANCH   8  28
ATOM     28  C   UNL     1       0.233   9.656  21.075  0.00  0.00    +0.000 C 
ATOM     29  C   UNL     1      -0.560   9.578  22.378  0.00  0.00    +0.000 C 
ATOM     30  C   UNL     1       1.320   8.587  21.044  0.00  0.00    +0.000 C 
ENDBRANCH   8  28
TORSDOF 4
ENDMDL
MODEL 4
REMARK VINA RESULT:      -6.8      3.435      7.154
REMARK  Name = 
REMARK  7 active torsions:
REMARK  status: ('A' for Active; 'I' for Inactive)
REMARK    1  A    between atoms: C_1  and  C_2
REMARK    2  A    between atoms: C_2  and  C_3
REMARK    3  A    between atoms: C_6  and  S_7
REMARK    4  A    between atoms: S_7  and  C_10
REMARK    5  A    between atoms: N_17  and  C_18
REMARK    6  A    between atoms: C_18  and  C_19
REMARK    7  A    between atoms: C_18  and  C_20
REMARK                            x       y       z     vdW  Elec       q    Type
REMARK                         _______ _______ _______ _____ _____    ______ ____
ROOT
ATOM      1  C   UNL     1       0.500  11.725  20.576  0.00  0.00    +0.000 A 
ATOM      2  N   UNL     1       1.691  11.909  21.256  0.00  0.00    +0.000 NA
ATOM      3  N   UNL     1       2.120  13.144  21.005  0.00  0.00    +0.000 NA
ATOM      4  N   UNL     1       1.189  13.739  20.245  0.00  0.00    +0.000 N 
ATOM      5  C   UNL     1       0.132  12.896  19.963  0.00  0.00    +0.000 A 
ATOM      6  N   UNL     1      -0.976  13.316  19.314  0.00  0.00    +0.000 NA
ATOM      7  C   UNL     1      -1.176  14.585  19.570  0.00  0.00    +0.000 A 
ATOM      8  N   UNL     1      -2.208  14.920  20.436  0.00  0.00    +0.000 N 
ATOM      9  C   UNL     1      -0.034  15.517  19.298  0.00  0.00    +0.000 A 
ATOM     10  C   UNL     1      -0.112  16.660  18.510  0.00  0.00    +0.000 A 
ATOM     11  C   UNL     1       1.084  17.286  18.143  0.00  0.00    +0.000 A 
ATOM     12 CL   UNL     1       1.055  18.592  17.019  0.00  0.00    +0.000 Cl
ATOM     13  C   UNL     1       2.326  16.830  18.620  0.00  0.00    +0.000 A 
ATOM     14  C   UNL     1       2.402  15.709  19.450  0.00  0.00    +0.000 A 
ATOM     15  C   UNL     1       1.219  15.035  19.719  0.00  0.00    +0.000 A 
ATOM     16  H   UNL     1      -1.833  15.389  21.262  0.00  0.00    +0.000 HD
ENDROOT
BRANCH   1  17
ATOM     17  S   UNL     1      -0.314  10.211  20.480  0.00  0.00    +0.000 S 
ATOM     18  O   UNL     1      -1.454  10.371  19.623  0.00  0.00    +0.000 OA
ATOM     19  O   UNL     1      -0.426   9.797  21.855  0.00  0.00    +0.000 OA
BRANCH  17  23
ATOM     20  C   UNL     1       2.737   7.602  18.372  0.00  0.00    +0.000 A 
ATOM     21  C   UNL     1       2.366   7.321  19.696  0.00  0.00    +0.000 A 
ATOM     22  C   UNL     1       1.440   8.134  20.350  0.00  0.00    +0.000 A 
ATOM     23  C   UNL     1       0.878   9.223  19.669  0.00  0.00    +0.000 A 
ATOM     24  C   UNL     1       1.234   9.504  18.348  0.00  0.00    +0.000 A 
ATOM     25  C   UNL     1       2.156   8.687  17.701  0.00  0.00    +0.000 A 
BRANCH  20  27
ATOM     26  C   UNL     1       3.377   5.261  17.741  0.00  0.00    +0.000 C 
ATOM     27  C   UNL     1       3.744   6.733  17.665  0.00  0.00    +0.000 C 
ENDBRANCH  20  27
ENDBRANCH  17  23
ENDBRANCH   1  17
BRANCH   8  28
ATOM     28  C   UNL     1      -3.129  13.831  20.858  0.00  0.00    +0.000 C 
ATOM     29  C   UNL     1      -2.858  13.413  22.301  0.00  0.00    +0.000 C 
ATOM     30  C   UNL     1      -4.572  14.300  20.697  0.00  0.00    +0.000 C 
ENDBRANCH   8  28
TORSDOF 4
ENDMDL
MODEL 5
REMARK VINA RESULT:      -6.7      7.130      9.394
REMARK  Name = 
REMARK  7 active torsions:
REMARK  status: ('A' for Active; 'I' for Inactive)
REMARK    1  A    between atoms: C_1  and  C_2
REMARK    2  A    between atoms: C_2  and  C_3
REMARK    3  A    between atoms: C_6  and  S_7
REMARK    4  A    between atoms: S_7  and  C_10
REMARK    5  A    between atoms: N_17  and  C_18
REMARK    6  A    between atoms: C_18  and  C_19
REMARK    7  A    between atoms: C_18  and  C_20
REMARK                            x       y       z     vdW  Elec       q    Type
REMARK                         _______ _______ _______ _____ _____    ______ ____
ROOT
ATOM      1  C   UNL     1       6.275  14.435  22.231  0.00  0.00    +0.000 A 
ATOM      2  N   UNL     1       5.289  13.601  22.728  0.00  0.00    +0.000 NA
ATOM      3  N   UNL     1       4.197  13.770  21.986  0.00  0.00    +0.000 NA
ATOM      4  N   UNL     1       4.511  14.635  21.011  0.00  0.00    +0.000 N 
ATOM      5  C   UNL     1       5.819  15.069  21.103  0.00  0.00    +0.000 A 
ATOM      6  N   UNL     1       6.390  15.850  20.160  0.00  0.00    +0.000 NA
ATOM      7  C   UNL     1       5.845  15.600  18.997  0.00  0.00    +0.000 A 
ATOM      8  N   UNL     1       6.583  14.871  18.075  0.00  0.00    +0.000 N 
ATOM      9  C   UNL     1       4.351  15.701  18.915  0.00  0.00    +0.000 A 
ATOM     10  C   UNL     1       3.657  16.470  17.988  0.00  0.00    +0.000 A 
ATOM     11  C   UNL     1       2.287  16.665  18.193  0.00  0.00    +0.000 A 
ATOM     12 CL   UNL     1       1.419  17.758  17.182  0.00  0.00    +0.000 Cl
ATOM     13  C   UNL     1       1.608  16.037  19.253  0.00  0.00    +0.000 A 
ATOM     14  C   UNL     1       2.296  15.226  20.157  0.00  0.00    +0.000 A 
ATOM     15  C   UNL     1       3.671  15.127  20.006  0.00  0.00    +0.000 A 
ATOM     16  H   UNL     1       6.106  13.993  17.859  0.00  0.00    +0.000 HD
ENDROOT
BRANCH   1  17
ATOM     17  S   UNL     1       7.799  14.666  22.998  0.00  0.00    +0.000 S 
ATOM     18  O   UNL     1       7.735  14.077  24.305  0.00  0.00    +0.000 OA
ATOM     19  O   UNL     1       8.078  16.064  22.787  0.00  0.00    +0.000 OA
BRANCH  17  23
ATOM     20  C   UNL     1      10.483  12.169  20.330  0.00  0.00    +0.000 A 
ATOM     21  C   UNL     1       9.344  11.596  20.916  0.00  0.00    +0.000 A 
ATOM     22  C   UNL     1       8.527  12.360  21.749  0.00  0.00    +0.000 A 
ATOM     23  C   UNL     1       8.851  13.703  21.986  0.00  0.00    +0.000 A 
ATOM     24  C   UNL     1       9.977  14.284  21.400  0.00  0.00    +0.000 A 
ATOM     25  C   UNL     1      10.785  13.518  20.566  0.00  0.00    +0.000 A 
BRANCH  20  27
ATOM     26  C   UNL     1      11.881  12.145  18.248  0.00  0.00    +0.000 C 
ATOM     27  C   UNL     1      11.374  11.346  19.436  0.00  0.00    +0.000 C 
ENDBRANCH  20  27
ENDBRANCH  17  23
ENDBRANCH   1  17
BRANCH   8  28
ATOM     28  C   UNL     1       8.007  14.595  18.402  0.00  0.00    +0.000 C 
ATOM     29  C   UNL     1       8.471  13.285  17.767  0.00  0.00    +0.000 C 
ATOM     30  C   UNL     1       8.870  15.758  17.924  0.00  0.00    +0.000 C 
ENDBRANCH   8  28
TORSDOF 4
ENDMDL
MODEL 6
REMARK VINA RESULT:      -6.6      3.935      6.674
REMARK  Name = 
REMARK  7 active torsions:
REMARK  status: ('A' for Active; 'I' for Inactive)
REMARK    1  A    between atoms: C_1  and  C_2
REMARK    2  A    between atoms: C_2  and  C_3
REMARK    3  A    between atoms: C_6  and  S_7
REMARK    4  A    between atoms: S_7  and  C_10
REMARK    5  A    between atoms: N_17  and  C_18
REMARK    6  A    between atoms: C_18  and  C_19
REMARK    7  A    between atoms: C_18  and  C_20
REMARK                            x       y       z     vdW  Elec       q    Type
REMARK                         _______ _______ _______ _____ _____    ______ ____
ROOT
ATOM      1  C   UNL     1      -0.270  11.816  20.872  0.00  0.00    +0.000 A 
ATOM      2  N   UNL     1      -0.069  11.107  22.044  0.00  0.00    +0.000 NA
ATOM      3  N   UNL     1      -1.149  11.261  22.807  0.00  0.00    +0.000 NA
ATOM      4  N   UNL     1      -2.028  11.991  22.104  0.00  0.00    +0.000 N 
ATOM      5  C   UNL     1      -1.535  12.348  20.865  0.00  0.00    +0.000 A 
ATOM      6  N   UNL     1      -2.289  12.982  19.940  0.00  0.00    +0.000 NA
ATOM      7  C   UNL     1      -3.543  12.638  20.092  0.00  0.00    +0.000 A 
ATOM      8  N   UNL     1      -4.096  11.765  19.164  0.00  0.00    +0.000 N 
ATOM      9  C   UNL     1      -4.135  12.825  21.457  0.00  0.00    +0.000 A 
ATOM     10  C   UNL     1      -5.303  13.529  21.725  0.00  0.00    +0.000 A 
ATOM     11  C   UNL     1      -5.593  13.832  23.060  0.00  0.00    +0.000 A 
ATOM     12 CL   UNL     1      -6.926  14.859  23.434  0.00  0.00    +0.000 Cl
ATOM     13  C   UNL     1      -4.778  13.370  24.110  0.00  0.00    +0.000 A 
ATOM     14  C   UNL     1      -3.629  12.623  23.843  0.00  0.00    +0.000 A 
ATOM     15  C   UNL     1      -3.296  12.420  22.511  0.00  0.00    +0.000 A 
ATOM     16  H   UNL     1      -4.387  10.902  19.626  0.00  0.00    +0.000 HD
ENDROOT
BRANCH   1  17
ATOM     17  S   UNL     1       0.947  12.033  19.674  0.00  0.00    +0.000 S 
ATOM     18  O   UNL     1       2.067  12.686  20.289  0.00  0.00    +0.000 OA
ATOM     19  O   UNL     1       0.230  12.601  18.561  0.00  0.00    +0.000 OA
BRANCH  17  23
ATOM     20  C   UNL     1       2.122   7.759  18.720  0.00  0.00    +0.000 A 
ATOM     21  C   UNL     1       2.210   8.750  17.731  0.00  0.00    +0.000 A 
ATOM     22  C   UNL     1       1.833  10.062  18.020  0.00  0.00    +0.000 A 
ATOM     23  C   UNL     1       1.377  10.379  19.307  0.00  0.00    +0.000 A 
ATOM     24  C   UNL     1       1.295   9.401  20.300  0.00  0.00    +0.000 A 
ATOM     25  C   UNL     1       1.677   8.096  20.006  0.00  0.00    +0.000 A 
BRANCH  20  27
ATOM     26  C   UNL     1       2.206   5.398  19.562  0.00  0.00    +0.000 C 
ATOM     27  C   UNL     1       2.519   6.339  18.411  0.00  0.00    +0.000 C 
ENDBRANCH  20  27
ENDBRANCH  17  23
ENDBRANCH   1  17
BRANCH   8  28
ATOM     28  C   UNL     1      -3.283  11.437  17.963  0.00  0.00    +0.000 C 
ATOM     29  C   UNL     1      -2.597  10.082  18.120  0.00  0.00    +0.000 C 
ATOM     30  C   UNL     1      -4.179  11.445  16.729  0.00  0.00    +0.000 C 
ENDBRANCH   8  28
TORSDOF 4
ENDMDL
MODEL 7
REMARK VINA RESULT:      -6.6      2.870      6.726
REMARK  Name = 
REMARK  7 active torsions:
REMARK  status: ('A' for Active; 'I' for Inactive)
REMARK    1  A    between atoms: C_1  and  C_2
REMARK    2  A    between atoms: C_2  and  C_3
REMARK    3  A    between atoms: C_6  and  S_7
REMARK    4  A    between atoms: S_7  and  C_10
REMARK    5  A    between atoms: N_17  and  C_18
REMARK    6  A    between atoms: C_18  and  C_19
REMARK    7  A    between atoms: C_18  and  C_20
REMARK                            x       y       z     vdW  Elec       q    Type
REMARK                         _______ _______ _______ _____ _____    ______ ____
ROOT
ATOM      1  C   UNL     1      -0.308  10.849  18.779  0.00  0.00    +0.000 A 
ATOM      2  N   UNL     1      -0.595  10.320  17.533  0.00  0.00    +0.000 NA
ATOM      3  N   UNL     1      -1.909  10.411  17.341  0.00  0.00    +0.000 NA
ATOM      4  N   UNL     1      -2.421  11.041  18.409  0.00  0.00    +0.000 N 
ATOM      5  C   UNL     1      -1.451  11.361  19.338  0.00  0.00    +0.000 A 
ATOM      6  N   UNL     1      -1.717  12.103  20.436  0.00  0.00    +0.000 NA
ATOM      7  C   UNL     1      -2.700  12.928  20.177  0.00  0.00    +0.000 A 
ATOM      8  N   UNL     1      -2.394  14.271  20.002  0.00  0.00    +0.000 N 
ATOM      9  C   UNL     1      -3.965  12.326  19.642  0.00  0.00    +0.000 A 
ATOM     10  C   UNL     1      -5.229  12.522  20.186  0.00  0.00    +0.000 A 
ATOM     11  C   UNL     1      -6.269  11.701  19.738  0.00  0.00    +0.000 A 
ATOM     12 CL   UNL     1      -7.809  11.775  20.509  0.00  0.00    +0.000 Cl
ATOM     13  C   UNL     1      -6.071  10.761  18.710  0.00  0.00    +0.000 A 
ATOM     14  C   UNL     1      -4.811  10.596  18.131  0.00  0.00    +0.000 A 
ATOM     15  C   UNL     1      -3.765  11.341  18.657  0.00  0.00    +0.000 A 
ATOM     16  H   UNL     1      -2.642  14.566  19.055  0.00  0.00    +0.000 HD
ENDROOT
BRANCH   1  17
ATOM     17  S   UNL     1       1.251  10.774  19.506  0.00  0.00    +0.000 S 
ATOM     18  O   UNL     1       1.144  11.280  20.845  0.00  0.00    +0.000 OA
ATOM     19  O   UNL     1       2.116  11.366  18.518  0.00  0.00    +0.000 OA
BRANCH  17  23
ATOM     20  C   UNL     1       2.031   6.310  19.662  0.00  0.00    +0.000 A 
ATOM     21  C   UNL     1       2.345   7.039  18.505  0.00  0.00    +0.000 A 
ATOM     22  C   UNL     1       2.090   8.410  18.451  0.00  0.00    +0.000 A 
ATOM     23  C   UNL     1       1.528   9.049  19.565  0.00  0.00    +0.000 A 
ATOM     24  C   UNL     1       1.222   8.333  20.724  0.00  0.00    +0.000 A 
ATOM     25  C   UNL     1       1.483   6.967  20.772  0.00  0.00    +0.000 A 
BRANCH  20  27
ATOM     26  C   UNL     1       1.178   4.079  20.428  0.00  0.00    +0.000 C 
ATOM     27  C   UNL     1       2.296   4.828  19.722  0.00  0.00    +0.000 C 
ENDBRANCH  20  27
ENDBRANCH  17  23
ENDBRANCH   1  17
BRANCH   8  28
ATOM     28  C   UNL     1      -1.005  14.703  20.310  0.00  0.00    +0.000 C 
ATOM     29  C   UNL     1      -0.418  15.520  19.161  0.00  0.00    +0.000 C 
ATOM     30  C   UNL     1      -1.004  15.516  21.601  0.00  0.00    +0.000 C 
ENDBRANCH   8  28
TORSDOF 4
ENDMDL
MODEL 8
REMARK VINA RESULT:      -6.6      8.657     10.918
REMARK  Name = 
REMARK  7 active torsions:
REMARK  status: ('A' for Active; 'I' for Inactive)
REMARK    1  A    between atoms: C_1  and  C_2
REMARK    2  A    between atoms: C_2  and  C_3
REMARK    3  A    between atoms: C_6  and  S_7
REMARK    4  A    between atoms: S_7  and  C_10
REMARK    5  A    between atoms: N_17  and  C_18
REMARK    6  A    between atoms: C_18  and  C_19
REMARK    7  A    between atoms: C_18  and  C_20
REMARK                            x       y       z     vdW  Elec       q    Type
REMARK                         _______ _______ _______ _____ _____    ______ ____
ROOT
ATOM      1  C   UNL     1       9.280  15.655  20.314  0.00  0.00    +0.000 A 
ATOM      2  N   UNL     1       9.847  16.606  21.144  0.00  0.00    +0.000 NA
ATOM      3  N   UNL     1       9.744  16.171  22.398  0.00  0.00    +0.000 NA
ATOM      4  N   UNL     1       9.188  14.951  22.347  0.00  0.00    +0.000 N 
ATOM      5  C   UNL     1       8.896  14.565  21.054  0.00  0.00    +0.000 A 
ATOM      6  N   UNL     1       8.443  13.329  20.752  0.00  0.00    +0.000 NA
ATOM      7  C   UNL     1       8.909  12.469  21.622  0.00  0.00    +0.000 A 
ATOM      8  N   UNL     1       9.922  11.613  21.213  0.00  0.00    +0.000 N 
ATOM      9  C   UNL     1       8.661  12.770  23.070  0.00  0.00    +0.000 A 
ATOM     10  C   UNL     1       8.070  11.894  23.973  0.00  0.00    +0.000 A 
ATOM     11  C   UNL     1       7.676  12.402  25.215  0.00  0.00    +0.000 A 
ATOM     12 CL   UNL     1       6.775  11.408  26.298  0.00  0.00    +0.000 Cl
ATOM     13  C   UNL     1       7.941  13.734  25.581  0.00  0.00    +0.000 A 
ATOM     14  C   UNL     1       8.577  14.603  24.691  0.00  0.00    +0.000 A 
ATOM     15  C   UNL     1       8.867  14.117  23.424  0.00  0.00    +0.000 A 
ATOM     16  H   UNL     1      10.765  11.778  21.765  0.00  0.00    +0.000 HD
ENDROOT
BRANCH   1  17
ATOM     17  S   UNL     1       9.042  15.889  18.625  0.00  0.00    +0.000 S 
ATOM     18  O   UNL     1       9.584  14.753  17.936  0.00  0.00    +0.000 OA
ATOM     19  O   UNL     1       9.510  17.233  18.399  0.00  0.00    +0.000 OA
BRANCH  17  23
ATOM     20  C   UNL     1       4.521  15.837  18.280  0.00  0.00    +0.000 A 
ATOM     21  C   UNL     1       5.167  16.917  18.902  0.00  0.00    +0.000 A 
ATOM     22  C   UNL     1       6.557  16.925  19.022  0.00  0.00    +0.000 A 
ATOM     23  C   UNL     1       7.298  15.852  18.508  0.00  0.00    +0.000 A 
ATOM     24  C   UNL     1       6.665  14.779  17.880  0.00  0.00    +0.000 A 
ATOM     25  C   UNL     1       5.278  14.779  17.759  0.00  0.00    +0.000 A 
BRANCH  20  27
ATOM     26  C   UNL     1       2.498  17.033  17.404  0.00  0.00    +0.000 C 
ATOM     27  C   UNL     1       3.020  15.819  18.155  0.00  0.00    +0.000 C 
ENDBRANCH  20  27
ENDBRANCH  17  23
ENDBRANCH   1  17
BRANCH   8  28
ATOM     28  C   UNL     1      10.270  11.604  19.767  0.00  0.00    +0.000 C 
ATOM     29  C   UNL     1      11.784  11.587  19.568  0.00  0.00    +0.000 C 
ATOM     30  C   UNL     1       9.627  10.392  19.100  0.00  0.00    +0.000 C 
ENDBRANCH   8  28
TORSDOF 4
ENDMDL
MODEL 9
REMARK VINA RESULT:      -6.6      2.666      3.717
REMARK  Name = 
REMARK  7 active torsions:
REMARK  status: ('A' for Active; 'I' for Inactive)
REMARK    1  A    between atoms: C_1  and  C_2
REMARK    2  A    between atoms: C_2  and  C_3
REMARK    3  A    between atoms: C_6  and  S_7
REMARK    4  A    between atoms: S_7  and  C_10
REMARK    5  A    between atoms: N_17  and  C_18
REMARK    6  A    between atoms: C_18  and  C_19
REMARK    7  A    between atoms: C_18  and  C_20
REMARK                            x       y       z     vdW  Elec       q    Type
REMARK                         _______ _______ _______ _____ _____    ______ ____
ROOT
ATOM      1  C   UNL     1      -2.066  13.200  21.334  0.00  0.00    +0.000 A 
ATOM      2  N   UNL     1      -3.433  13.359  21.473  0.00  0.00    +0.000 NA
ATOM      3  N   UNL     1      -4.023  12.763  20.439  0.00  0.00    +0.000 NA
ATOM      4  N   UNL     1      -3.055  12.190  19.709  0.00  0.00    +0.000 N 
ATOM      5  C   UNL     1      -1.801  12.414  20.241  0.00  0.00    +0.000 A 
ATOM      6  N   UNL     1      -0.688  11.833  19.741  0.00  0.00    +0.000 NA
ATOM      7  C   UNL     1      -0.999  10.675  19.216  0.00  0.00    +0.000 A 
ATOM      8  N   UNL     1      -0.639   9.527  19.908  0.00  0.00    +0.000 N 
ATOM      9  C   UNL     1      -2.090  10.671  18.187  0.00  0.00    +0.000 A 
ATOM     10  C   UNL     1      -1.977  10.128  16.912  0.00  0.00    +0.000 A 
ATOM     11  C   UNL     1      -2.981  10.421  15.984  0.00  0.00    +0.000 A 
ATOM     12 CL   UNL     1      -2.797   9.929  14.342  0.00  0.00    +0.000 Cl
ATOM     13  C   UNL     1      -4.115  11.172  16.343  0.00  0.00    +0.000 A 
ATOM     14  C   UNL     1      -4.252  11.679  17.637  0.00  0.00    +0.000 A 
ATOM     15  C   UNL     1      -3.200  11.471  18.517  0.00  0.00    +0.000 A 
ATOM     16  H   UNL     1      -1.473   9.000  20.172  0.00  0.00    +0.000 HD
ENDROOT
BRANCH   1  17
ATOM     17  S   UNL     1      -0.912  13.963  22.358  0.00  0.00    +0.000 S 
ATOM     18  O   UNL     1       0.006  14.692  21.531  0.00  0.00    +0.000 OA
ATOM     19  O   UNL     1      -0.492  12.907  23.244  0.00  0.00    +0.000 OA
BRANCH  17  23
ATOM     20  C   UNL     1      -3.469  16.908  24.671  0.00  0.00    +0.000 A 
ATOM     21  C   UNL     1      -3.148  15.663  25.233  0.00  0.00    +0.000 A 
ATOM     22  C   UNL     1      -2.374  14.751  24.515  0.00  0.00    +0.000 A 
ATOM     23  C   UNL     1      -1.916  15.094  23.235  0.00  0.00    +0.000 A 
ATOM     24  C   UNL     1      -2.224  16.334  22.673  0.00  0.00    +0.000 A 
ATOM     25  C   UNL     1      -2.992  17.242  23.396  0.00  0.00    +0.000 A 
BRANCH  20  27
ATOM     26  C   UNL     1      -5.594  18.241  24.701  0.00  0.00    +0.000 C 
ATOM     27  C   UNL     1      -4.312  17.893  25.439  0.00  0.00    +0.000 C 
ENDBRANCH  20  27
ENDBRANCH  17  23
ENDBRANCH   1  17
BRANCH   8  28
ATOM     28  C   UNL     1       0.241   9.691  21.096  0.00  0.00    +0.000 C 
ATOM     29  C   UNL     1      -0.545   9.492  22.391  0.00  0.00    +0.000 C 
ATOM     30  C   UNL     1       1.396   8.698  21.011  0.00  0.00    +0.000 C 
ENDBRANCH   8  28
TORSDOF 4
ENDMDL
