MODEL 1
REMARK VINA RESULT:      -7.0      0.000      0.000
REMARK  Name = 
REMARK  6 active torsions:
REMARK  status: ('A' for Active; 'I' for Inactive)
REMARK    1  A    between atoms: C_1  and  N_2
REMARK    2  A    between atoms: N_2  and  C_3
REMARK    3  A    between atoms: C_6  and  C_7
REMARK    4  A    between atoms: C_13  and  O_14
REMARK    5  A    between atoms: O_14  and  C_15
REMARK    6  A    between atoms: C_15  and  C_16
REMARK                            x       y       z     vdW  Elec       q    Type
REMARK                         _______ _______ _______ _____ _____    ______ ____
ROOT
ATOM      1  C   UNL     1       2.896   7.083  18.406  0.00  0.00    +0.000 A 
ATOM      2  C   UNL     1       2.665   5.815  18.939  0.00  0.00    +0.000 A 
ATOM      3  N   UNL     1       3.309   4.703  18.551  0.00  0.00    +0.000 NA
ATOM      4  C   UNL     1       4.168   4.845  17.537  0.00  0.00    +0.000 A 
ATOM      5  C   UNL     1       4.740   3.677  17.094  0.00  0.00    +0.000 A 
ATOM      6  C   UNL     1       5.545   3.665  15.967  0.00  0.00    +0.000 A 
ATOM      7  C   UNL     1       5.813   4.849  15.296  0.00  0.00    +0.000 A 
ATOM      8  C   UNL     1       5.298   6.062  15.789  0.00  0.00    +0.000 A 
ATOM      9  C   UNL     1       4.431   6.094  16.912  0.00  0.00    +0.000 A 
ATOM     10  N   UNL     1       3.795   7.228  17.377  0.00  0.00    +0.000 NA
ENDROOT
BRANCH   1  14
ATOM     11  C   UNL     1       0.092  10.156  19.715  0.00  0.00    +0.000 A 
ATOM     12  C   UNL     1       0.593   9.203  20.599  0.00  0.00    +0.000 A 
ATOM     13  C   UNL     1       1.579   8.289  20.199  0.00  0.00    +0.000 A 
ATOM     14  C   UNL     1       2.067   8.231  18.873  0.00  0.00    +0.000 A 
ATOM     15  C   UNL     1       1.609   9.234  18.012  0.00  0.00    +0.000 A 
ATOM     16  C   UNL     1       0.628  10.165  18.423  0.00  0.00    +0.000 A 
BRANCH  11  18
ATOM     17  C   UNL     1      -0.901  11.754  21.308  0.00  0.00    +0.000 C 
ATOM     18  N   UNL     1      -0.998  10.928  20.120  0.00  0.00    +0.000 N 
ATOM     19  H   UNL     1      -1.885  10.439  20.045  0.00  0.00    +0.000 HD
ENDBRANCH  11  18
ENDBRANCH   1  14
BRANCH   7  20
ATOM     20  O   UNL     1       6.429   4.617  14.103  0.00  0.00    +0.000 OA
BRANCH  20  21
ATOM     21  C   UNL     1       5.862   3.740  13.143  0.00  0.00    +0.000 C 
BRANCH  21  22
ATOM     22  C   UNL     1       6.938   3.538  12.074  0.00  0.00    +0.000 C 
ATOM     23  F   UNL     1       7.516   4.726  11.761  0.00  0.00    +0.000 F 
ENDBRANCH  21  22
ENDBRANCH  20  21
ENDBRANCH   7  20
TORSDOF 5
ENDMDL
MODEL 2
REMARK VINA RESULT:      -7.0      3.751      5.079
REMARK  Name = 
REMARK  6 active torsions:
REMARK  status: ('A' for Active; 'I' for Inactive)
REMARK    1  A    between atoms: C_1  and  N_2
REMARK    2  A    between atoms: N_2  and  C_3
REMARK    3  A    between atoms: C_6  and  C_7
REMARK    4  A    between atoms: C_13  and  O_14
REMARK    5  A    between atoms: O_14  and  C_15
REMARK    6  A    between atoms: C_15  and  C_16
REMARK                            x       y       z     vdW  Elec       q    Type
REMARK                         _______ _______ _______ _____ _____    ______ ____
ROOT
ATOM      1  C   UNL     1       5.414   4.919  16.676  0.00  0.00    +0.000 A 
ATOM      2  C   UNL     1       6.607   5.634  16.577  0.00  0.00    +0.000 A 
ATOM      3  N   UNL     1       7.338   5.733  15.457  0.00  0.00    +0.000 NA
ATOM      4  C   UNL     1       6.905   5.029  14.407  0.00  0.00    +0.000 A 
ATOM      5  C   UNL     1       7.722   5.069  13.304  0.00  0.00    +0.000 A 
ATOM      6  C   UNL     1       7.458   4.279  12.197  0.00  0.00    +0.000 A 
ATOM      7  C   UNL     1       6.333   3.467  12.180  0.00  0.00    +0.000 A 
ATOM      8  C   UNL     1       5.446   3.481  13.271  0.00  0.00    +0.000 A 
ATOM      9  C   UNL     1       5.721   4.243  14.436  0.00  0.00    +0.000 A 
ATOM     10  N   UNL     1       4.959   4.213  15.588  0.00  0.00    +0.000 NA
ENDROOT
BRANCH   1  14
ATOM     11  C   UNL     1       3.056   4.415  20.310  0.00  0.00    +0.000 A 
ATOM     12  C   UNL     1       3.932   3.427  19.867  0.00  0.00    +0.000 A 
ATOM     13  C   UNL     1       4.769   3.641  18.762  0.00  0.00    +0.000 A 
ATOM     14  C   UNL     1       4.726   4.828  17.996  0.00  0.00    +0.000 A 
ATOM     15  C   UNL     1       3.895   5.840  18.489  0.00  0.00    +0.000 A 
ATOM     16  C   UNL     1       3.065   5.628  19.612  0.00  0.00    +0.000 A 
BRANCH  11  18
ATOM     17  C   UNL     1       1.261   2.944  21.141  0.00  0.00    +0.000 C 
ATOM     18  N   UNL     1       2.136   4.088  21.308  0.00  0.00    +0.000 N 
ATOM     19  H   UNL     1       1.665   4.899  21.699  0.00  0.00    +0.000 HD
ENDBRANCH  11  18
ENDBRANCH   1  14
BRANCH   7  20
ATOM     20  O   UNL     1       6.354   2.610  11.121  0.00  0.00    +0.000 OA
BRANCH  20  21
ATOM     21  C   UNL     1       7.049   1.375  11.190  0.00  0.00    +0.000 C 
BRANCH  21  22
ATOM     22  C   UNL     1       5.977   0.286  11.121  0.00  0.00    +0.000 C 
ATOM     23  F   UNL     1       6.528  -0.930  11.368  0.00  0.00    +0.000 F 
ENDBRANCH  21  22
ENDBRANCH  20  21
ENDBRANCH   7  20
TORSDOF 5
ENDMDL
MODEL 3
REMARK VINA RESULT:      -7.0      0.749      1.261
REMARK  Name = 
REMARK  6 active torsions:
REMARK  status: ('A' for Active; 'I' for Inactive)
REMARK    1  A    between atoms: C_1  and  N_2
REMARK    2  A    between atoms: N_2  and  C_3
REMARK    3  A    between atoms: C_6  and  C_7
REMARK    4  A    between atoms: C_13  and  O_14
REMARK    5  A    between atoms: O_14  and  C_15
REMARK    6  A    between atoms: C_15  and  C_16
REMARK                            x       y       z     vdW  Elec       q    Type
REMARK                         _______ _______ _______ _____ _____    ______ ____
ROOT
ATOM      1  C   UNL     1       2.770   7.044  18.587  0.00  0.00    +0.000 A 
ATOM      2  C   UNL     1       2.521   5.738  19.006  0.00  0.00    +0.000 A 
ATOM      3  N   UNL     1       3.174   4.660  18.546  0.00  0.00    +0.000 NA
ATOM      4  C   UNL     1       4.062   4.881  17.571  0.00  0.00    +0.000 A 
ATOM      5  C   UNL     1       4.644   3.751  17.050  0.00  0.00    +0.000 A 
ATOM      6  C   UNL     1       5.480   3.829  15.948  0.00  0.00    +0.000 A 
ATOM      7  C   UNL     1       5.770   5.064  15.386  0.00  0.00    +0.000 A 
ATOM      8  C   UNL     1       5.243   6.234  15.962  0.00  0.00    +0.000 A 
ATOM      9  C   UNL     1       4.345   6.176  17.060  0.00  0.00    +0.000 A 
ATOM     10  N   UNL     1       3.698   7.271  17.599  0.00  0.00    +0.000 NA
ENDROOT
BRANCH   1  14
ATOM     11  C   UNL     1       0.721  10.527  20.229  0.00  0.00    +0.000 A 
ATOM     12  C   UNL     1       1.074  10.457  18.883  0.00  0.00    +0.000 A 
ATOM     13  C   UNL     1       1.630   9.290  18.339  0.00  0.00    +0.000 A 
ATOM     14  C   UNL     1       1.930   8.153  19.124  0.00  0.00    +0.000 A 
ATOM     15  C   UNL     1       1.510   8.208  20.458  0.00  0.00    +0.000 A 
ATOM     16  C   UNL     1       0.934   9.379  21.000  0.00  0.00    +0.000 A 
BRANCH  11  18
ATOM     17  C   UNL     1       1.144  12.937  20.525  0.00  0.00    +0.000 C 
ATOM     18  N   UNL     1       0.326  11.761  20.748  0.00  0.00    +0.000 N 
ATOM     19  H   UNL     1      -0.036  11.700  21.695  0.00  0.00    +0.000 HD
ENDBRANCH  11  18
ENDBRANCH   1  14
BRANCH   7  20
ATOM     20  O   UNL     1       6.419   4.928  14.196  0.00  0.00    +0.000 OA
BRANCH  20  21
ATOM     21  C   UNL     1       6.200   3.800  13.364  0.00  0.00    +0.000 C 
BRANCH  21  22
ATOM     22  C   UNL     1       7.058   4.024  12.118  0.00  0.00    +0.000 C 
ATOM     23  F   UNL     1       7.841   5.121  12.281  0.00  0.00    +0.000 F 
ENDBRANCH  21  22
ENDBRANCH  20  21
ENDBRANCH   7  20
TORSDOF 5
ENDMDL
MODEL 4
REMARK VINA RESULT:      -6.9      3.357      4.367
REMARK  Name = 
REMARK  6 active torsions:
REMARK  status: ('A' for Active; 'I' for Inactive)
REMARK    1  A    between atoms: C_1  and  N_2
REMARK    2  A    between atoms: N_2  and  C_3
REMARK    3  A    between atoms: C_6  and  C_7
REMARK    4  A    between atoms: C_13  and  O_14
REMARK    5  A    between atoms: O_14  and  C_15
REMARK    6  A    between atoms: C_15  and  C_16
REMARK                            x       y       z     vdW  Elec       q    Type
REMARK                         _______ _______ _______ _____ _____    ______ ____
ROOT
ATOM      1  C   UNL     1       1.377   8.577  19.928  0.00  0.00    +0.000 A 
ATOM      2  C   UNL     1       1.791   8.997  18.664  0.00  0.00    +0.000 A 
ATOM      3  N   UNL     1       2.499   8.241  17.811  0.00  0.00    +0.000 NA
ATOM      4  C   UNL     1       2.876   7.041  18.262  0.00  0.00    +0.000 A 
ATOM      5  C   UNL     1       3.681   6.328  17.408  0.00  0.00    +0.000 A 
ATOM      6  C   UNL     1       4.250   5.129  17.805  0.00  0.00    +0.000 A 
ATOM      7  C   UNL     1       3.974   4.617  19.065  0.00  0.00    +0.000 A 
ATOM      8  C   UNL     1       3.086   5.300  19.916  0.00  0.00    +0.000 A 
ATOM      9  C   UNL     1       2.531   6.553  19.551  0.00  0.00    +0.000 A 
ATOM     10  N   UNL     1       1.750   7.334  20.381  0.00  0.00    +0.000 NA
ENDROOT
BRANCH   1  14
ATOM     11  C   UNL     1      -1.119  11.089  22.474  0.00  0.00    +0.000 A 
ATOM     12  C   UNL     1      -0.424   9.996  22.986  0.00  0.00    +0.000 A 
ATOM     13  C   UNL     1       0.464   9.261  22.186  0.00  0.00    +0.000 A 
ATOM     14  C   UNL     1       0.653   9.535  20.812  0.00  0.00    +0.000 A 
ATOM     15  C   UNL     1       0.004  10.675  20.324  0.00  0.00    +0.000 A 
ATOM     16  C   UNL     1      -0.877  11.424  21.136  0.00  0.00    +0.000 A 
BRANCH  11  18
ATOM     17  C   UNL     1      -2.136  13.118  23.435  0.00  0.00    +0.000 C 
ATOM     18  N   UNL     1      -2.106  11.678  23.265  0.00  0.00    +0.000 N 
ATOM     19  H   UNL     1      -2.285  11.171  24.126  0.00  0.00    +0.000 HD
ENDBRANCH  11  18
ENDBRANCH   1  14
BRANCH   7  20
ATOM     20  O   UNL     1       4.782   3.561  19.361  0.00  0.00    +0.000 OA
BRANCH  20  21
ATOM     21  C   UNL     1       4.251   2.357  19.892  0.00  0.00    +0.000 C 
BRANCH  21  22
ATOM     22  C   UNL     1       3.564   1.651  18.721  0.00  0.00    +0.000 C 
ATOM     23  F   UNL     1       2.221   1.613  18.922  0.00  0.00    +0.000 F 
ENDBRANCH  21  22
ENDBRANCH  20  21
ENDBRANCH   7  20
TORSDOF 5
ENDMDL
MODEL 5
REMARK VINA RESULT:      -6.9      3.334      4.429
REMARK  Name = 
REMARK  6 active torsions:
REMARK  status: ('A' for Active; 'I' for Inactive)
REMARK    1  A    between atoms: C_1  and  N_2
REMARK    2  A    between atoms: N_2  and  C_3
REMARK    3  A    between atoms: C_6  and  C_7
REMARK    4  A    between atoms: C_13  and  O_14
REMARK    5  A    between atoms: O_14  and  C_15
REMARK    6  A    between atoms: C_15  and  C_16
REMARK                            x       y       z     vdW  Elec       q    Type
REMARK                         _______ _______ _______ _____ _____    ______ ____
ROOT
ATOM      1  C   UNL     1       1.329   8.334  19.898  0.00  0.00    +0.000 A 
ATOM      2  C   UNL     1       1.887   8.858  18.732  0.00  0.00    +0.000 A 
ATOM      3  N   UNL     1       2.731   8.188  17.931  0.00  0.00    +0.000 NA
ATOM      4  C   UNL     1       3.095   6.972  18.347  0.00  0.00    +0.000 A 
ATOM      5  C   UNL     1       4.034   6.348  17.562  0.00  0.00    +0.000 A 
ATOM      6  C   UNL     1       4.595   5.142  17.950  0.00  0.00    +0.000 A 
ATOM      7  C   UNL     1       4.177   4.532  19.124  0.00  0.00    +0.000 A 
ATOM      8  C   UNL     1       3.158   5.122  19.893  0.00  0.00    +0.000 A 
ATOM      9  C   UNL     1       2.604   6.381  19.542  0.00  0.00    +0.000 A 
ATOM     10  N   UNL     1       1.690   7.074  20.311  0.00  0.00    +0.000 NA
ENDROOT
BRANCH   1  14
ATOM     11  C   UNL     1      -0.850  11.166  22.399  0.00  0.00    +0.000 A 
ATOM     12  C   UNL     1      -0.763  11.331  21.018  0.00  0.00    +0.000 A 
ATOM     13  C   UNL     1      -0.158  10.359  20.208  0.00  0.00    +0.000 A 
ATOM     14  C   UNL     1       0.456   9.201  20.740  0.00  0.00    +0.000 A 
ATOM     15  C   UNL     1       0.303   9.011  22.118  0.00  0.00    +0.000 A 
ATOM     16  C   UNL     1      -0.322   9.984  22.930  0.00  0.00    +0.000 A 
BRANCH  11  18
ATOM     17  C   UNL     1      -2.740  12.454  23.319  0.00  0.00    +0.000 C 
ATOM     18  N   UNL     1      -1.314  12.235  23.167  0.00  0.00    +0.000 N 
ATOM     19  H   UNL     1      -0.792  13.093  23.016  0.00  0.00    +0.000 HD
ENDBRANCH  11  18
ENDBRANCH   1  14
BRANCH   7  20
ATOM     20  O   UNL     1       4.983   3.484  19.454  0.00  0.00    +0.000 OA
BRANCH  20  21
ATOM     21  C   UNL     1       4.440   2.266  19.941  0.00  0.00    +0.000 C 
BRANCH  21  22
ATOM     22  C   UNL     1       3.683   1.645  18.765  0.00  0.00    +0.000 C 
ATOM     23  F   UNL     1       2.344   1.717  18.980  0.00  0.00    +0.000 F 
ENDBRANCH  21  22
ENDBRANCH  20  21
ENDBRANCH   7  20
TORSDOF 5
ENDMDL
MODEL 6
REMARK VINA RESULT:      -6.8      0.974      1.407
REMARK  Name = 
REMARK  6 active torsions:
REMARK  status: ('A' for Active; 'I' for Inactive)
REMARK    1  A    between atoms: C_1  and  N_2
REMARK    2  A    between atoms: N_2  and  C_3
REMARK    3  A    between atoms: C_6  and  C_7
REMARK    4  A    between atoms: C_13  and  O_14
REMARK    5  A    between atoms: O_14  and  C_15
REMARK    6  A    between atoms: C_15  and  C_16
REMARK                            x       y       z     vdW  Elec       q    Type
REMARK                         _______ _______ _______ _____ _____    ______ ____
ROOT
ATOM      1  C   UNL     1       2.746   6.958  18.817  0.00  0.00    +0.000 A 
ATOM      2  C   UNL     1       2.629   5.647  19.278  0.00  0.00    +0.000 A 
ATOM      3  N   UNL     1       3.317   4.607  18.781  0.00  0.00    +0.000 NA
ATOM      4  C   UNL     1       4.100   4.868  17.729  0.00  0.00    +0.000 A 
ATOM      5  C   UNL     1       4.716   3.771  17.179  0.00  0.00    +0.000 A 
ATOM      6  C   UNL     1       5.447   3.882  16.007  0.00  0.00    +0.000 A 
ATOM      7  C   UNL     1       5.598   5.121  15.402  0.00  0.00    +0.000 A 
ATOM      8  C   UNL     1       5.039   6.264  16.002  0.00  0.00    +0.000 A 
ATOM      9  C   UNL     1       4.244   6.168  17.174  0.00  0.00    +0.000 A 
ATOM     10  N   UNL     1       3.568   7.227  17.749  0.00  0.00    +0.000 NA
ENDROOT
BRANCH   1  14
ATOM     11  C   UNL     1       0.605  10.301  20.622  0.00  0.00    +0.000 A 
ATOM     12  C   UNL     1       0.956  10.304  19.274  0.00  0.00    +0.000 A 
ATOM     13  C   UNL     1       1.543   9.179  18.675  0.00  0.00    +0.000 A 
ATOM     14  C   UNL     1       1.877   8.017  19.406  0.00  0.00    +0.000 A 
ATOM     15  C   UNL     1       1.459   7.997  20.741  0.00  0.00    +0.000 A 
ATOM     16  C   UNL     1       0.852   9.125  21.339  0.00  0.00    +0.000 A 
BRANCH  11  18
ATOM     17  C   UNL     1      -0.675  11.474  22.372  0.00  0.00    +0.000 C 
ATOM     18  N   UNL     1       0.177  11.498  21.198  0.00  0.00    +0.000 N 
ATOM     19  H   UNL     1      -0.106  12.194  20.514  0.00  0.00    +0.000 HD
ENDBRANCH  11  18
ENDBRANCH   1  14
BRANCH   7  20
ATOM     20  O   UNL     1       6.151   5.005  14.162  0.00  0.00    +0.000 OA
BRANCH  20  21
ATOM     21  C   UNL     1       6.503   3.737  13.632  0.00  0.00    +0.000 C 
BRANCH  21  22
ATOM     22  C   UNL     1       5.710   3.591  12.332  0.00  0.00    +0.000 C 
ATOM     23  F   UNL     1       5.644   2.285  11.968  0.00  0.00    +0.000 F 
ENDBRANCH  21  22
ENDBRANCH  20  21
ENDBRANCH   7  20
TORSDOF 5
ENDMDL
MODEL 7
REMARK VINA RESULT:      -6.8      1.003      1.426
REMARK  Name = 
REMARK  6 active torsions:
REMARK  status: ('A' for Active; 'I' for Inactive)
REMARK    1  A    between atoms: C_1  and  N_2
REMARK    2  A    between atoms: N_2  and  C_3
REMARK    3  A    between atoms: C_6  and  C_7
REMARK    4  A    between atoms: C_13  and  O_14
REMARK    5  A    between atoms: O_14  and  C_15
REMARK    6  A    between atoms: C_15  and  C_16
REMARK                            x       y       z     vdW  Elec       q    Type
REMARK                         _______ _______ _______ _____ _____    ______ ____
ROOT
ATOM      1  C   UNL     1       3.338   7.030  18.490  0.00  0.00    +0.000 A 
ATOM      2  C   UNL     1       3.756   6.006  19.339  0.00  0.00    +0.000 A 
ATOM      3  N   UNL     1       4.734   5.134  19.048  0.00  0.00    +0.000 NA
ATOM      4  C   UNL     1       5.269   5.238  17.828  0.00  0.00    +0.000 A 
ATOM      5  C   UNL     1       6.198   4.274  17.518  0.00  0.00    +0.000 A 
ATOM      6  C   UNL     1       6.731   4.186  16.243  0.00  0.00    +0.000 A 
ATOM      7  C   UNL     1       6.358   5.107  15.274  0.00  0.00    +0.000 A 
ATOM      8  C   UNL     1       5.471   6.147  15.603  0.00  0.00    +0.000 A 
ATOM      9  C   UNL     1       4.873   6.227  16.888  0.00  0.00    +0.000 A 
ATOM     10  N   UNL     1       3.906   7.147  17.244  0.00  0.00    +0.000 NA
ENDROOT
BRANCH   1  14
ATOM     11  C   UNL     1       0.308   9.910  19.734  0.00  0.00    +0.000 A 
ATOM     12  C   UNL     1       0.715   9.808  18.406  0.00  0.00    +0.000 A 
ATOM     13  C   UNL     1       1.605   8.806  17.994  0.00  0.00    +0.000 A 
ATOM     14  C   UNL     1       2.194   7.894  18.900  0.00  0.00    +0.000 A 
ATOM     15  C   UNL     1       1.728   7.960  20.217  0.00  0.00    +0.000 A 
ATOM     16  C   UNL     1       0.817   8.960  20.627  0.00  0.00    +0.000 A 
BRANCH  11  18
ATOM     17  C   UNL     1      -1.334  11.655  19.159  0.00  0.00    +0.000 C 
ATOM     18  N   UNL     1      -0.447  11.020  20.114  0.00  0.00    +0.000 N 
ATOM     19  H   UNL     1       0.074  11.685  20.679  0.00  0.00    +0.000 HD
ENDBRANCH  11  18
ENDBRANCH   1  14
BRANCH   7  20
ATOM     20  O   UNL     1       6.805   4.739  14.040  0.00  0.00    +0.000 OA
BRANCH  20  21
ATOM     21  C   UNL     1       6.133   3.745  13.283  0.00  0.00    +0.000 C 
BRANCH  21  22
ATOM     22  C   UNL     1       6.809   3.736  11.910  0.00  0.00    +0.000 C 
ATOM     23  F   UNL     1       7.163   2.470  11.571  0.00  0.00    +0.000 F 
ENDBRANCH  21  22
ENDBRANCH  20  21
ENDBRANCH   7  20
TORSDOF 5
ENDMDL
MODEL 8
REMARK VINA RESULT:      -6.7      4.157      8.427
REMARK  Name = 
REMARK  6 active torsions:
REMARK  status: ('A' for Active; 'I' for Inactive)
REMARK    1  A    between atoms: C_1  and  N_2
REMARK    2  A    between atoms: N_2  and  C_3
REMARK    3  A    between atoms: C_6  and  C_7
REMARK    4  A    between atoms: C_13  and  O_14
REMARK    5  A    between atoms: O_14  and  C_15
REMARK    6  A    between atoms: C_15  and  C_16
REMARK                            x       y       z     vdW  Elec       q    Type
REMARK                         _______ _______ _______ _____ _____    ______ ____
ROOT
ATOM      1  C   UNL     1       3.145   6.774  18.157  0.00  0.00    +0.000 A 
ATOM      2  C   UNL     1       2.835   6.449  19.478  0.00  0.00    +0.000 A 
ATOM      3  N   UNL     1       2.025   7.174  20.264  0.00  0.00    +0.000 NA
ATOM      4  C   UNL     1       1.561   8.313  19.740  0.00  0.00    +0.000 A 
ATOM      5  C   UNL     1       0.815   9.084  20.597  0.00  0.00    +0.000 A 
ATOM      6  C   UNL     1       0.386  10.347  20.223  0.00  0.00    +0.000 A 
ATOM      7  C   UNL     1       0.675  10.828  18.954  0.00  0.00    +0.000 A 
ATOM      8  C   UNL     1       1.369  10.013  18.041  0.00  0.00    +0.000 A 
ATOM      9  C   UNL     1       1.861   8.737  18.417  0.00  0.00    +0.000 A 
ATOM     10  N   UNL     1       2.650   7.935  17.614  0.00  0.00    +0.000 NA
ENDROOT
BRANCH   1  14
ATOM     11  C   UNL     1       5.665   4.296  15.601  0.00  0.00    +0.000 A 
ATOM     12  C   UNL     1       5.690   5.686  15.521  0.00  0.00    +0.000 A 
ATOM     13  C   UNL     1       4.962   6.478  16.421  0.00  0.00    +0.000 A 
ATOM     14  C   UNL     1       4.114   5.924  17.407  0.00  0.00    +0.000 A 
ATOM     15  C   UNL     1       4.148   4.530  17.524  0.00  0.00    +0.000 A 
ATOM     16  C   UNL     1       4.896   3.735  16.627  0.00  0.00    +0.000 A 
BRANCH  11  18
ATOM     17  C   UNL     1       5.920   3.807  13.199  0.00  0.00    +0.000 C 
ATOM     18  N   UNL     1       6.275   3.561  14.583  0.00  0.00    +0.000 N 
ATOM     19  H   UNL     1       6.367   2.574  14.803  0.00  0.00    +0.000 HD
ENDBRANCH  11  18
ENDBRANCH   1  14
BRANCH   7  20
ATOM     20  O   UNL     1       0.372  12.151  18.842  0.00  0.00    +0.000 OA
BRANCH  20  21
ATOM     21  C   UNL     1      -0.964  12.612  18.972  0.00  0.00    +0.000 C 
BRANCH  21  22
ATOM     22  C   UNL     1      -1.753  11.926  17.854  0.00  0.00    +0.000 C 
ATOM     23  F   UNL     1      -3.078  11.929  18.148  0.00  0.00    +0.000 F 
ENDBRANCH  21  22
ENDBRANCH  20  21
ENDBRANCH   7  20
TORSDOF 5
ENDMDL
MODEL 9
REMARK VINA RESULT:      -6.6      1.114      1.549
REMARK  Name = 
REMARK  6 active torsions:
REMARK  status: ('A' for Active; 'I' for Inactive)
REMARK    1  A    between atoms: C_1  and  N_2
REMARK    2  A    between atoms: N_2  and  C_3
REMARK    3  A    between atoms: C_6  and  C_7
REMARK    4  A    between atoms: C_13  and  O_14
REMARK    5  A    between atoms: O_14  and  C_15
REMARK    6  A    between atoms: C_15  and  C_16
REMARK                            x       y       z     vdW  Elec       q    Type
REMARK                         _______ _______ _______ _____ _____    ______ ____
ROOT
ATOM      1  C   UNL     1       2.641   7.198  19.190  0.00  0.00    +0.000 A 
ATOM      2  C   UNL     1       2.829   5.934  19.749  0.00  0.00    +0.000 A 
ATOM      3  N   UNL     1       3.689   5.019  19.276  0.00  0.00    +0.000 NA
ATOM      4  C   UNL     1       4.337   5.345  18.154  0.00  0.00    +0.000 A 
ATOM      5  C   UNL     1       5.137   4.354  17.638  0.00  0.00    +0.000 A 
ATOM      6  C   UNL     1       5.759   4.513  16.410  0.00  0.00    +0.000 A 
ATOM      7  C   UNL     1       5.611   5.702  15.709  0.00  0.00    +0.000 A 
ATOM      8  C   UNL     1       4.861   6.753  16.268  0.00  0.00    +0.000 A 
ATOM      9  C   UNL     1       4.174   6.595  17.499  0.00  0.00    +0.000 A 
ATOM     10  N   UNL     1       3.325   7.538  18.047  0.00  0.00    +0.000 NA
ENDROOT
BRANCH   1  14
ATOM     11  C   UNL     1      -0.028  10.126  21.012  0.00  0.00    +0.000 A 
ATOM     12  C   UNL     1       0.437  10.276  19.708  0.00  0.00    +0.000 A 
ATOM     13  C   UNL     1       1.202   9.276  19.090  0.00  0.00    +0.000 A 
ATOM     14  C   UNL     1       1.606   8.102  19.766  0.00  0.00    +0.000 A 
ATOM     15  C   UNL     1       1.078   7.929  21.050  0.00  0.00    +0.000 A 
ATOM     16  C   UNL     1       0.292   8.930  21.665  0.00  0.00    +0.000 A 
BRANCH  11  18
ATOM     17  C   UNL     1      -1.035  11.137  23.022  0.00  0.00    +0.000 C 
ATOM     18  N   UNL     1      -0.643  11.217  21.628  0.00  0.00    +0.000 N 
ATOM     19  H   UNL     1      -1.340  11.667  21.042  0.00  0.00    +0.000 HD
ENDBRANCH  11  18
ENDBRANCH   1  14
BRANCH   7  20
ATOM     20  O   UNL     1       6.104   5.597  14.443  0.00  0.00    +0.000 OA
BRANCH  20  21
ATOM     21  C   UNL     1       7.095   4.636  14.119  0.00  0.00    +0.000 C 
BRANCH  21  22
ATOM     22  C   UNL     1       7.810   5.174  12.877  0.00  0.00    +0.000 C 
ATOM     23  F   UNL     1       7.386   4.512  11.770  0.00  0.00    +0.000 F 
ENDBRANCH  21  22
ENDBRANCH  20  21
ENDBRANCH   7  20
TORSDOF 5
ENDMDL
