MODEL 1
REMARK VINA RESULT:      -8.2      0.000      0.000
REMARK  Name = 
REMARK  6 active torsions:
REMARK  status: ('A' for Active; 'I' for Inactive)
REMARK    1  A    between atoms: C_1  and  C_2
REMARK    2  A    between atoms: C_4  and  O_5
REMARK    3  A    between atoms: O_5  and  C_6
REMARK    4  A    between atoms: C_9  and  C_10
REMARK    5  A    between atoms: C_13  and  C_14
REMARK    6  A    between atoms: C_19  and  C_20
REMARK                            x       y       z     vdW  Elec       q    Type
REMARK                         _______ _______ _______ _____ _____    ______ ____
ROOT
ATOM      1  C   UNL     1       1.504   2.908  21.486  0.00  0.00    +0.000 C 
ATOM      2  C   UNL     1       2.303   3.893  20.687  0.00  0.00    +0.000 A 
ATOM      3  C   UNL     1       3.473   3.487  20.042  0.00  0.00    +0.000 A 
ATOM      4  C   UNL     1       4.214   4.420  19.320  0.00  0.00    +0.000 A 
ATOM      5  C   UNL     1       3.725   5.719  19.214  0.00  0.00    +0.000 A 
ATOM      6  C   UNL     1       2.544   6.043  19.873  0.00  0.00    +0.000 A 
ATOM      7  N   UNL     1       1.831   5.159  20.627  0.00  0.00    +0.000 NA
ENDROOT
BRANCH   6   8
ATOM      8  C   UNL     1       1.996   7.441  19.785  0.00  0.00    +0.000 C 
ATOM      9  O   UNL     1       2.389   8.167  18.883  0.00  0.00    +0.000 OA
ATOM     10  N   UNL     1       1.114   7.762  20.796  0.00  0.00    +0.000 N 
ATOM     11  C   UNL     1       0.480   8.971  20.967  0.00  0.00    +0.000 A 
ATOM     12  N   UNL     1      -0.105   9.317  22.092  0.00  0.00    +0.000 NA
ATOM     13  C   UNL     1      -0.610  10.609  21.987  0.00  0.00    +0.000 A 
ATOM     14  C   UNL     1      -1.215  11.267  23.174  0.00  0.00    +0.000 C 
ATOM     15  C   UNL     1      -0.474  11.177  20.736  0.00  0.00    +0.000 A 
ATOM     16  S   UNL     1       0.348  10.102  19.695  0.00  0.00    +0.000 S 
ATOM     17  H   UNL     1       1.002   7.098  21.554  0.00  0.00    +0.000 HD
ENDBRANCH   6   8
BRANCH   4  18
ATOM     18  O   UNL     1       5.419   4.189  18.702  0.00  0.00    +0.000 OA
BRANCH  18  19
ATOM     19  C   UNL     1       5.887   5.177  17.770  0.00  0.00    +0.000 C 
ATOM     20  C   UNL     1       7.409   5.169  17.696  0.00  0.00    +0.000 C 
ATOM     21  O   UNL     1       7.802   4.337  16.600  0.00  0.00    +0.000 OA
ATOM     22  C   UNL     1       6.689   4.177  15.717  0.00  0.00    +0.000 C 
ATOM     23  C   UNL     1       7.029   4.792  14.366  0.00  0.00    +0.000 C 
ATOM     24  C   UNL     1       5.473   4.838  16.351  0.00  0.00    +0.000 C 
ENDBRANCH  18  19
ENDBRANCH   4  18
TORSDOF 3
ENDMDL
MODEL 2
REMARK VINA RESULT:      -7.5      1.942      4.127
REMARK  Name = 
REMARK  6 active torsions:
REMARK  status: ('A' for Active; 'I' for Inactive)
REMARK    1  A    between atoms: C_1  and  C_2
REMARK    2  A    between atoms: C_4  and  O_5
REMARK    3  A    between atoms: O_5  and  C_6
REMARK    4  A    between atoms: C_9  and  C_10
REMARK    5  A    between atoms: C_13  and  C_14
REMARK    6  A    between atoms: C_19  and  C_20
REMARK                            x       y       z     vdW  Elec       q    Type
REMARK                         _______ _______ _______ _____ _____    ______ ____
ROOT
ATOM      1  C   UNL     1       6.862   6.483  16.998  0.00  0.00    +0.000 C 
ATOM      2  C   UNL     1       5.420   6.178  17.271  0.00  0.00    +0.000 A 
ATOM      3  C   UNL     1       4.959   4.862  17.215  0.00  0.00    +0.000 A 
ATOM      4  C   UNL     1       3.611   4.599  17.452  0.00  0.00    +0.000 A 
ATOM      5  C   UNL     1       2.779   5.658  17.803  0.00  0.00    +0.000 A 
ATOM      6  C   UNL     1       3.316   6.940  17.852  0.00  0.00    +0.000 A 
ATOM      7  N   UNL     1       4.619   7.226  17.573  0.00  0.00    +0.000 NA
ENDROOT
BRANCH   6   8
ATOM      8  C   UNL     1       2.439   8.106  18.218  0.00  0.00    +0.000 C 
ATOM      9  O   UNL     1       2.360   9.045  17.437  0.00  0.00    +0.000 OA
ATOM     10  N   UNL     1       1.842   7.992  19.456  0.00  0.00    +0.000 N 
ATOM     11  C   UNL     1       1.009   8.916  20.043  0.00  0.00    +0.000 A 
ATOM     12  N   UNL     1       0.712   8.896  21.323  0.00  0.00    +0.000 NA
ATOM     13  C   UNL     1      -0.103   9.979  21.639  0.00  0.00    +0.000 A 
ATOM     14  C   UNL     1      -0.476  10.238  23.054  0.00  0.00    +0.000 C 
ATOM     15  C   UNL     1      -0.484  10.744  20.555  0.00  0.00    +0.000 A 
ATOM     16  S   UNL     1       0.236  10.135  19.131  0.00  0.00    +0.000 S 
ATOM     17  H   UNL     1       2.124   7.218  20.047  0.00  0.00    +0.000 HD
ENDBRANCH   6   8
BRANCH   4  18
ATOM     18  O   UNL     1       3.000   3.373  17.355  0.00  0.00    +0.000 OA
BRANCH  18  19
ATOM     19  C   UNL     1       3.128   2.477  18.470  0.00  0.00    +0.000 C 
ATOM     20  C   UNL     1       4.014   3.085  19.551  0.00  0.00    +0.000 C 
ATOM     21  O   UNL     1       3.172   3.732  20.511  0.00  0.00    +0.000 OA
ATOM     22  C   UNL     1       1.843   3.221  20.382  0.00  0.00    +0.000 C 
ATOM     23  C   UNL     1       1.453   2.508  21.670  0.00  0.00    +0.000 C 
ATOM     24  C   UNL     1       1.802   2.286  19.181  0.00  0.00    +0.000 C 
ENDBRANCH  18  19
ENDBRANCH   4  18
TORSDOF 3
ENDMDL
MODEL 3
REMARK VINA RESULT:      -7.5      0.910      1.021
REMARK  Name = 
REMARK  6 active torsions:
REMARK  status: ('A' for Active; 'I' for Inactive)
REMARK    1  A    between atoms: C_1  and  C_2
REMARK    2  A    between atoms: C_4  and  O_5
REMARK    3  A    between atoms: O_5  and  C_6
REMARK    4  A    between atoms: C_9  and  C_10
REMARK    5  A    between atoms: C_13  and  C_14
REMARK    6  A    between atoms: C_19  and  C_20
REMARK                            x       y       z     vdW  Elec       q    Type
REMARK                         _______ _______ _______ _____ _____    ______ ____
ROOT
ATOM      1  C   UNL     1       2.654   2.881  21.438  0.00  0.00    +0.000 C 
ATOM      2  C   UNL     1       3.042   3.795  20.314  0.00  0.00    +0.000 A 
ATOM      3  C   UNL     1       3.830   3.320  19.265  0.00  0.00    +0.000 A 
ATOM      4  C   UNL     1       4.198   4.188  18.239  0.00  0.00    +0.000 A 
ATOM      5  C   UNL     1       3.710   5.492  18.264  0.00  0.00    +0.000 A 
ATOM      6  C   UNL     1       2.918   5.887  19.337  0.00  0.00    +0.000 A 
ATOM      7  N   UNL     1       2.590   5.068  20.377  0.00  0.00    +0.000 NA
ENDROOT
BRANCH   6   8
ATOM      8  C   UNL     1       2.385   7.292  19.398  0.00  0.00    +0.000 C 
ATOM      9  O   UNL     1       2.794   8.108  18.584  0.00  0.00    +0.000 OA
ATOM     10  N   UNL     1       1.497   7.510  20.431  0.00  0.00    +0.000 N 
ATOM     11  C   UNL     1       0.874   8.700  20.728  0.00  0.00    +0.000 A 
ATOM     12  N   UNL     1       0.281   8.927  21.879  0.00  0.00    +0.000 NA
ATOM     13  C   UNL     1      -0.209  10.229  21.912  0.00  0.00    +0.000 A 
ATOM     14  C   UNL     1      -0.819  10.759  23.159  0.00  0.00    +0.000 C 
ATOM     15  C   UNL     1      -0.056  10.929  20.732  0.00  0.00    +0.000 A 
ATOM     16  S   UNL     1       0.765   9.965  19.586  0.00  0.00    +0.000 S 
ATOM     17  H   UNL     1       1.371   6.769  21.111  0.00  0.00    +0.000 HD
ENDBRANCH   6   8
BRANCH   4  18
ATOM     18  O   UNL     1       5.029   3.888  17.187  0.00  0.00    +0.000 OA
BRANCH  18  19
ATOM     19  C   UNL     1       5.213   4.893  16.178  0.00  0.00    +0.000 C 
ATOM     20  C   UNL     1       6.496   5.678  16.425  0.00  0.00    +0.000 C 
ATOM     21  O   UNL     1       7.541   5.086  15.647  0.00  0.00    +0.000 OA
ATOM     22  C   UNL     1       6.957   4.295  14.610  0.00  0.00    +0.000 C 
ATOM     23  C   UNL     1       7.336   4.882  13.257  0.00  0.00    +0.000 C 
ATOM     24  C   UNL     1       5.448   4.271  14.815  0.00  0.00    +0.000 C 
ENDBRANCH  18  19
ENDBRANCH   4  18
TORSDOF 3
ENDMDL
MODEL 4
REMARK VINA RESULT:      -7.5      5.194      8.614
REMARK  Name = 
REMARK  6 active torsions:
REMARK  status: ('A' for Active; 'I' for Inactive)
REMARK    1  A    between atoms: C_1  and  C_2
REMARK    2  A    between atoms: C_4  and  O_5
REMARK    3  A    between atoms: O_5  and  C_6
REMARK    4  A    between atoms: C_9  and  C_10
REMARK    5  A    between atoms: C_13  and  C_14
REMARK    6  A    between atoms: C_19  and  C_20
REMARK                            x       y       z     vdW  Elec       q    Type
REMARK                         _______ _______ _______ _____ _____    ______ ____
ROOT
ATOM      1  C   UNL     1       8.048   8.260  17.988  0.00  0.00    +0.000 C 
ATOM      2  C   UNL     1       7.416   6.927  17.720  0.00  0.00    +0.000 A 
ATOM      3  C   UNL     1       6.778   6.234  18.750  0.00  0.00    +0.000 A 
ATOM      4  C   UNL     1       6.213   4.988  18.488  0.00  0.00    +0.000 A 
ATOM      5  C   UNL     1       6.250   4.503  17.184  0.00  0.00    +0.000 A 
ATOM      6  C   UNL     1       6.892   5.258  16.209  0.00  0.00    +0.000 A 
ATOM      7  N   UNL     1       7.496   6.455  16.455  0.00  0.00    +0.000 NA
ENDROOT
BRANCH   6   8
ATOM      8  C   UNL     1       6.957   4.755  14.793  0.00  0.00    +0.000 C 
ATOM      9  O   UNL     1       8.011   4.865  14.182  0.00  0.00    +0.000 OA
ATOM     10  N   UNL     1       5.763   4.251  14.321  0.00  0.00    +0.000 N 
ATOM     11  C   UNL     1       5.537   3.743  13.063  0.00  0.00    +0.000 A 
ATOM     12  N   UNL     1       4.330   3.557  12.576  0.00  0.00    +0.000 NA
ATOM     13  C   UNL     1       4.413   3.087  11.269  0.00  0.00    +0.000 A 
ATOM     14  C   UNL     1       3.176   2.911  10.464  0.00  0.00    +0.000 C 
ATOM     15  C   UNL     1       5.698   2.836  10.831  0.00  0.00    +0.000 A 
ATOM     16  S   UNL     1       6.819   3.251  12.050  0.00  0.00    +0.000 S 
ATOM     17  H   UNL     1       4.940   4.364  14.902  0.00  0.00    +0.000 HD
ENDBRANCH   6   8
BRANCH   4  18
ATOM     18  O   UNL     1       5.625   4.159  19.412  0.00  0.00    +0.000 OA
BRANCH  18  19
ATOM     19  C   UNL     1       4.399   3.511  19.036  0.00  0.00    +0.000 C 
ATOM     20  C   UNL     1       4.089   2.354  19.979  0.00  0.00    +0.000 C 
ATOM     21  O   UNL     1       3.210   2.832  21.003  0.00  0.00    +0.000 OA
ATOM     22  C   UNL     1       2.591   4.040  20.557  0.00  0.00    +0.000 C 
ATOM     23  C   UNL     1       1.088   3.822  20.445  0.00  0.00    +0.000 C 
ATOM     24  C   UNL     1       3.208   4.431  19.221  0.00  0.00    +0.000 C 
ENDBRANCH  18  19
ENDBRANCH   4  18
TORSDOF 3
ENDMDL
MODEL 5
REMARK VINA RESULT:      -7.4      1.023      1.490
REMARK  Name = 
REMARK  6 active torsions:
REMARK  status: ('A' for Active; 'I' for Inactive)
REMARK    1  A    between atoms: C_1  and  C_2
REMARK    2  A    between atoms: C_4  and  O_5
REMARK    3  A    between atoms: O_5  and  C_6
REMARK    4  A    between atoms: C_9  and  C_10
REMARK    5  A    between atoms: C_13  and  C_14
REMARK    6  A    between atoms: C_19  and  C_20
REMARK                            x       y       z     vdW  Elec       q    Type
REMARK                         _______ _______ _______ _____ _____    ______ ____
ROOT
ATOM      1  C   UNL     1       2.200   3.357  21.606  0.00  0.00    +0.000 C 
ATOM      2  C   UNL     1       2.671   4.237  20.488  0.00  0.00    +0.000 A 
ATOM      3  C   UNL     1       3.560   3.741  19.533  0.00  0.00    +0.000 A 
ATOM      4  C   UNL     1       4.004   4.579  18.512  0.00  0.00    +0.000 A 
ATOM      5  C   UNL     1       3.491   5.871  18.442  0.00  0.00    +0.000 A 
ATOM      6  C   UNL     1       2.597   6.288  19.423  0.00  0.00    +0.000 A 
ATOM      7  N   UNL     1       2.191   5.501  20.460  0.00  0.00    +0.000 NA
ENDROOT
BRANCH   6   8
ATOM      8  C   UNL     1       2.034   7.682  19.380  0.00  0.00    +0.000 C 
ATOM      9  O   UNL     1       2.381   8.425  18.473  0.00  0.00    +0.000 OA
ATOM     10  N   UNL     1       1.195   7.980  20.434  0.00  0.00    +0.000 N 
ATOM     11  C   UNL     1       0.559   9.180  20.650  0.00  0.00    +0.000 A 
ATOM     12  N   UNL     1       0.021   9.504  21.805  0.00  0.00    +0.000 NA
ATOM     13  C   UNL     1      -0.498  10.793  21.742  0.00  0.00    +0.000 A 
ATOM     14  C   UNL     1      -1.056  11.428  22.965  0.00  0.00    +0.000 C 
ATOM     15  C   UNL     1      -0.423  11.381  20.496  0.00  0.00    +0.000 A 
ATOM     16  S   UNL     1       0.362  10.329  19.403  0.00  0.00    +0.000 S 
ATOM     17  H   UNL     1       1.122   7.304  21.186  0.00  0.00    +0.000 HD
ENDBRANCH   6   8
BRANCH   4  18
ATOM     18  O   UNL     1       4.933   4.258  17.552  0.00  0.00    +0.000 OA
BRANCH  18  19
ATOM     19  C   UNL     1       6.306   4.583  17.823  0.00  0.00    +0.000 C 
ATOM     20  C   UNL     1       7.078   4.785  16.525  0.00  0.00    +0.000 C 
ATOM     21  O   UNL     1       7.086   6.183  16.218  0.00  0.00    +0.000 OA
ATOM     22  C   UNL     1       6.782   6.919  17.404  0.00  0.00    +0.000 C 
ATOM     23  C   UNL     1       7.979   7.784  17.779  0.00  0.00    +0.000 C 
ATOM     24  C   UNL     1       6.429   5.931  18.507  0.00  0.00    +0.000 C 
ENDBRANCH  18  19
ENDBRANCH   4  18
TORSDOF 3
ENDMDL
MODEL 6
REMARK VINA RESULT:      -7.4      5.058      7.171
REMARK  Name = 
REMARK  6 active torsions:
REMARK  status: ('A' for Active; 'I' for Inactive)
REMARK    1  A    between atoms: C_1  and  C_2
REMARK    2  A    between atoms: C_4  and  O_5
REMARK    3  A    between atoms: O_5  and  C_6
REMARK    4  A    between atoms: C_9  and  C_10
REMARK    5  A    between atoms: C_13  and  C_14
REMARK    6  A    between atoms: C_19  and  C_20
REMARK                            x       y       z     vdW  Elec       q    Type
REMARK                         _______ _______ _______ _____ _____    ______ ____
ROOT
ATOM      1  C   UNL     1       7.279   4.852  13.676  0.00  0.00    +0.000 C 
ATOM      2  C   UNL     1       6.851   4.985  15.106  0.00  0.00    +0.000 A 
ATOM      3  C   UNL     1       5.914   4.101  15.643  0.00  0.00    +0.000 A 
ATOM      4  C   UNL     1       5.512   4.252  16.968  0.00  0.00    +0.000 A 
ATOM      5  C   UNL     1       6.112   5.247  17.735  0.00  0.00    +0.000 A 
ATOM      6  C   UNL     1       7.049   6.080  17.133  0.00  0.00    +0.000 A 
ATOM      7  N   UNL     1       7.417   5.982  15.824  0.00  0.00    +0.000 NA
ENDROOT
BRANCH   6   8
ATOM      8  C   UNL     1       7.706   7.170  17.933  0.00  0.00    +0.000 C 
ATOM      9  O   UNL     1       8.140   6.899  19.044  0.00  0.00    +0.000 OA
ATOM     10  N   UNL     1       7.702   8.402  17.312  0.00  0.00    +0.000 N 
ATOM     11  C   UNL     1       8.218   9.570  17.823  0.00  0.00    +0.000 A 
ATOM     12  N   UNL     1       7.927  10.754  17.331  0.00  0.00    +0.000 NA
ATOM     13  C   UNL     1       8.549  11.746  18.081  0.00  0.00    +0.000 A 
ATOM     14  C   UNL     1       8.274  13.178  17.789  0.00  0.00    +0.000 C 
ATOM     15  C   UNL     1       9.382  11.276  19.076  0.00  0.00    +0.000 A 
ATOM     16  S   UNL     1       9.340   9.569  19.110  0.00  0.00    +0.000 S 
ATOM     17  H   UNL     1       7.172   8.496  16.453  0.00  0.00    +0.000 HD
ENDBRANCH   6   8
BRANCH   4  18
ATOM     18  O   UNL     1       4.547   3.512  17.607  0.00  0.00    +0.000 OA
BRANCH  18  19
ATOM     19  C   UNL     1       3.475   4.228  18.243  0.00  0.00    +0.000 C 
ATOM     20  C   UNL     1       2.130   3.813  17.659  0.00  0.00    +0.000 C 
ATOM     21  O   UNL     1       1.578   2.785  18.489  0.00  0.00    +0.000 OA
ATOM     22  C   UNL     1       2.223   2.820  19.763  0.00  0.00    +0.000 C 
ATOM     23  C   UNL     1       1.197   3.163  20.835  0.00  0.00    +0.000 C 
ATOM     24  C   UNL     1       3.347   3.846  19.705  0.00  0.00    +0.000 C 
ENDBRANCH  18  19
ENDBRANCH   4  18
TORSDOF 3
ENDMDL
MODEL 7
REMARK VINA RESULT:      -7.4      1.539      1.876
REMARK  Name = 
REMARK  6 active torsions:
REMARK  status: ('A' for Active; 'I' for Inactive)
REMARK    1  A    between atoms: C_1  and  C_2
REMARK    2  A    between atoms: C_4  and  O_5
REMARK    3  A    between atoms: O_5  and  C_6
REMARK    4  A    between atoms: C_9  and  C_10
REMARK    5  A    between atoms: C_13  and  C_14
REMARK    6  A    between atoms: C_19  and  C_20
REMARK                            x       y       z     vdW  Elec       q    Type
REMARK                         _______ _______ _______ _____ _____    ______ ____
ROOT
ATOM      1  C   UNL     1       1.145   2.837  19.995  0.00  0.00    +0.000 C 
ATOM      2  C   UNL     1       1.994   4.053  19.778  0.00  0.00    +0.000 A 
ATOM      3  C   UNL     1       3.233   3.939  19.146  0.00  0.00    +0.000 A 
ATOM      4  C   UNL     1       4.018   5.077  18.970  0.00  0.00    +0.000 A 
ATOM      5  C   UNL     1       3.507   6.306  19.377  0.00  0.00    +0.000 A 
ATOM      6  C   UNL     1       2.257   6.340  19.987  0.00  0.00    +0.000 A 
ATOM      7  N   UNL     1       1.496   5.233  20.215  0.00  0.00    +0.000 NA
ENDROOT
BRANCH   6   8
ATOM      8  C   UNL     1       1.683   7.652  20.447  0.00  0.00    +0.000 C 
ATOM      9  O   UNL     1       1.508   7.825  21.645  0.00  0.00    +0.000 OA
ATOM     10  N   UNL     1       1.372   8.519  19.419  0.00  0.00    +0.000 N 
ATOM     11  C   UNL     1       0.821   9.772  19.554  0.00  0.00    +0.000 A 
ATOM     12  N   UNL     1       0.276  10.423  18.550  0.00  0.00    +0.000 NA
ATOM     13  C   UNL     1      -0.243  11.635  18.996  0.00  0.00    +0.000 A 
ATOM     14  C   UNL     1      -1.015  12.498  18.064  0.00  0.00    +0.000 C 
ATOM     15  C   UNL     1       0.012  11.913  20.323  0.00  0.00    +0.000 A 
ATOM     16  S   UNL     1       0.861  10.615  21.038  0.00  0.00    +0.000 S 
ATOM     17  H   UNL     1       1.441   8.170  18.470  0.00  0.00    +0.000 HD
ENDBRANCH   6   8
BRANCH   4  18
ATOM     18  O   UNL     1       5.285   5.109  18.440  0.00  0.00    +0.000 OA
BRANCH  18  19
ATOM     19  C   UNL     1       5.438   5.653  17.119  0.00  0.00    +0.000 C 
ATOM     20  C   UNL     1       6.910   5.869  16.792  0.00  0.00    +0.000 C 
ATOM     21  O   UNL     1       7.387   4.720  16.084  0.00  0.00    +0.000 OA
ATOM     22  C   UNL     1       6.269   4.006  15.552  0.00  0.00    +0.000 C 
ATOM     23  C   UNL     1       6.346   4.016  14.030  0.00  0.00    +0.000 C 
ATOM     24  C   UNL     1       4.993   4.664  16.059  0.00  0.00    +0.000 C 
ENDBRANCH  18  19
ENDBRANCH   4  18
TORSDOF 3
ENDMDL
MODEL 8
REMARK VINA RESULT:      -7.3      4.886      7.165
REMARK  Name = 
REMARK  6 active torsions:
REMARK  status: ('A' for Active; 'I' for Inactive)
REMARK    1  A    between atoms: C_1  and  C_2
REMARK    2  A    between atoms: C_4  and  O_5
REMARK    3  A    between atoms: O_5  and  C_6
REMARK    4  A    between atoms: C_9  and  C_10
REMARK    5  A    between atoms: C_13  and  C_14
REMARK    6  A    between atoms: C_19  and  C_20
REMARK                            x       y       z     vdW  Elec       q    Type
REMARK                         _______ _______ _______ _____ _____    ______ ____
ROOT
ATOM      1  C   UNL     1       7.259   4.640  14.216  0.00  0.00    +0.000 C 
ATOM      2  C   UNL     1       6.641   5.314  15.404  0.00  0.00    +0.000 A 
ATOM      3  C   UNL     1       5.342   4.988  15.797  0.00  0.00    +0.000 A 
ATOM      4  C   UNL     1       4.776   5.639  16.892  0.00  0.00    +0.000 A 
ATOM      5  C   UNL     1       5.554   6.551  17.598  0.00  0.00    +0.000 A 
ATOM      6  C   UNL     1       6.845   6.813  17.153  0.00  0.00    +0.000 A 
ATOM      7  N   UNL     1       7.400   6.226  16.054  0.00  0.00    +0.000 NA
ENDROOT
BRANCH   6   8
ATOM      8  C   UNL     1       7.707   7.802  17.889  0.00  0.00    +0.000 C 
ATOM      9  O   UNL     1       8.337   7.415  18.863  0.00  0.00    +0.000 OA
ATOM     10  N   UNL     1       7.645   9.084  17.384  0.00  0.00    +0.000 N 
ATOM     11  C   UNL     1       8.315  10.182  17.874  0.00  0.00    +0.000 A 
ATOM     12  N   UNL     1       7.995  11.415  17.549  0.00  0.00    +0.000 NA
ATOM     13  C   UNL     1       8.807  12.312  18.236  0.00  0.00    +0.000 A 
ATOM     14  C   UNL     1       8.558  13.773  18.123  0.00  0.00    +0.000 C 
ATOM     15  C   UNL     1       9.795  11.723  18.999  0.00  0.00    +0.000 A 
ATOM     16  S   UNL     1       9.669  10.022  18.901  0.00  0.00    +0.000 S 
ATOM     17  H   UNL     1       6.961   9.275  16.661  0.00  0.00    +0.000 HD
ENDBRANCH   6   8
BRANCH   4  18
ATOM     18  O   UNL     1       3.489   5.482  17.346  0.00  0.00    +0.000 OA
BRANCH  18  19
ATOM     19  C   UNL     1       3.069   4.155  17.703  0.00  0.00    +0.000 C 
ATOM     20  C   UNL     1       3.811   3.670  18.942  0.00  0.00    +0.000 C 
ATOM     21  O   UNL     1       3.001   3.947  20.089  0.00  0.00    +0.000 OA
ATOM     22  C   UNL     1       1.652   4.153  19.666  0.00  0.00    +0.000 C 
ATOM     23  C   UNL     1       0.767   3.067  20.266  0.00  0.00    +0.000 C 
ATOM     24  C   UNL     1       1.617   4.136  18.144  0.00  0.00    +0.000 C 
ENDBRANCH  18  19
ENDBRANCH   4  18
TORSDOF 3
ENDMDL
MODEL 9
REMARK VINA RESULT:      -7.3      1.895      4.049
REMARK  Name = 
REMARK  6 active torsions:
REMARK  status: ('A' for Active; 'I' for Inactive)
REMARK    1  A    between atoms: C_1  and  C_2
REMARK    2  A    between atoms: C_4  and  O_5
REMARK    3  A    between atoms: O_5  and  C_6
REMARK    4  A    between atoms: C_9  and  C_10
REMARK    5  A    between atoms: C_13  and  C_14
REMARK    6  A    between atoms: C_19  and  C_20
REMARK                            x       y       z     vdW  Elec       q    Type
REMARK                         _______ _______ _______ _____ _____    ______ ____
ROOT
ATOM      1  C   UNL     1       5.891   5.479  15.047  0.00  0.00    +0.000 C 
ATOM      2  C   UNL     1       5.258   5.513  16.405  0.00  0.00    +0.000 A 
ATOM      3  C   UNL     1       5.567   4.531  17.348  0.00  0.00    +0.000 A 
ATOM      4  C   UNL     1       4.954   4.568  18.599  0.00  0.00    +0.000 A 
ATOM      5  C   UNL     1       4.098   5.626  18.889  0.00  0.00    +0.000 A 
ATOM      6  C   UNL     1       3.851   6.575  17.902  0.00  0.00    +0.000 A 
ATOM      7  N   UNL     1       4.400   6.529  16.655  0.00  0.00    +0.000 NA
ENDROOT
BRANCH   6   8
ATOM      8  C   UNL     1       2.923   7.724  18.183  0.00  0.00    +0.000 C 
ATOM      9  O   UNL     1       2.839   8.622  17.356  0.00  0.00    +0.000 OA
ATOM     10  N   UNL     1       2.287   7.646  19.404  0.00  0.00    +0.000 N 
ATOM     11  C   UNL     1       1.403   8.566  19.919  0.00  0.00    +0.000 A 
ATOM     12  N   UNL     1       1.062   8.595  21.188  0.00  0.00    +0.000 NA
ATOM     13  C   UNL     1       0.200   9.661  21.424  0.00  0.00    +0.000 A 
ATOM     14  C   UNL     1      -0.231   9.972  22.812  0.00  0.00    +0.000 C 
ATOM     15  C   UNL     1      -0.169  10.361  20.293  0.00  0.00    +0.000 A 
ATOM     16  S   UNL     1       0.621   9.713  18.925  0.00  0.00    +0.000 S 
ATOM     17  H   UNL     1       2.574   6.911  20.040  0.00  0.00    +0.000 HD
ENDBRANCH   6   8
BRANCH   4  18
ATOM     18  O   UNL     1       5.097   3.632  19.594  0.00  0.00    +0.000 OA
BRANCH  18  19
ATOM     19  C   UNL     1       4.250   2.473  19.542  0.00  0.00    +0.000 C 
ATOM     20  C   UNL     1       3.440   2.338  20.826  0.00  0.00    +0.000 C 
ATOM     21  O   UNL     1       2.163   2.950  20.617  0.00  0.00    +0.000 OA
ATOM     22  C   UNL     1       1.926   3.063  19.213  0.00  0.00    +0.000 C 
ATOM     23  C   UNL     1       0.717   2.215  18.838  0.00  0.00    +0.000 C 
ATOM     24  C   UNL     1       3.181   2.617  18.476  0.00  0.00    +0.000 C 
ENDBRANCH  18  19
ENDBRANCH   4  18
TORSDOF 3
ENDMDL
