MODEL 1
REMARK VINA RESULT:      -7.1      0.000      0.000
REMARK  Name = 
REMARK  6 active torsions:
REMARK  status: ('A' for Active; 'I' for Inactive)
REMARK    1  A    between atoms: C_1  and  C_2
REMARK    2  A    between atoms: C_4  and  O_5
REMARK    3  A    between atoms: C_6  and  C_7
REMARK    4  A    between atoms: N_9  and  C_10
REMARK    5  A    between atoms: C_10  and  C_11
REMARK    6  A    between atoms: C_11  and  N_12
REMARK                            x       y       z     vdW  Elec       q    Type
REMARK                         _______ _______ _______ _____ _____    ______ ____
ROOT
ATOM      1  C   UNL     1       5.032   4.343  17.387  0.00  0.00    +0.000 C 
ATOM      2  O   UNL     1       3.871   4.728  17.459  0.00  0.00    +0.000 OA
ATOM      3  N   UNL     1       5.658   3.691  18.433  0.00  0.00    +0.000 N 
ATOM      4  H   UNL     1       6.637   3.425  18.336  0.00  0.00    +0.000 HD
ENDROOT
BRANCH   1   9
ATOM      5  C   UNL     1       8.059   5.245  12.578  0.00  0.00    +0.000 C 
ATOM      6  C   UNL     1       7.233   4.962  13.803  0.00  0.00    +0.000 A 
ATOM      7  N   UNL     1       7.648   5.579  14.942  0.00  0.00    +0.000 NA
ATOM      8  C   UNL     1       6.922   5.359  16.056  0.00  0.00    +0.000 A 
ATOM      9  C   UNL     1       5.796   4.555  16.134  0.00  0.00    +0.000 A 
ATOM     10  C   UNL     1       5.390   3.923  14.950  0.00  0.00    +0.000 A 
ATOM     11  C   UNL     1       6.117   4.129  13.771  0.00  0.00    +0.000 A 
ATOM     12 BR   UNL     1       5.533   3.260  12.190  0.00  0.00    +0.000 Br
BRANCH   8  13
ATOM     13  O   UNL     1       7.424   6.024  17.128  0.00  0.00    +0.000 OA
ATOM     14  H   UNL     1       6.592   6.181  17.618  0.00  0.00    +0.000 HD
ENDBRANCH   8  13
ENDBRANCH   1   9
BRANCH   3  15
ATOM     15  C   UNL     1       4.986   3.464  19.699  0.00  0.00    +0.000 C 
BRANCH  15  16
ATOM     16  C   UNL     1       4.126   2.201  19.677  0.00  0.00    +0.000 C 
BRANCH  16  17
ATOM     17  N   UNL     1       2.712   2.494  19.620  0.00  0.00    +0.000 N 
ATOM     18  C   UNL     1       1.982   3.211  20.522  0.00  0.00    +0.000 A 
ATOM     19  C   UNL     1       0.689   3.165  20.047  0.00  0.00    +0.000 A 
ATOM     20  N   UNL     1       0.626   2.440  18.885  0.00  0.00    +0.000 NA
ATOM     21  C   UNL     1       1.855   2.038  18.659  0.00  0.00    +0.000 A 
ENDBRANCH  16  17
ENDBRANCH  15  16
ENDBRANCH   3  15
TORSDOF 5
ENDMDL
MODEL 2
REMARK VINA RESULT:      -6.9      1.306      1.582
REMARK  Name = 
REMARK  6 active torsions:
REMARK  status: ('A' for Active; 'I' for Inactive)
REMARK    1  A    between atoms: C_1  and  C_2
REMARK    2  A    between atoms: C_4  and  O_5
REMARK    3  A    between atoms: C_6  and  C_7
REMARK    4  A    between atoms: N_9  and  C_10
REMARK    5  A    between atoms: C_10  and  C_11
REMARK    6  A    between atoms: C_11  and  N_12
REMARK                            x       y       z     vdW  Elec       q    Type
REMARK                         _______ _______ _______ _____ _____    ______ ____
ROOT
ATOM      1  C   UNL     1       5.104   4.493  17.463  0.00  0.00    +0.000 C 
ATOM      2  O   UNL     1       4.703   3.385  17.799  0.00  0.00    +0.000 OA
ATOM      3  N   UNL     1       4.924   5.613  18.252  0.00  0.00    +0.000 N 
ATOM      4  H   UNL     1       5.244   6.518  17.909  0.00  0.00    +0.000 HD
ENDROOT
BRANCH   1   9
ATOM      5  C   UNL     1       7.983   5.174  12.528  0.00  0.00    +0.000 C 
ATOM      6  C   UNL     1       7.193   4.949  13.788  0.00  0.00    +0.000 A 
ATOM      7  N   UNL     1       7.666   5.584  14.894  0.00  0.00    +0.000 NA
ATOM      8  C   UNL     1       6.975   5.416  16.039  0.00  0.00    +0.000 A 
ATOM      9  C   UNL     1       5.829   4.649  16.178  0.00  0.00    +0.000 A 
ATOM     10  C   UNL     1       5.362   3.998  15.026  0.00  0.00    +0.000 A 
ATOM     11  C   UNL     1       6.053   4.151  13.818  0.00  0.00    +0.000 A 
ATOM     12 BR   UNL     1       5.387   3.258  12.283  0.00  0.00    +0.000 Br
BRANCH   8  13
ATOM     13  O   UNL     1       7.533   6.093  17.074  0.00  0.00    +0.000 OA
ATOM     14  H   UNL     1       6.783   6.677  17.302  0.00  0.00    +0.000 HD
ENDBRANCH   8  13
ENDBRANCH   1   9
BRANCH   3  15
ATOM     15  C   UNL     1       4.208   5.547  19.513  0.00  0.00    +0.000 C 
BRANCH  15  16
ATOM     16  C   UNL     1       2.701   5.720  19.330  0.00  0.00    +0.000 C 
BRANCH  16  17
ATOM     17  N   UNL     1       1.972   4.491  19.542  0.00  0.00    +0.000 N 
ATOM     18  C   UNL     1       1.328   3.742  18.601  0.00  0.00    +0.000 A 
ATOM     19  C   UNL     1       0.755   2.706  19.306  0.00  0.00    +0.000 A 
ATOM     20  N   UNL     1       1.038   2.815  20.643  0.00  0.00    +0.000 NA
ATOM     21  C   UNL     1       1.760   3.904  20.757  0.00  0.00    +0.000 A 
ENDBRANCH  16  17
ENDBRANCH  15  16
ENDBRANCH   3  15
TORSDOF 5
ENDMDL
MODEL 3
REMARK VINA RESULT:      -6.7      1.606      1.838
REMARK  Name = 
REMARK  6 active torsions:
REMARK  status: ('A' for Active; 'I' for Inactive)
REMARK    1  A    between atoms: C_1  and  C_2
REMARK    2  A    between atoms: C_4  and  O_5
REMARK    3  A    between atoms: C_6  and  C_7
REMARK    4  A    between atoms: N_9  and  C_10
REMARK    5  A    between atoms: C_10  and  C_11
REMARK    6  A    between atoms: C_11  and  N_12
REMARK                            x       y       z     vdW  Elec       q    Type
REMARK                         _______ _______ _______ _____ _____    ______ ____
ROOT
ATOM      1  C   UNL     1       5.441   3.807  17.487  0.00  0.00    +0.000 C 
ATOM      2  O   UNL     1       5.881   4.252  18.541  0.00  0.00    +0.000 OA
ATOM      3  N   UNL     1       4.355   2.954  17.443  0.00  0.00    +0.000 N 
ATOM      4  H   UNL     1       4.052   2.583  16.543  0.00  0.00    +0.000 HD
ENDROOT
BRANCH   1   9
ATOM      5  C   UNL     1       7.946   5.446  12.574  0.00  0.00    +0.000 C 
ATOM      6  C   UNL     1       7.260   4.969  13.824  0.00  0.00    +0.000 A 
ATOM      7  N   UNL     1       7.684   5.548  14.980  0.00  0.00    +0.000 NA
ATOM      8  C   UNL     1       7.081   5.154  16.119  0.00  0.00    +0.000 A 
ATOM      9  C   UNL     1       6.072   4.208  16.206  0.00  0.00    +0.000 A 
ATOM     10  C   UNL     1       5.655   3.619  15.004  0.00  0.00    +0.000 A 
ATOM     11  C   UNL     1       6.256   4.004  13.800  0.00  0.00    +0.000 A 
ATOM     12 BR   UNL     1       5.660   3.187  12.195  0.00  0.00    +0.000 Br
BRANCH   8  13
ATOM     13  O   UNL     1       7.580   5.797  17.206  0.00  0.00    +0.000 OA
ATOM     14  H   UNL     1       7.967   6.577  16.762  0.00  0.00    +0.000 HD
ENDBRANCH   8  13
ENDBRANCH   1   9
BRANCH   3  15
ATOM     15  C   UNL     1       3.696   2.499  18.653  0.00  0.00    +0.000 C 
BRANCH  15  16
ATOM     16  C   UNL     1       2.251   2.988  18.743  0.00  0.00    +0.000 C 
BRANCH  16  17
ATOM     17  N   UNL     1       2.139   4.270  19.399  0.00  0.00    +0.000 N 
ATOM     18  C   UNL     1       1.706   4.510  20.670  0.00  0.00    +0.000 A 
ATOM     19  C   UNL     1       1.740   5.881  20.802  0.00  0.00    +0.000 A 
ATOM     20  N   UNL     1       2.181   6.468  19.644  0.00  0.00    +0.000 NA
ATOM     21  C   UNL     1       2.401   5.476  18.814  0.00  0.00    +0.000 A 
ENDBRANCH  16  17
ENDBRANCH  15  16
ENDBRANCH   3  15
TORSDOF 5
ENDMDL
MODEL 4
REMARK VINA RESULT:      -6.7      1.363      1.767
REMARK  Name = 
REMARK  6 active torsions:
REMARK  status: ('A' for Active; 'I' for Inactive)
REMARK    1  A    between atoms: C_1  and  C_2
REMARK    2  A    between atoms: C_4  and  O_5
REMARK    3  A    between atoms: C_6  and  C_7
REMARK    4  A    between atoms: N_9  and  C_10
REMARK    5  A    between atoms: C_10  and  C_11
REMARK    6  A    between atoms: C_11  and  N_12
REMARK                            x       y       z     vdW  Elec       q    Type
REMARK                         _______ _______ _______ _____ _____    ______ ____
ROOT
ATOM      1  C   UNL     1       4.798   4.928  17.517  0.00  0.00    +0.000 C 
ATOM      2  O   UNL     1       5.321   4.687  18.599  0.00  0.00    +0.000 OA
ATOM      3  N   UNL     1       3.450   5.205  17.395  0.00  0.00    +0.000 N 
ATOM      4  H   UNL     1       3.058   5.361  16.467  0.00  0.00    +0.000 HD
ENDROOT
BRANCH   1   9
ATOM      5  C   UNL     1       8.109   5.083  12.814  0.00  0.00    +0.000 C 
ATOM      6  C   UNL     1       7.205   4.996  14.013  0.00  0.00    +0.000 A 
ATOM      7  N   UNL     1       7.634   5.665  15.117  0.00  0.00    +0.000 NA
ATOM      8  C   UNL     1       6.842   5.621  16.206  0.00  0.00    +0.000 A 
ATOM      9  C   UNL     1       5.634   4.948  16.291  0.00  0.00    +0.000 A 
ATOM     10  C   UNL     1       5.213   4.261  15.144  0.00  0.00    +0.000 A 
ATOM     11  C   UNL     1       6.008   4.285  13.992  0.00  0.00    +0.000 A 
ATOM     12 BR   UNL     1       5.401   3.346  12.460  0.00  0.00    +0.000 Br
BRANCH   8  13
ATOM     13  O   UNL     1       7.366   6.321  17.244  0.00  0.00    +0.000 OA
ATOM     14  H   UNL     1       8.317   6.194  17.055  0.00  0.00    +0.000 HD
ENDBRANCH   8  13
ENDBRANCH   1   9
BRANCH   3  15
ATOM     15  C   UNL     1       2.562   5.184  18.543  0.00  0.00    +0.000 C 
BRANCH  15  16
ATOM     16  C   UNL     1       1.801   3.865  18.661  0.00  0.00    +0.000 C 
BRANCH  16  17
ATOM     17  N   UNL     1       1.937   3.261  19.966  0.00  0.00    +0.000 N 
ATOM     18  C   UNL     1       0.941   3.003  20.863  0.00  0.00    +0.000 A 
ATOM     19  C   UNL     1       1.583   2.473  21.960  0.00  0.00    +0.000 A 
ATOM     20  N   UNL     1       2.936   2.408  21.746  0.00  0.00    +0.000 NA
ATOM     21  C   UNL     1       3.121   2.900  20.544  0.00  0.00    +0.000 A 
ENDBRANCH  16  17
ENDBRANCH  15  16
ENDBRANCH   3  15
TORSDOF 5
ENDMDL
MODEL 5
REMARK VINA RESULT:      -6.4      1.059      1.272
REMARK  Name = 
REMARK  6 active torsions:
REMARK  status: ('A' for Active; 'I' for Inactive)
REMARK    1  A    between atoms: C_1  and  C_2
REMARK    2  A    between atoms: C_4  and  O_5
REMARK    3  A    between atoms: C_6  and  C_7
REMARK    4  A    between atoms: N_9  and  C_10
REMARK    5  A    between atoms: C_10  and  C_11
REMARK    6  A    between atoms: C_11  and  N_12
REMARK                            x       y       z     vdW  Elec       q    Type
REMARK                         _______ _______ _______ _____ _____    ______ ____
ROOT
ATOM      1  C   UNL     1       5.048   3.886  17.155  0.00  0.00    +0.000 C 
ATOM      2  O   UNL     1       3.866   3.584  17.030  0.00  0.00    +0.000 OA
ATOM      3  N   UNL     1       5.689   3.866  18.379  0.00  0.00    +0.000 N 
ATOM      4  H   UNL     1       6.663   4.163  18.433  0.00  0.00    +0.000 HD
ENDROOT
BRANCH   1   9
ATOM      5  C   UNL     1       8.148   5.440  12.564  0.00  0.00    +0.000 C 
ATOM      6  C   UNL     1       7.311   4.984  13.727  0.00  0.00    +0.000 A 
ATOM      7  N   UNL     1       7.580   5.593  14.914  0.00  0.00    +0.000 NA
ATOM      8  C   UNL     1       6.840   5.219  15.975  0.00  0.00    +0.000 A 
ATOM      9  C   UNL     1       5.834   4.265  15.955  0.00  0.00    +0.000 A 
ATOM     10  C   UNL     1       5.578   3.645  14.724  0.00  0.00    +0.000 A 
ATOM     11  C   UNL     1       6.326   4.010  13.598  0.00  0.00    +0.000 A 
ATOM     12 BR   UNL     1       5.945   3.151  11.950  0.00  0.00    +0.000 Br
BRANCH   8  13
ATOM     13  O   UNL     1       7.191   5.890  17.102  0.00  0.00    +0.000 OA
ATOM     14  H   UNL     1       8.016   6.308  16.784  0.00  0.00    +0.000 HD
ENDBRANCH   8  13
ENDBRANCH   1   9
BRANCH   3  15
ATOM     15  C   UNL     1       4.984   3.526  19.601  0.00  0.00    +0.000 C 
BRANCH  15  16
ATOM     16  C   UNL     1       3.832   4.489  19.890  0.00  0.00    +0.000 C 
BRANCH  16  17
ATOM     17  N   UNL     1       2.649   3.810  20.367  0.00  0.00    +0.000 N 
ATOM     18  C   UNL     1       1.436   3.737  19.749  0.00  0.00    +0.000 A 
ATOM     19  C   UNL     1       0.638   3.028  20.621  0.00  0.00    +0.000 A 
ATOM     20  N   UNL     1       1.340   2.677  21.744  0.00  0.00    +0.000 NA
ATOM     21  C   UNL     1       2.543   3.172  21.570  0.00  0.00    +0.000 A 
ENDBRANCH  16  17
ENDBRANCH  15  16
ENDBRANCH   3  15
TORSDOF 5
ENDMDL
MODEL 6
REMARK VINA RESULT:      -6.4      4.892      6.290
REMARK  Name = 
REMARK  6 active torsions:
REMARK  status: ('A' for Active; 'I' for Inactive)
REMARK    1  A    between atoms: C_1  and  C_2
REMARK    2  A    between atoms: C_4  and  O_5
REMARK    3  A    between atoms: C_6  and  C_7
REMARK    4  A    between atoms: N_9  and  C_10
REMARK    5  A    between atoms: C_10  and  C_11
REMARK    6  A    between atoms: C_11  and  N_12
REMARK                            x       y       z     vdW  Elec       q    Type
REMARK                         _______ _______ _______ _____ _____    ______ ____
ROOT
ATOM      1  C   UNL     1       3.161   5.983  18.962  0.00  0.00    +0.000 C 
ATOM      2  O   UNL     1       4.150   5.745  19.646  0.00  0.00    +0.000 OA
ATOM      3  N   UNL     1       2.684   5.091  18.021  0.00  0.00    +0.000 N 
ATOM      4  H   UNL     1       1.879   5.354  17.452  0.00  0.00    +0.000 HD
ENDROOT
BRANCH   1   9
ATOM      5  C   UNL     1       0.361  10.967  19.616  0.00  0.00    +0.000 C 
ATOM      6  C   UNL     1       1.067   9.643  19.504  0.00  0.00    +0.000 A 
ATOM      7  N   UNL     1       1.683   9.410  18.313  0.00  0.00    +0.000 NA
ATOM      8  C   UNL     1       2.338   8.240  18.182  0.00  0.00    +0.000 A 
ATOM      9  C   UNL     1       2.429   7.259  19.157  0.00  0.00    +0.000 A 
ATOM     10  C   UNL     1       1.782   7.517  20.373  0.00  0.00    +0.000 A 
ATOM     11  C   UNL     1       1.093   8.723  20.548  0.00  0.00    +0.000 A 
ATOM     12 BR   UNL     1       0.235   9.036  22.210  0.00  0.00    +0.000 Br
BRANCH   8  13
ATOM     13  O   UNL     1       2.914   8.114  16.959  0.00  0.00    +0.000 OA
ATOM     14  H   UNL     1       3.854   8.104  17.229  0.00  0.00    +0.000 HD
ENDBRANCH   8  13
ENDBRANCH   1   9
BRANCH   3  15
ATOM     15  C   UNL     1       3.355   3.832  17.757  0.00  0.00    +0.000 C 
BRANCH  15  16
ATOM     16  C   UNL     1       2.533   2.631  18.222  0.00  0.00    +0.000 C 
BRANCH  16  17
ATOM     17  N   UNL     1       2.286   2.645  19.645  0.00  0.00    +0.000 N 
ATOM     18  C   UNL     1       1.083   2.798  20.271  0.00  0.00    +0.000 A 
ATOM     19  C   UNL     1       1.382   2.789  21.616  0.00  0.00    +0.000 A 
ATOM     20  N   UNL     1       2.730   2.637  21.812  0.00  0.00    +0.000 NA
ATOM     21  C   UNL     1       3.250   2.566  20.610  0.00  0.00    +0.000 A 
ENDBRANCH  16  17
ENDBRANCH  15  16
ENDBRANCH   3  15
TORSDOF 5
ENDMDL
MODEL 7
REMARK VINA RESULT:      -6.3      1.466      1.713
REMARK  Name = 
REMARK  6 active torsions:
REMARK  status: ('A' for Active; 'I' for Inactive)
REMARK    1  A    between atoms: C_1  and  C_2
REMARK    2  A    between atoms: C_4  and  O_5
REMARK    3  A    between atoms: C_6  and  C_7
REMARK    4  A    between atoms: N_9  and  C_10
REMARK    5  A    between atoms: C_10  and  C_11
REMARK    6  A    between atoms: C_11  and  N_12
REMARK                            x       y       z     vdW  Elec       q    Type
REMARK                         _______ _______ _______ _____ _____    ______ ____
ROOT
ATOM      1  C   UNL     1       5.303   4.975  17.979  0.00  0.00    +0.000 C 
ATOM      2  O   UNL     1       5.790   4.272  18.857  0.00  0.00    +0.000 OA
ATOM      3  N   UNL     1       4.208   5.786  18.205  0.00  0.00    +0.000 N 
ATOM      4  H   UNL     1       3.819   6.322  17.430  0.00  0.00    +0.000 HD
ENDROOT
BRANCH   1   9
ATOM      5  C   UNL     1       7.758   5.080  12.776  0.00  0.00    +0.000 C 
ATOM      6  C   UNL     1       7.073   5.007  14.113  0.00  0.00    +0.000 A 
ATOM      7  N   UNL     1       7.695   5.670  15.125  0.00  0.00    +0.000 NA
ATOM      8  C   UNL     1       7.102   5.637  16.334  0.00  0.00    +0.000 A 
ATOM      9  C   UNL     1       5.916   4.983  16.628  0.00  0.00    +0.000 A 
ATOM     10  C   UNL     1       5.294   4.301  15.572  0.00  0.00    +0.000 A 
ATOM     11  C   UNL     1       5.880   4.314  14.300  0.00  0.00    +0.000 A 
ATOM     12 BR   UNL     1       5.005   3.383  12.898  0.00  0.00    +0.000 Br
BRANCH   8  13
ATOM     13  O   UNL     1       7.806   6.330  17.265  0.00  0.00    +0.000 OA
ATOM     14  H   UNL     1       7.912   7.175  16.784  0.00  0.00    +0.000 HD
ENDBRANCH   8  13
ENDBRANCH   1   9
BRANCH   3  15
ATOM     15  C   UNL     1       3.539   5.818  19.493  0.00  0.00    +0.000 C 
BRANCH  15  16
ATOM     16  C   UNL     1       2.193   5.097  19.463  0.00  0.00    +0.000 C 
BRANCH  16  17
ATOM     17  N   UNL     1       2.294   3.754  18.941  0.00  0.00    +0.000 N 
ATOM     18  C   UNL     1       2.793   2.657  19.581  0.00  0.00    +0.000 A 
ATOM     19  C   UNL     1       2.715   1.642  18.652  0.00  0.00    +0.000 A 
ATOM     20  N   UNL     1       2.184   2.101  17.475  0.00  0.00    +0.000 NA
ATOM     21  C   UNL     1       1.953   3.378  17.673  0.00  0.00    +0.000 A 
ENDBRANCH  16  17
ENDBRANCH  15  16
ENDBRANCH   3  15
TORSDOF 5
ENDMDL
MODEL 8
REMARK VINA RESULT:      -6.3      7.599      9.177
REMARK  Name = 
REMARK  6 active torsions:
REMARK  status: ('A' for Active; 'I' for Inactive)
REMARK    1  A    between atoms: C_1  and  C_2
REMARK    2  A    between atoms: C_4  and  O_5
REMARK    3  A    between atoms: C_6  and  C_7
REMARK    4  A    between atoms: N_9  and  C_10
REMARK    5  A    between atoms: C_10  and  C_11
REMARK    6  A    between atoms: C_11  and  N_12
REMARK                            x       y       z     vdW  Elec       q    Type
REMARK                         _______ _______ _______ _____ _____    ______ ____
ROOT
ATOM      1  C   UNL     1       9.441  11.156  18.974  0.00  0.00    +0.000 C 
ATOM      2  O   UNL     1       9.491  10.960  20.183  0.00  0.00    +0.000 OA
ATOM      3  N   UNL     1       8.973  10.202  18.091  0.00  0.00    +0.000 N 
ATOM      4  H   UNL     1       8.988  10.402  17.092  0.00  0.00    +0.000 HD
ENDROOT
BRANCH   1   9
ATOM      5  C   UNL     1      11.218  16.191  16.831  0.00  0.00    +0.000 C 
ATOM      6  C   UNL     1      10.695  14.904  17.406  0.00  0.00    +0.000 A 
ATOM      7  N   UNL     1      11.485  13.813  17.210  0.00  0.00    +0.000 NA
ATOM      8  C   UNL     1      11.053  12.645  17.724  0.00  0.00    +0.000 A 
ATOM      9  C   UNL     1       9.874  12.467  18.429  0.00  0.00    +0.000 A 
ATOM     10  C   UNL     1       9.072  13.602  18.615  0.00  0.00    +0.000 A 
ATOM     11  C   UNL     1       9.488  14.834  18.097  0.00  0.00    +0.000 A 
ATOM     12 BR   UNL     1       8.378  16.347  18.373  0.00  0.00    +0.000 Br
BRANCH   8  13
ATOM     13  O   UNL     1      11.917  11.629  17.471  0.00  0.00    +0.000 OA
ATOM     14  H   UNL     1      12.612  11.848  18.123  0.00  0.00    +0.000 HD
ENDBRANCH   8  13
ENDBRANCH   1   9
BRANCH   3  15
ATOM     15  C   UNL     1       8.551   8.889  18.544  0.00  0.00    +0.000 C 
BRANCH  15  16
ATOM     16  C   UNL     1       7.610   8.211  17.549  0.00  0.00    +0.000 C 
BRANCH  16  17
ATOM     17  N   UNL     1       7.556   6.778  17.726  0.00  0.00    +0.000 N 
ATOM     18  C   UNL     1       7.132   5.851  16.819  0.00  0.00    +0.000 A 
ATOM     19  C   UNL     1       7.229   4.644  17.476  0.00  0.00    +0.000 A 
ATOM     20  N   UNL     1       7.698   4.823  18.752  0.00  0.00    +0.000 NA
ATOM     21  C   UNL     1       7.874   6.117  18.878  0.00  0.00    +0.000 A 
ENDBRANCH  16  17
ENDBRANCH  15  16
ENDBRANCH   3  15
TORSDOF 5
ENDMDL
MODEL 9
REMARK VINA RESULT:      -6.3      5.363      7.453
REMARK  Name = 
REMARK  6 active torsions:
REMARK  status: ('A' for Active; 'I' for Inactive)
REMARK    1  A    between atoms: C_1  and  C_2
REMARK    2  A    between atoms: C_4  and  O_5
REMARK    3  A    between atoms: C_6  and  C_7
REMARK    4  A    between atoms: N_9  and  C_10
REMARK    5  A    between atoms: C_10  and  C_11
REMARK    6  A    between atoms: C_11  and  N_12
REMARK                            x       y       z     vdW  Elec       q    Type
REMARK                         _______ _______ _______ _____ _____    ______ ____
ROOT
ATOM      1  C   UNL     1       2.555   6.546  19.069  0.00  0.00    +0.000 C 
ATOM      2  O   UNL     1       2.193   5.974  18.048  0.00  0.00    +0.000 OA
ATOM      3  N   UNL     1       3.563   6.050  19.874  0.00  0.00    +0.000 N 
ATOM      4  H   UNL     1       3.800   6.546  20.733  0.00  0.00    +0.000 HD
ENDROOT
BRANCH   1   9
ATOM      5  C   UNL     1       0.102  11.561  20.462  0.00  0.00    +0.000 C 
ATOM      6  C   UNL     1       0.721  10.225  20.156  0.00  0.00    +0.000 A 
ATOM      7  N   UNL     1       1.212  10.084  18.895  0.00  0.00    +0.000 NA
ATOM      8  C   UNL     1       1.787   8.904  18.591  0.00  0.00    +0.000 A 
ATOM      9  C   UNL     1       1.914   7.828  19.454  0.00  0.00    +0.000 A 
ATOM     10  C   UNL     1       1.396   7.992  20.747  0.00  0.00    +0.000 A 
ATOM     11  C   UNL     1       0.793   9.205  21.101  0.00  0.00    +0.000 A 
ATOM     12 BR   UNL     1       0.109   9.389  22.860  0.00  0.00    +0.000 Br
BRANCH   8  13
ATOM     13  O   UNL     1       2.241   8.875  17.311  0.00  0.00    +0.000 OA
ATOM     14  H   UNL     1       3.015   8.289  17.433  0.00  0.00    +0.000 HD
ENDBRANCH   8  13
ENDBRANCH   1   9
BRANCH   3  15
ATOM     15  C   UNL     1       4.225   4.793  19.577  0.00  0.00    +0.000 C 
BRANCH  15  16
ATOM     16  C   UNL     1       5.605   5.000  18.955  0.00  0.00    +0.000 C 
BRANCH  16  17
ATOM     17  N   UNL     1       5.537   5.303  17.543  0.00  0.00    +0.000 N 
ATOM     18  C   UNL     1       5.365   4.418  16.519  0.00  0.00    +0.000 A 
ATOM     19  C   UNL     1       5.417   5.187  15.377  0.00  0.00    +0.000 A 
ATOM     20  N   UNL     1       5.618   6.507  15.689  0.00  0.00    +0.000 NA
ATOM     21  C   UNL     1       5.699   6.544  16.998  0.00  0.00    +0.000 A 
ENDBRANCH  16  17
ENDBRANCH  15  16
ENDBRANCH   3  15
TORSDOF 5
ENDMDL
