MODEL 1
REMARK VINA RESULT:      -7.6      0.000      0.000
REMARK  Name = 
REMARK  8 active torsions:
REMARK  status: ('A' for Active; 'I' for Inactive)
REMARK    1  A    between atoms: C_1  and  C_2
REMARK    2  A    between atoms: C_2  and  C_3
REMARK    3  A    between atoms: C_2  and  C_4
REMARK    4  A    between atoms: C_15  and  C_17
REMARK    5  A    between atoms: C_17  and  N_18
REMARK    6  A    between atoms: N_18  and  C_19
REMARK    7  A    between atoms: C_19  and  C_20
REMARK    8  A    between atoms: C_20  and  O_21
REMARK                            x       y       z     vdW  Elec       q    Type
REMARK                         _______ _______ _______ _____ _____    ______ ____
ROOT
ATOM      1  C   UNL     1       3.124   6.444  18.088  0.00  0.00    +0.000 C 
ATOM      2  C   UNL     1       2.514   5.065  18.393  0.00  0.00    +0.000 A 
ATOM      3  C   UNL     1       2.729   3.991  17.505  0.00  0.00    +0.000 A 
ATOM      4  C   UNL     1       2.225   2.715  17.785  0.00  0.00    +0.000 A 
ATOM      5  C   UNL     1       1.496   2.516  18.948  0.00  0.00    +0.000 A 
ATOM      6  F   UNL     1       1.023   1.290  19.226  0.00  0.00    +0.000 F 
ATOM      7  C   UNL     1       1.228   3.560  19.815  0.00  0.00    +0.000 A 
ATOM      8  C   UNL     1       1.724   4.844  19.544  0.00  0.00    +0.000 A 
ATOM      9  C   UNL     1       1.322   5.986  20.441  0.00  0.00    +0.000 C 
ATOM     10  C   UNL     1       2.293   7.153  20.332  0.00  0.00    +0.000 C 
ATOM     11  N   UNL     1       2.519   7.501  18.931  0.00  0.00    +0.000 N 
ATOM     12  C   UNL     1       1.944   8.604  18.296  0.00  0.00    +0.000 C 
ATOM     13  O   UNL     1       2.083   8.791  17.081  0.00  0.00    +0.000 OA
ENDROOT
BRANCH   1  15
ATOM     14  C   UNL     1       5.293   5.372  18.987  0.00  0.00    +0.000 C 
ATOM     15  C   UNL     1       4.692   6.444  18.072  0.00  0.00    +0.000 C 
ATOM     16  C   UNL     1       5.341   6.339  16.688  0.00  0.00    +0.000 C 
ENDBRANCH   1  15
BRANCH  12  17
ATOM     17  C   UNL     1       1.064   9.561  19.143  0.00  0.00    +0.000 C 
BRANCH  17  18
ATOM     18  N   UNL     1       0.315  10.458  18.241  0.00  0.00    +0.000 NA
ATOM     19  H   UNL     1       0.566  10.205  17.283  0.00  0.00    +0.000 HD
BRANCH  18  20
ATOM     20  C   UNL     1      -1.140  10.416  18.442  0.00  0.00    +0.000 C 
BRANCH  20  21
ATOM     21  C   UNL     1      -1.848  11.628  17.749  0.00  0.00    +0.000 C 
ATOM     22  C   UNL     1      -2.540  11.273  16.424  0.00  0.00    +0.000 C 
ATOM     23  C   UNL     1      -3.762  10.382  16.608  0.00  0.00    +0.000 C 
ATOM     24  C   UNL     1      -4.755  10.939  17.624  0.00  0.00    +0.000 C 
ATOM     25  C   UNL     1      -4.120  11.455  18.914  0.00  0.00    +0.000 C 
ATOM     26  C   UNL     1      -2.872  12.300  18.677  0.00  0.00    +0.000 C 
BRANCH  21  27
ATOM     27  O   UNL     1      -0.847  12.615  17.450  0.00  0.00    +0.000 OA
ATOM     28  H   UNL     1      -0.147  12.135  16.963  0.00  0.00    +0.000 HD
ENDBRANCH  21  27
ENDBRANCH  20  21
ENDBRANCH  18  20
ENDBRANCH  17  18
ENDBRANCH  12  17
TORSDOF 6
ENDMDL
MODEL 2
REMARK VINA RESULT:      -7.6      1.340      2.111
REMARK  Name = 
REMARK  8 active torsions:
REMARK  status: ('A' for Active; 'I' for Inactive)
REMARK    1  A    between atoms: C_1  and  C_2
REMARK    2  A    between atoms: C_2  and  C_3
REMARK    3  A    between atoms: C_2  and  C_4
REMARK    4  A    between atoms: C_15  and  C_17
REMARK    5  A    between atoms: C_17  and  N_18
REMARK    6  A    between atoms: N_18  and  C_19
REMARK    7  A    between atoms: C_19  and  C_20
REMARK    8  A    between atoms: C_20  and  O_21
REMARK                            x       y       z     vdW  Elec       q    Type
REMARK                         _______ _______ _______ _____ _____    ______ ____
ROOT
ATOM      1  C   UNL     1       3.240   6.255  18.044  0.00  0.00    +0.000 C 
ATOM      2  C   UNL     1       2.610   4.880  18.329  0.00  0.00    +0.000 A 
ATOM      3  C   UNL     1       2.813   3.815  17.428  0.00  0.00    +0.000 A 
ATOM      4  C   UNL     1       2.290   2.543  17.691  0.00  0.00    +0.000 A 
ATOM      5  C   UNL     1       1.555   2.339  18.849  0.00  0.00    +0.000 A 
ATOM      6  F   UNL     1       1.065   1.116  19.110  0.00  0.00    +0.000 F 
ATOM      7  C   UNL     1       1.299   3.375  19.728  0.00  0.00    +0.000 A 
ATOM      8  C   UNL     1       1.814   4.656  19.476  0.00  0.00    +0.000 A 
ATOM      9  C   UNL     1       1.424   5.792  20.386  0.00  0.00    +0.000 C 
ATOM     10  C   UNL     1       2.412   6.947  20.295  0.00  0.00    +0.000 C 
ATOM     11  N   UNL     1       2.647   7.309  18.899  0.00  0.00    +0.000 N 
ATOM     12  C   UNL     1       2.089   8.428  18.276  0.00  0.00    +0.000 C 
ATOM     13  O   UNL     1       2.235   8.629  17.064  0.00  0.00    +0.000 OA
ENDROOT
BRANCH   1  15
ATOM     14  C   UNL     1       5.393   5.207  19.009  0.00  0.00    +0.000 C 
ATOM     15  C   UNL     1       4.808   6.233  18.032  0.00  0.00    +0.000 C 
ATOM     16  C   UNL     1       5.458   6.041  16.659  0.00  0.00    +0.000 C 
ENDBRANCH   1  15
BRANCH  12  17
ATOM     17  C   UNL     1       1.220   9.387  19.132  0.00  0.00    +0.000 C 
BRANCH  17  18
ATOM     18  N   UNL     1       0.493  10.311  18.240  0.00  0.00    +0.000 NA
ATOM     19  H   UNL     1       0.460   9.877  17.316  0.00  0.00    +0.000 HD
BRANCH  18  20
ATOM     20  C   UNL     1      -0.853  10.656  18.719  0.00  0.00    +0.000 C 
BRANCH  20  21
ATOM     21  C   UNL     1      -1.048  12.207  18.804  0.00  0.00    +0.000 C 
ATOM     22  C   UNL     1      -2.256  12.638  19.651  0.00  0.00    +0.000 C 
ATOM     23  C   UNL     1      -2.074  12.359  21.137  0.00  0.00    +0.000 C 
ATOM     24  C   UNL     1      -0.771  12.928  21.693  0.00  0.00    +0.000 C 
ATOM     25  C   UNL     1       0.457  12.668  20.822  0.00  0.00    +0.000 C 
ATOM     26  C   UNL     1       0.207  12.915  19.337  0.00  0.00    +0.000 C 
BRANCH  21  27
ATOM     27  O   UNL     1      -1.271  12.700  17.473  0.00  0.00    +0.000 OA
ATOM     28  H   UNL     1      -0.428  12.555  16.997  0.00  0.00    +0.000 HD
ENDBRANCH  21  27
ENDBRANCH  20  21
ENDBRANCH  18  20
ENDBRANCH  17  18
ENDBRANCH  12  17
TORSDOF 6
ENDMDL
MODEL 3
REMARK VINA RESULT:      -7.6      5.943      8.257
REMARK  Name = 
REMARK  8 active torsions:
REMARK  status: ('A' for Active; 'I' for Inactive)
REMARK    1  A    between atoms: C_1  and  C_2
REMARK    2  A    between atoms: C_2  and  C_3
REMARK    3  A    between atoms: C_2  and  C_4
REMARK    4  A    between atoms: C_15  and  C_17
REMARK    5  A    between atoms: C_17  and  N_18
REMARK    6  A    between atoms: N_18  and  C_19
REMARK    7  A    between atoms: C_19  and  C_20
REMARK    8  A    between atoms: C_20  and  O_21
REMARK                            x       y       z     vdW  Elec       q    Type
REMARK                         _______ _______ _______ _____ _____    ______ ____
ROOT
ATOM      1  C   UNL     1       5.495   5.439  16.572  0.00  0.00    +0.000 C 
ATOM      2  C   UNL     1       4.601   4.618  17.518  0.00  0.00    +0.000 A 
ATOM      3  C   UNL     1       3.269   4.335  17.155  0.00  0.00    +0.000 A 
ATOM      4  C   UNL     1       2.452   3.549  17.978  0.00  0.00    +0.000 A 
ATOM      5  C   UNL     1       2.964   3.058  19.169  0.00  0.00    +0.000 A 
ATOM      6  F   UNL     1       2.187   2.292  19.953  0.00  0.00    +0.000 F 
ATOM      7  C   UNL     1       4.251   3.358  19.575  0.00  0.00    +0.000 A 
ATOM      8  C   UNL     1       5.080   4.147  18.762  0.00  0.00    +0.000 A 
ATOM      9  C   UNL     1       6.435   4.556  19.279  0.00  0.00    +0.000 C 
ATOM     10  C   UNL     1       7.370   4.955  18.146  0.00  0.00    +0.000 C 
ATOM     11  N   UNL     1       6.717   5.915  17.260  0.00  0.00    +0.000 N 
ATOM     12  C   UNL     1       6.983   7.286  17.258  0.00  0.00    +0.000 C 
ATOM     13  O   UNL     1       6.326   8.069  16.562  0.00  0.00    +0.000 OA
ENDROOT
BRANCH   1  15
ATOM     14  C   UNL     1       7.044   5.219  14.519  0.00  0.00    +0.000 C 
ATOM     15  C   UNL     1       5.756   4.736  15.194  0.00  0.00    +0.000 C 
ATOM     16  C   UNL     1       5.750   3.205  15.219  0.00  0.00    +0.000 C 
ENDBRANCH   1  15
BRANCH  12  17
ATOM     17  C   UNL     1       8.089   7.819  18.208  0.00  0.00    +0.000 C 
BRANCH  17  18
ATOM     18  N   UNL     1       8.239   9.274  18.011  0.00  0.00    +0.000 NA
ATOM     19  H   UNL     1       7.305   9.685  18.060  0.00  0.00    +0.000 HD
BRANCH  18  20
ATOM     20  C   UNL     1       9.154   9.908  18.970  0.00  0.00    +0.000 C 
BRANCH  20  21
ATOM     21  C   UNL     1       9.418  11.407  18.603  0.00  0.00    +0.000 C 
ATOM     22  C   UNL     1       9.373  12.361  19.807  0.00  0.00    +0.000 C 
ATOM     23  C   UNL     1      10.537  12.164  20.770  0.00  0.00    +0.000 C 
ATOM     24  C   UNL     1      11.895  12.206  20.075  0.00  0.00    +0.000 C 
ATOM     25  C   UNL     1      11.971  11.397  18.781  0.00  0.00    +0.000 C 
ATOM     26  C   UNL     1      10.758  11.592  17.876  0.00  0.00    +0.000 C 
BRANCH  21  27
ATOM     27  O   UNL     1       8.388  11.829  17.694  0.00  0.00    +0.000 OA
ATOM     28  H   UNL     1       8.854  12.074  16.869  0.00  0.00    +0.000 HD
ENDBRANCH  21  27
ENDBRANCH  20  21
ENDBRANCH  18  20
ENDBRANCH  17  18
ENDBRANCH  12  17
TORSDOF 6
ENDMDL
MODEL 4
REMARK VINA RESULT:      -7.5      3.302      8.125
REMARK  Name = 
REMARK  8 active torsions:
REMARK  status: ('A' for Active; 'I' for Inactive)
REMARK    1  A    between atoms: C_1  and  C_2
REMARK    2  A    between atoms: C_2  and  C_3
REMARK    3  A    between atoms: C_2  and  C_4
REMARK    4  A    between atoms: C_15  and  C_17
REMARK    5  A    between atoms: C_17  and  N_18
REMARK    6  A    between atoms: N_18  and  C_19
REMARK    7  A    between atoms: C_19  and  C_20
REMARK    8  A    between atoms: C_20  and  O_21
REMARK                            x       y       z     vdW  Elec       q    Type
REMARK                         _______ _______ _______ _____ _____    ______ ____
ROOT
ATOM      1  C   UNL     1       0.175  10.614  20.112  0.00  0.00    +0.000 C 
ATOM      2  C   UNL     1      -1.009  10.789  19.145  0.00  0.00    +0.000 A 
ATOM      3  C   UNL     1      -2.146  11.516  19.553  0.00  0.00    +0.000 A 
ATOM      4  C   UNL     1      -3.216  11.729  18.674  0.00  0.00    +0.000 A 
ATOM      5  C   UNL     1      -3.152  11.204  17.392  0.00  0.00    +0.000 A 
ATOM      6  F   UNL     1      -4.171  11.420  16.543  0.00  0.00    +0.000 F 
ATOM      7  C   UNL     1      -2.072  10.447  16.978  0.00  0.00    +0.000 A 
ATOM      8  C   UNL     1      -0.995  10.224  17.849  0.00  0.00    +0.000 A 
ATOM      9  C   UNL     1       0.115   9.301  17.417  0.00  0.00    +0.000 C 
ATOM     10  C   UNL     1       1.390   9.546  18.211  0.00  0.00    +0.000 C 
ATOM     11  N   UNL     1       1.104   9.560  19.644  0.00  0.00    +0.000 N 
ATOM     12  C   UNL     1       1.393   8.504  20.510  0.00  0.00    +0.000 C 
ATOM     13  O   UNL     1       1.034   8.525  21.693  0.00  0.00    +0.000 OA
ENDROOT
BRANCH   1  15
ATOM     14  C   UNL     1       1.105  12.879  19.291  0.00  0.00    +0.000 C 
ATOM     15  C   UNL     1       0.869  11.967  20.500  0.00  0.00    +0.000 C 
ATOM     16  C   UNL     1       0.180  12.772  21.605  0.00  0.00    +0.000 C 
ENDBRANCH   1  15
BRANCH  12  17
ATOM     17  C   UNL     1       2.126   7.263  19.934  0.00  0.00    +0.000 C 
BRANCH  17  18
ATOM     18  N   UNL     1       2.097   6.175  20.932  0.00  0.00    +0.000 NA
ATOM     19  H   UNL     1       1.805   6.586  21.820  0.00  0.00    +0.000 HD
BRANCH  18  20
ATOM     20  C   UNL     1       1.232   5.049  20.552  0.00  0.00    +0.000 C 
BRANCH  20  21
ATOM     21  C   UNL     1       1.982   3.682  20.691  0.00  0.00    +0.000 C 
ATOM     22  C   UNL     1       1.164   2.471  20.214  0.00  0.00    +0.000 C 
ATOM     23  C   UNL     1       0.950   2.451  18.706  0.00  0.00    +0.000 C 
ATOM     24  C   UNL     1       2.251   2.590  17.919  0.00  0.00    +0.000 C 
ATOM     25  C   UNL     1       3.189   3.681  18.434  0.00  0.00    +0.000 C 
ATOM     26  C   UNL     1       3.329   3.689  19.953  0.00  0.00    +0.000 C 
BRANCH  21  27
ATOM     27  O   UNL     1       2.269   3.472  22.083  0.00  0.00    +0.000 OA
ATOM     28  H   UNL     1       1.398   3.360  22.514  0.00  0.00    +0.000 HD
ENDBRANCH  21  27
ENDBRANCH  20  21
ENDBRANCH  18  20
ENDBRANCH  17  18
ENDBRANCH  12  17
TORSDOF 6
ENDMDL
MODEL 5
REMARK VINA RESULT:      -7.4      1.949      2.849
REMARK  Name = 
REMARK  8 active torsions:
REMARK  status: ('A' for Active; 'I' for Inactive)
REMARK    1  A    between atoms: C_1  and  C_2
REMARK    2  A    between atoms: C_2  and  C_3
REMARK    3  A    between atoms: C_2  and  C_4
REMARK    4  A    between atoms: C_15  and  C_17
REMARK    5  A    between atoms: C_17  and  N_18
REMARK    6  A    between atoms: N_18  and  C_19
REMARK    7  A    between atoms: C_19  and  C_20
REMARK    8  A    between atoms: C_20  and  O_21
REMARK                            x       y       z     vdW  Elec       q    Type
REMARK                         _______ _______ _______ _____ _____    ______ ____
ROOT
ATOM      1  C   UNL     1       3.067   6.474  18.031  0.00  0.00    +0.000 C 
ATOM      2  C   UNL     1       2.507   5.074  18.334  0.00  0.00    +0.000 A 
ATOM      3  C   UNL     1       2.679   4.032  17.400  0.00  0.00    +0.000 A 
ATOM      4  C   UNL     1       2.219   2.738  17.675  0.00  0.00    +0.000 A 
ATOM      5  C   UNL     1       1.577   2.490  18.879  0.00  0.00    +0.000 A 
ATOM      6  F   UNL     1       1.149   1.246  19.151  0.00  0.00    +0.000 F 
ATOM      7  C   UNL     1       1.352   3.501  19.795  0.00  0.00    +0.000 A 
ATOM      8  C   UNL     1       1.804   4.803  19.531  0.00  0.00    +0.000 A 
ATOM      9  C   UNL     1       1.444   5.909  20.489  0.00  0.00    +0.000 C 
ATOM     10  C   UNL     1       2.384   7.099  20.349  0.00  0.00    +0.000 C 
ATOM     11  N   UNL     1       2.504   7.493  18.947  0.00  0.00    +0.000 N 
ATOM     12  C   UNL     1       1.865   8.602  18.388  0.00  0.00    +0.000 C 
ATOM     13  O   UNL     1       1.915   8.829  17.174  0.00  0.00    +0.000 OA
ENDROOT
BRANCH   1  15
ATOM     14  C   UNL     1       5.317   5.462  18.790  0.00  0.00    +0.000 C 
ATOM     15  C   UNL     1       4.630   6.507  17.905  0.00  0.00    +0.000 C 
ATOM     16  C   UNL     1       5.184   6.395  16.482  0.00  0.00    +0.000 C 
ENDBRANCH   1  15
BRANCH  12  17
ATOM     17  C   UNL     1       1.030   9.515  19.324  0.00  0.00    +0.000 C 
BRANCH  17  18
ATOM     18  N   UNL     1       0.447  10.618  18.534  0.00  0.00    +0.000 NA
ATOM     19  H   UNL     1      -0.211  10.202  17.872  0.00  0.00    +0.000 HD
BRANCH  18  20
ATOM     20  C   UNL     1      -0.199  11.653  19.353  0.00  0.00    +0.000 C 
BRANCH  20  21
ATOM     21  C   UNL     1      -0.082  13.064  18.686  0.00  0.00    +0.000 C 
ATOM     22  C   UNL     1      -0.638  14.209  19.547  0.00  0.00    +0.000 C 
ATOM     23  C   UNL     1       0.201  14.484  20.789  0.00  0.00    +0.000 C 
ATOM     24  C   UNL     1       1.680  14.691  20.472  0.00  0.00    +0.000 C 
ATOM     25  C   UNL     1       2.268  13.673  19.497  0.00  0.00    +0.000 C 
ATOM     26  C   UNL     1       1.367  13.396  18.297  0.00  0.00    +0.000 C 
BRANCH  21  27
ATOM     27  O   UNL     1      -0.846  13.045  17.469  0.00  0.00    +0.000 OA
ATOM     28  H   UNL     1      -1.704  12.640  17.707  0.00  0.00    +0.000 HD
ENDBRANCH  21  27
ENDBRANCH  20  21
ENDBRANCH  18  20
ENDBRANCH  17  18
ENDBRANCH  12  17
TORSDOF 6
ENDMDL
MODEL 6
REMARK VINA RESULT:      -7.4      3.050      4.700
REMARK  Name = 
REMARK  8 active torsions:
REMARK  status: ('A' for Active; 'I' for Inactive)
REMARK    1  A    between atoms: C_1  and  C_2
REMARK    2  A    between atoms: C_2  and  C_3
REMARK    3  A    between atoms: C_2  and  C_4
REMARK    4  A    between atoms: C_15  and  C_17
REMARK    5  A    between atoms: C_17  and  N_18
REMARK    6  A    between atoms: N_18  and  C_19
REMARK    7  A    between atoms: C_19  and  C_20
REMARK    8  A    between atoms: C_20  and  O_21
REMARK                            x       y       z     vdW  Elec       q    Type
REMARK                         _______ _______ _______ _____ _____    ______ ____
ROOT
ATOM      1  C   UNL     1       4.100   4.485  19.263  0.00  0.00    +0.000 C 
ATOM      2  C   UNL     1       5.197   5.365  18.641  0.00  0.00    +0.000 A 
ATOM      3  C   UNL     1       6.553   5.022  18.813  0.00  0.00    +0.000 A 
ATOM      4  C   UNL     1       7.568   5.781  18.216  0.00  0.00    +0.000 A 
ATOM      5  C   UNL     1       7.225   6.890  17.456  0.00  0.00    +0.000 A 
ATOM      6  F   UNL     1       8.196   7.611  16.870  0.00  0.00    +0.000 F 
ATOM      7  C   UNL     1       5.907   7.279  17.307  0.00  0.00    +0.000 A 
ATOM      8  C   UNL     1       4.881   6.529  17.903  0.00  0.00    +0.000 A 
ATOM      9  C   UNL     1       3.464   7.038  17.825  0.00  0.00    +0.000 C 
ATOM     10  C   UNL     1       2.454   5.923  18.057  0.00  0.00    +0.000 C 
ATOM     11  N   UNL     1       2.790   5.176  19.267  0.00  0.00    +0.000 N 
ATOM     12  C   UNL     1       2.123   5.319  20.486  0.00  0.00    +0.000 C 
ATOM     13  O   UNL     1       2.515   4.740  21.506  0.00  0.00    +0.000 OA
ENDROOT
BRANCH   1  15
ATOM     14  C   UNL     1       4.309   1.959  19.754  0.00  0.00    +0.000 C 
ATOM     15  C   UNL     1       4.065   3.028  18.683  0.00  0.00    +0.000 C 
ATOM     16  C   UNL     1       2.807   2.660  17.890  0.00  0.00    +0.000 C 
ENDBRANCH   1  15
BRANCH  12  17
ATOM     17  C   UNL     1       0.906   6.280  20.547  0.00  0.00    +0.000 C 
BRANCH  17  18
ATOM     18  N   UNL     1       1.360   7.610  20.998  0.00  0.00    +0.000 NA
ATOM     19  H   UNL     1       2.030   7.953  20.305  0.00  0.00    +0.000 HD
BRANCH  18  20
ATOM     20  C   UNL     1       0.266   8.569  21.204  0.00  0.00    +0.000 C 
BRANCH  20  21
ATOM     21  C   UNL     1       0.634   9.985  20.648  0.00  0.00    +0.000 C 
ATOM     22  C   UNL     1       1.484   9.951  19.368  0.00  0.00    +0.000 C 
ATOM     23  C   UNL     1       0.719   9.433  18.157  0.00  0.00    +0.000 C 
ATOM     24  C   UNL     1      -0.602  10.165  17.931  0.00  0.00    +0.000 C 
ATOM     25  C   UNL     1      -1.436  10.371  19.194  0.00  0.00    +0.000 C 
ATOM     26  C   UNL     1      -0.615  10.842  20.390  0.00  0.00    +0.000 C 
BRANCH  21  27
ATOM     27  O   UNL     1       1.408  10.667  21.649  0.00  0.00    +0.000 OA
ATOM     28  H   UNL     1       1.144  11.607  21.585  0.00  0.00    +0.000 HD
ENDBRANCH  21  27
ENDBRANCH  20  21
ENDBRANCH  18  20
ENDBRANCH  17  18
ENDBRANCH  12  17
TORSDOF 6
ENDMDL
MODEL 7
REMARK VINA RESULT:      -7.4      3.770      5.173
REMARK  Name = 
REMARK  8 active torsions:
REMARK  status: ('A' for Active; 'I' for Inactive)
REMARK    1  A    between atoms: C_1  and  C_2
REMARK    2  A    between atoms: C_2  and  C_3
REMARK    3  A    between atoms: C_2  and  C_4
REMARK    4  A    between atoms: C_15  and  C_17
REMARK    5  A    between atoms: C_17  and  N_18
REMARK    6  A    between atoms: N_18  and  C_19
REMARK    7  A    between atoms: C_19  and  C_20
REMARK    8  A    between atoms: C_20  and  O_21
REMARK                            x       y       z     vdW  Elec       q    Type
REMARK                         _______ _______ _______ _____ _____    ______ ____
ROOT
ATOM      1  C   UNL     1       4.024   4.250  19.084  0.00  0.00    +0.000 C 
ATOM      2  C   UNL     1       5.117   5.146  18.475  0.00  0.00    +0.000 A 
ATOM      3  C   UNL     1       6.468   4.751  18.544  0.00  0.00    +0.000 A 
ATOM      4  C   UNL     1       7.474   5.526  17.955  0.00  0.00    +0.000 A 
ATOM      5  C   UNL     1       7.130   6.703  17.307  0.00  0.00    +0.000 A 
ATOM      6  F   UNL     1       8.092   7.441  16.729  0.00  0.00    +0.000 F 
ATOM      7  C   UNL     1       5.820   7.141  17.263  0.00  0.00    +0.000 A 
ATOM      8  C   UNL     1       4.801   6.376  17.852  0.00  0.00    +0.000 A 
ATOM      9  C   UNL     1       3.401   6.931  17.893  0.00  0.00    +0.000 C 
ATOM     10  C   UNL     1       2.368   5.831  18.091  0.00  0.00    +0.000 C 
ATOM     11  N   UNL     1       2.740   4.977  19.216  0.00  0.00    +0.000 N 
ATOM     12  C   UNL     1       2.143   5.038  20.477  0.00  0.00    +0.000 C 
ATOM     13  O   UNL     1       2.569   4.367  21.424  0.00  0.00    +0.000 OA
ENDROOT
BRANCH   1  15
ATOM     14  C   UNL     1       4.143   1.686  19.364  0.00  0.00    +0.000 C 
ATOM     15  C   UNL     1       3.910   2.847  18.392  0.00  0.00    +0.000 C 
ATOM     16  C   UNL     1       2.613   2.595  17.617  0.00  0.00    +0.000 C 
ENDBRANCH   1  15
BRANCH  12  17
ATOM     17  C   UNL     1       0.965   6.027  20.682  0.00  0.00    +0.000 C 
BRANCH  17  18
ATOM     18  N   UNL     1       1.502   7.358  21.029  0.00  0.00    +0.000 NA
ATOM     19  H   UNL     1       2.148   7.627  20.285  0.00  0.00    +0.000 HD
BRANCH  18  20
ATOM     20  C   UNL     1       0.464   8.378  21.231  0.00  0.00    +0.000 C 
BRANCH  20  21
ATOM     21  C   UNL     1       0.980   9.547  22.136  0.00  0.00    +0.000 C 
ATOM     22  C   UNL     1       1.072  10.900  21.414  0.00  0.00    +0.000 C 
ATOM     23  C   UNL     1      -0.290  11.483  21.061  0.00  0.00    +0.000 C 
ATOM     24  C   UNL     1      -1.235  11.552  22.258  0.00  0.00    +0.000 C 
ATOM     25  C   UNL     1      -1.265  10.288  23.116  0.00  0.00    +0.000 C 
ATOM     26  C   UNL     1       0.121   9.717  23.398  0.00  0.00    +0.000 C 
BRANCH  21  27
ATOM     27  O   UNL     1       2.307   9.214  22.576  0.00  0.00    +0.000 OA
ATOM     28  H   UNL     1       2.199   8.853  23.479  0.00  0.00    +0.000 HD
ENDBRANCH  21  27
ENDBRANCH  20  21
ENDBRANCH  18  20
ENDBRANCH  17  18
ENDBRANCH  12  17
TORSDOF 6
ENDMDL
MODEL 8
REMARK VINA RESULT:      -7.2      3.073      7.837
REMARK  Name = 
REMARK  8 active torsions:
REMARK  status: ('A' for Active; 'I' for Inactive)
REMARK    1  A    between atoms: C_1  and  C_2
REMARK    2  A    between atoms: C_2  and  C_3
REMARK    3  A    between atoms: C_2  and  C_4
REMARK    4  A    between atoms: C_15  and  C_17
REMARK    5  A    between atoms: C_17  and  N_18
REMARK    6  A    between atoms: N_18  and  C_19
REMARK    7  A    between atoms: C_19  and  C_20
REMARK    8  A    between atoms: C_20  and  O_21
REMARK                            x       y       z     vdW  Elec       q    Type
REMARK                         _______ _______ _______ _____ _____    ______ ____
ROOT
ATOM      1  C   UNL     1      -1.139  11.268  20.105  0.00  0.00    +0.000 C 
ATOM      2  C   UNL     1      -1.848  10.865  18.801  0.00  0.00    +0.000 A 
ATOM      3  C   UNL     1      -3.218  11.152  18.630  0.00  0.00    +0.000 A 
ATOM      4  C   UNL     1      -3.874  10.838  17.433  0.00  0.00    +0.000 A 
ATOM      5  C   UNL     1      -3.161  10.226  16.412  0.00  0.00    +0.000 A 
ATOM      6  F   UNL     1      -3.785   9.937  15.257  0.00  0.00    +0.000 F 
ATOM      7  C   UNL     1      -1.829   9.890  16.566  0.00  0.00    +0.000 A 
ATOM      8  C   UNL     1      -1.161  10.196  17.762  0.00  0.00    +0.000 A 
ATOM      9  C   UNL     1       0.255   9.716  17.951  0.00  0.00    +0.000 C 
ATOM     10  C   UNL     1       0.981  10.518  19.021  0.00  0.00    +0.000 C 
ATOM     11  N   UNL     1       0.174  10.595  20.237  0.00  0.00    +0.000 N 
ATOM     12  C   UNL     1       0.415   9.838  21.386  0.00  0.00    +0.000 C 
ATOM     13  O   UNL     1      -0.361   9.863  22.347  0.00  0.00    +0.000 OA
ENDROOT
BRANCH   1  15
ATOM     14  C   UNL     1      -0.359  13.203  21.626  0.00  0.00    +0.000 C 
ATOM     15  C   UNL     1      -1.101  12.818  20.342  0.00  0.00    +0.000 C 
ATOM     16  C   UNL     1      -0.553  13.653  19.181  0.00  0.00    +0.000 C 
ENDBRANCH   1  15
BRANCH  12  17
ATOM     17  C   UNL     1       1.656   8.906  21.402  0.00  0.00    +0.000 C 
BRANCH  17  18
ATOM     18  N   UNL     1       1.263   7.565  20.927  0.00  0.00    +0.000 NA
ATOM     19  H   UNL     1       0.274   7.611  20.672  0.00  0.00    +0.000 HD
BRANCH  18  20
ATOM     20  C   UNL     1       2.081   7.072  19.810  0.00  0.00    +0.000 C 
BRANCH  20  21
ATOM     21  C   UNL     1       2.530   5.591  20.041  0.00  0.00    +0.000 C 
ATOM     22  C   UNL     1       1.637   4.552  19.344  0.00  0.00    +0.000 C 
ATOM     23  C   UNL     1       1.757   4.583  17.826  0.00  0.00    +0.000 C 
ATOM     24  C   UNL     1       3.202   4.490  17.343  0.00  0.00    +0.000 C 
ATOM     25  C   UNL     1       4.182   5.388  18.096  0.00  0.00    +0.000 C 
ATOM     26  C   UNL     1       3.986   5.359  19.609  0.00  0.00    +0.000 C 
BRANCH  21  27
ATOM     27  O   UNL     1       2.465   5.322  21.451  0.00  0.00    +0.000 OA
ATOM     28  H   UNL     1       1.624   4.840  21.585  0.00  0.00    +0.000 HD
ENDBRANCH  21  27
ENDBRANCH  20  21
ENDBRANCH  18  20
ENDBRANCH  17  18
ENDBRANCH  12  17
TORSDOF 6
ENDMDL
MODEL 9
REMARK VINA RESULT:      -7.1      3.209      8.059
REMARK  Name = 
REMARK  8 active torsions:
REMARK  status: ('A' for Active; 'I' for Inactive)
REMARK    1  A    between atoms: C_1  and  C_2
REMARK    2  A    between atoms: C_2  and  C_3
REMARK    3  A    between atoms: C_2  and  C_4
REMARK    4  A    between atoms: C_15  and  C_17
REMARK    5  A    between atoms: C_17  and  N_18
REMARK    6  A    between atoms: N_18  and  C_19
REMARK    7  A    between atoms: C_19  and  C_20
REMARK    8  A    between atoms: C_20  and  O_21
REMARK                            x       y       z     vdW  Elec       q    Type
REMARK                         _______ _______ _______ _____ _____    ______ ____
ROOT
ATOM      1  C   UNL     1      -0.532  10.549  20.087  0.00  0.00    +0.000 C 
ATOM      2  C   UNL     1      -1.523  10.559  18.910  0.00  0.00    +0.000 A 
ATOM      3  C   UNL     1      -2.810  11.108  19.081  0.00  0.00    +0.000 A 
ATOM      4  C   UNL     1      -3.712  11.172  18.011  0.00  0.00    +0.000 A 
ATOM      5  C   UNL     1      -3.330  10.676  16.773  0.00  0.00    +0.000 A 
ATOM      6  F   UNL     1      -4.188  10.750  15.742  0.00  0.00    +0.000 F 
ATOM      7  C   UNL     1      -2.092  10.089  16.586  0.00  0.00    +0.000 A 
ATOM      8  C   UNL     1      -1.180  10.016  17.650  0.00  0.00    +0.000 A 
ATOM      9  C   UNL     1       0.114   9.269  17.453  0.00  0.00    +0.000 C 
ATOM     10  C   UNL     1       1.165   9.689  18.471  0.00  0.00    +0.000 C 
ATOM     11  N   UNL     1       0.611   9.646  19.823  0.00  0.00    +0.000 N 
ATOM     12  C   UNL     1       0.880   8.634  20.747  0.00  0.00    +0.000 C 
ATOM     13  O   UNL     1       0.302   8.590  21.839  0.00  0.00    +0.000 OA
ENDROOT
BRANCH   1  15
ATOM     14  C   UNL     1      -0.677  12.310  21.969  0.00  0.00    +0.000 C 
ATOM     15  C   UNL     1      -0.129  11.984  20.576  0.00  0.00    +0.000 C 
ATOM     16  C   UNL     1       1.370  12.298  20.544  0.00  0.00    +0.000 C 
ENDBRANCH   1  15
BRANCH  12  17
ATOM     17  C   UNL     1       1.881   7.519  20.342  0.00  0.00    +0.000 C 
BRANCH  17  18
ATOM     18  N   UNL     1       1.380   6.217  20.825  0.00  0.00    +0.000 NA
ATOM     19  H   UNL     1       0.492   6.039  20.351  0.00  0.00    +0.000 HD
BRANCH  18  20
ATOM     20  C   UNL     1       2.325   5.110  20.626  0.00  0.00    +0.000 C 
BRANCH  20  21
ATOM     21  C   UNL     1       1.648   3.906  19.890  0.00  0.00    +0.000 C 
ATOM     22  C   UNL     1       1.460   4.123  18.380  0.00  0.00    +0.000 C 
ATOM     23  C   UNL     1       2.774   4.139  17.610  0.00  0.00    +0.000 C 
ATOM     24  C   UNL     1       3.643   2.916  17.894  0.00  0.00    +0.000 C 
ATOM     25  C   UNL     1       3.753   2.546  19.372  0.00  0.00    +0.000 C 
ATOM     26  C   UNL     1       2.418   2.595  20.108  0.00  0.00    +0.000 C 
BRANCH  21  27
ATOM     27  O   UNL     1       0.339   3.720  20.454  0.00  0.00    +0.000 OA
ATOM     28  H   UNL     1       0.284   2.769  20.673  0.00  0.00    +0.000 HD
ENDBRANCH  21  27
ENDBRANCH  20  21
ENDBRANCH  18  20
ENDBRANCH  17  18
ENDBRANCH  12  17
TORSDOF 6
ENDMDL
