MODEL 1
REMARK VINA RESULT:      -7.4      0.000      0.000
REMARK  Name = 
REMARK  4 active torsions:
REMARK  status: ('A' for Active; 'I' for Inactive)
REMARK    1  A    between atoms: C_1  and  N_2
REMARK    2  A    between atoms: N_7  and  N_8
REMARK    3  A    between atoms: C_9  and  C_11
REMARK    4  A    between atoms: C_11  and  C_12
REMARK                            x       y       z     vdW  Elec       q    Type
REMARK                         _______ _______ _______ _____ _____    ______ ____
ROOT
ATOM      1  C   UNL     1      -1.078  13.972  23.185  0.00  0.00    +0.000 C 
ATOM      2  N   UNL     1      -0.606  13.129  22.115  0.00  0.00    +0.000 N 
ATOM      3  N   UNL     1      -0.289  13.663  20.914  0.00  0.00    +0.000 NA
ATOM      4  C   UNL     1       0.112  12.603  20.204  0.00  0.00    +0.000 A 
ATOM      5  C   UNL     1       0.061  11.395  20.936  0.00  0.00    +0.000 A 
ATOM      6  C   UNL     1       0.356  10.038  20.734  0.00  0.00    +0.000 A 
ATOM      7  N   UNL     1       0.821   9.540  19.500  0.00  0.00    +0.000 N 
ATOM      8  N   UNL     1       0.131   9.186  21.776  0.00  0.00    +0.000 NA
ATOM      9  C   UNL     1      -0.355   9.688  22.931  0.00  0.00    +0.000 A 
ATOM     10  N   UNL     1      -0.652  10.966  23.226  0.00  0.00    +0.000 NA
ATOM     11  C   UNL     1      -0.418  11.773  22.179  0.00  0.00    +0.000 A 
ATOM     12  H   UNL     1       1.237  10.265  18.909  0.00  0.00    +0.000 HD
ENDROOT
BRANCH   7  13
ATOM     13  N   UNL     1       1.673   8.425  19.630  0.00  0.00    +0.000 N 
ATOM     14  C   UNL     1       2.284   7.975  18.472  0.00  0.00    +0.000 C 
ATOM     15  O   UNL     1       2.187   8.578  17.401  0.00  0.00    +0.000 OA
ATOM     16  H   UNL     1       1.511   7.836  20.442  0.00  0.00    +0.000 HD
BRANCH  14  17
ATOM     17  C   UNL     1       3.121   6.721  18.634  0.00  0.00    +0.000 C 
BRANCH  17  18
ATOM     18  C   UNL     1       2.334   5.484  18.991  0.00  0.00    +0.000 A 
ATOM     19  C   UNL     1       1.883   4.606  17.994  0.00  0.00    +0.000 A 
ATOM     20  C   UNL     1       1.197   3.437  18.335  0.00  0.00    +0.000 A 
ATOM     21  C   UNL     1       0.961   3.129  19.672  0.00  0.00    +0.000 A 
ATOM     22  C   UNL     1       1.412   3.988  20.671  0.00  0.00    +0.000 A 
ATOM     23  C   UNL     1       2.097   5.157  20.334  0.00  0.00    +0.000 A 
ENDBRANCH  17  18
ENDBRANCH  14  17
ENDBRANCH   7  13
TORSDOF 3
ENDMDL
MODEL 2
REMARK VINA RESULT:      -7.4      6.030      8.913
REMARK  Name = 
REMARK  4 active torsions:
REMARK  status: ('A' for Active; 'I' for Inactive)
REMARK    1  A    between atoms: C_1  and  N_2
REMARK    2  A    between atoms: N_7  and  N_8
REMARK    3  A    between atoms: C_9  and  C_11
REMARK    4  A    between atoms: C_11  and  C_12
REMARK                            x       y       z     vdW  Elec       q    Type
REMARK                         _______ _______ _______ _____ _____    ______ ____
ROOT
ATOM      1  C   UNL     1       1.695   2.712  21.604  0.00  0.00    +0.000 C 
ATOM      2  N   UNL     1       2.780   2.781  20.659  0.00  0.00    +0.000 N 
ATOM      3  N   UNL     1       3.823   1.925  20.752  0.00  0.00    +0.000 NA
ATOM      4  C   UNL     1       4.599   2.276  19.722  0.00  0.00    +0.000 A 
ATOM      5  C   UNL     1       4.067   3.344  18.965  0.00  0.00    +0.000 A 
ATOM      6  C   UNL     1       4.409   4.090  17.827  0.00  0.00    +0.000 A 
ATOM      7  N   UNL     1       5.607   3.878  17.114  0.00  0.00    +0.000 N 
ATOM      8  N   UNL     1       3.552   5.082  17.448  0.00  0.00    +0.000 NA
ATOM      9  C   UNL     1       2.435   5.288  18.176  0.00  0.00    +0.000 A 
ATOM     10  N   UNL     1       2.014   4.620  19.265  0.00  0.00    +0.000 NA
ATOM     11  C   UNL     1       2.881   3.654  19.608  0.00  0.00    +0.000 A 
ATOM     12  H   UNL     1       6.010   2.952  17.280  0.00  0.00    +0.000 HD
ENDROOT
BRANCH   7  13
ATOM     13  N   UNL     1       5.497   4.157  15.737  0.00  0.00    +0.000 N 
ATOM     14  C   UNL     1       6.658   4.547  15.092  0.00  0.00    +0.000 C 
ATOM     15  O   UNL     1       7.756   4.544  15.653  0.00  0.00    +0.000 OA
ATOM     16  H   UNL     1       4.566   4.392  15.405  0.00  0.00    +0.000 HD
BRANCH  14  17
ATOM     17  C   UNL     1       6.485   4.926  13.633  0.00  0.00    +0.000 C 
BRANCH  17  18
ATOM     18  C   UNL     1       6.335   3.753  12.696  0.00  0.00    +0.000 A 
ATOM     19  C   UNL     1       5.066   3.306  12.301  0.00  0.00    +0.000 A 
ATOM     20  C   UNL     1       4.934   2.250  11.394  0.00  0.00    +0.000 A 
ATOM     21  C   UNL     1       6.068   1.636  10.867  0.00  0.00    +0.000 A 
ATOM     22  C   UNL     1       7.334   2.076  11.245  0.00  0.00    +0.000 A 
ATOM     23  C   UNL     1       7.468   3.130  12.151  0.00  0.00    +0.000 A 
ENDBRANCH  17  18
ENDBRANCH  14  17
ENDBRANCH   7  13
TORSDOF 3
ENDMDL
MODEL 3
REMARK VINA RESULT:      -7.2      5.933      8.872
REMARK  Name = 
REMARK  4 active torsions:
REMARK  status: ('A' for Active; 'I' for Inactive)
REMARK    1  A    between atoms: C_1  and  N_2
REMARK    2  A    between atoms: N_7  and  N_8
REMARK    3  A    between atoms: C_9  and  C_11
REMARK    4  A    between atoms: C_11  and  C_12
REMARK                            x       y       z     vdW  Elec       q    Type
REMARK                         _______ _______ _______ _____ _____    ______ ____
ROOT
ATOM      1  C   UNL     1       1.812   2.867  21.778  0.00  0.00    +0.000 C 
ATOM      2  N   UNL     1       2.853   2.909  20.782  0.00  0.00    +0.000 N 
ATOM      3  N   UNL     1       3.871   2.019  20.822  0.00  0.00    +0.000 NA
ATOM      4  C   UNL     1       4.609   2.352  19.757  0.00  0.00    +0.000 A 
ATOM      5  C   UNL     1       4.076   3.442  19.032  0.00  0.00    +0.000 A 
ATOM      6  C   UNL     1       4.387   4.184  17.883  0.00  0.00    +0.000 A 
ATOM      7  N   UNL     1       5.542   3.939  17.113  0.00  0.00    +0.000 N 
ATOM      8  N   UNL     1       3.545   5.205  17.550  0.00  0.00    +0.000 NA
ATOM      9  C   UNL     1       2.470   5.441  18.331  0.00  0.00    +0.000 A 
ATOM     10  N   UNL     1       2.080   4.780  19.436  0.00  0.00    +0.000 NA
ATOM     11  C   UNL     1       2.932   3.785  19.732  0.00  0.00    +0.000 A 
ATOM     12  H   UNL     1       5.923   3.000  17.255  0.00  0.00    +0.000 HD
ENDROOT
BRANCH   7  13
ATOM     13  N   UNL     1       5.376   4.231  15.744  0.00  0.00    +0.000 N 
ATOM     14  C   UNL     1       6.525   4.535  15.034  0.00  0.00    +0.000 C 
ATOM     15  O   UNL     1       7.649   4.447  15.532  0.00  0.00    +0.000 OA
ATOM     16  H   UNL     1       4.448   4.537  15.465  0.00  0.00    +0.000 HD
BRANCH  14  17
ATOM     17  C   UNL     1       6.298   4.930  13.587  0.00  0.00    +0.000 C 
BRANCH  17  18
ATOM     18  C   UNL     1       6.317   3.778  12.613  0.00  0.00    +0.000 A 
ATOM     19  C   UNL     1       7.527   3.290  12.099  0.00  0.00    +0.000 A 
ATOM     20  C   UNL     1       7.541   2.191  11.235  0.00  0.00    +0.000 A 
ATOM     21  C   UNL     1       6.349   1.564  10.882  0.00  0.00    +0.000 A 
ATOM     22  C   UNL     1       5.141   2.033  11.394  0.00  0.00    +0.000 A 
ATOM     23  C   UNL     1       5.124   3.131  12.256  0.00  0.00    +0.000 A 
ENDBRANCH  17  18
ENDBRANCH  14  17
ENDBRANCH   7  13
TORSDOF 3
ENDMDL
MODEL 4
REMARK VINA RESULT:      -7.2      2.360      3.660
REMARK  Name = 
REMARK  4 active torsions:
REMARK  status: ('A' for Active; 'I' for Inactive)
REMARK    1  A    between atoms: C_1  and  N_2
REMARK    2  A    between atoms: N_7  and  N_8
REMARK    3  A    between atoms: C_9  and  C_11
REMARK    4  A    between atoms: C_11  and  C_12
REMARK                            x       y       z     vdW  Elec       q    Type
REMARK                         _______ _______ _______ _____ _____    ______ ____
ROOT
ATOM      1  C   UNL     1      -1.172  12.350  21.990  0.00  0.00    +0.000 C 
ATOM      2  N   UNL     1      -0.466  11.094  22.020  0.00  0.00    +0.000 N 
ATOM      3  N   UNL     1      -0.408  10.370  23.161  0.00  0.00    +0.000 NA
ATOM      4  C   UNL     1       0.299   9.292  22.804  0.00  0.00    +0.000 A 
ATOM      5  C   UNL     1       0.692   9.312  21.447  0.00  0.00    +0.000 A 
ATOM      6  C   UNL     1       1.399   8.495  20.552  0.00  0.00    +0.000 A 
ATOM      7  N   UNL     1       1.986   7.274  20.943  0.00  0.00    +0.000 N 
ATOM      8  N   UNL     1       1.546   8.947  19.273  0.00  0.00    +0.000 NA
ATOM      9  C   UNL     1       1.010  10.140  18.940  0.00  0.00    +0.000 A 
ATOM     10  N   UNL     1       0.306  10.984  19.717  0.00  0.00    +0.000 NA
ATOM     11  C   UNL     1       0.182  10.506  20.966  0.00  0.00    +0.000 A 
ATOM     12  H   UNL     1       1.573   6.890  21.797  0.00  0.00    +0.000 HD
ENDROOT
BRANCH   7  13
ATOM     13  N   UNL     1       2.029   6.316  19.911  0.00  0.00    +0.000 N 
ATOM     14  C   UNL     1       2.318   5.016  20.286  0.00  0.00    +0.000 C 
ATOM     15  O   UNL     1       2.421   4.679  21.468  0.00  0.00    +0.000 OA
ATOM     16  H   UNL     1       2.195   6.678  18.976  0.00  0.00    +0.000 HD
BRANCH  14  17
ATOM     17  C   UNL     1       2.444   4.030  19.141  0.00  0.00    +0.000 C 
BRANCH  17  18
ATOM     18  C   UNL     1       3.712   4.167  18.334  0.00  0.00    +0.000 A 
ATOM     19  C   UNL     1       4.931   4.475  18.956  0.00  0.00    +0.000 A 
ATOM     20  C   UNL     1       6.111   4.552  18.210  0.00  0.00    +0.000 A 
ATOM     21  C   UNL     1       6.087   4.315  16.838  0.00  0.00    +0.000 A 
ATOM     22  C   UNL     1       4.885   3.999  16.210  0.00  0.00    +0.000 A 
ATOM     23  C   UNL     1       3.705   3.922  16.953  0.00  0.00    +0.000 A 
ENDBRANCH  17  18
ENDBRANCH  14  17
ENDBRANCH   7  13
TORSDOF 3
ENDMDL
MODEL 5
REMARK VINA RESULT:      -7.1      2.503      3.806
REMARK  Name = 
REMARK  4 active torsions:
REMARK  status: ('A' for Active; 'I' for Inactive)
REMARK    1  A    between atoms: C_1  and  N_2
REMARK    2  A    between atoms: N_7  and  N_8
REMARK    3  A    between atoms: C_9  and  C_11
REMARK    4  A    between atoms: C_11  and  C_12
REMARK                            x       y       z     vdW  Elec       q    Type
REMARK                         _______ _______ _______ _____ _____    ______ ____
ROOT
ATOM      1  C   UNL     1      -1.539  11.724  23.000  0.00  0.00    +0.000 C 
ATOM      2  N   UNL     1      -0.591  10.706  22.625  0.00  0.00    +0.000 N 
ATOM      3  N   UNL     1      -0.050   9.897  23.564  0.00  0.00    +0.000 NA
ATOM      4  C   UNL     1       0.748   9.093  22.853  0.00  0.00    +0.000 A 
ATOM      5  C   UNL     1       0.724   9.373  21.469  0.00  0.00    +0.000 A 
ATOM      6  C   UNL     1       1.311   8.881  20.293  0.00  0.00    +0.000 A 
ATOM      7  N   UNL     1       2.242   7.822  20.298  0.00  0.00    +0.000 N 
ATOM      8  N   UNL     1       0.983   9.500  19.122  0.00  0.00    +0.000 NA
ATOM      9  C   UNL     1       0.121  10.537  19.156  0.00  0.00    +0.000 A 
ATOM     10  N   UNL     1      -0.503  11.070  20.223  0.00  0.00    +0.000 NA
ATOM     11  C   UNL     1      -0.156  10.436  21.354  0.00  0.00    +0.000 A 
ATOM     12  H   UNL     1       2.186   7.247  21.142  0.00  0.00    +0.000 HD
ENDROOT
BRANCH   7  13
ATOM     13  N   UNL     1       2.203   7.035  19.130  0.00  0.00    +0.000 N 
ATOM     14  C   UNL     1       3.075   5.961  19.078  0.00  0.00    +0.000 C 
ATOM     15  O   UNL     1       3.771   5.633  20.041  0.00  0.00    +0.000 OA
ATOM     16  H   UNL     1       1.823   7.487  18.303  0.00  0.00    +0.000 HD
BRANCH  14  17
ATOM     17  C   UNL     1       3.068   5.191  17.772  0.00  0.00    +0.000 C 
BRANCH  17  18
ATOM     18  C   UNL     1       4.399   5.152  17.061  0.00  0.00    +0.000 A 
ATOM     19  C   UNL     1       4.770   4.040  16.291  0.00  0.00    +0.000 A 
ATOM     20  C   UNL     1       5.983   4.030  15.596  0.00  0.00    +0.000 A 
ATOM     21  C   UNL     1       6.832   5.132  15.656  0.00  0.00    +0.000 A 
ATOM     22  C   UNL     1       6.470   6.246  16.409  0.00  0.00    +0.000 A 
ATOM     23  C   UNL     1       5.260   6.258  17.105  0.00  0.00    +0.000 A 
ENDBRANCH  17  18
ENDBRANCH  14  17
ENDBRANCH   7  13
TORSDOF 3
ENDMDL
MODEL 6
REMARK VINA RESULT:      -7.1      0.417      1.119
REMARK  Name = 
REMARK  4 active torsions:
REMARK  status: ('A' for Active; 'I' for Inactive)
REMARK    1  A    between atoms: C_1  and  N_2
REMARK    2  A    between atoms: N_7  and  N_8
REMARK    3  A    between atoms: C_9  and  C_11
REMARK    4  A    between atoms: C_11  and  C_12
REMARK                            x       y       z     vdW  Elec       q    Type
REMARK                         _______ _______ _______ _____ _____    ______ ____
ROOT
ATOM      1  C   UNL     1      -1.049  13.558  23.084  0.00  0.00    +0.000 C 
ATOM      2  N   UNL     1      -0.477  12.802  21.998  0.00  0.00    +0.000 N 
ATOM      3  N   UNL     1       0.001  13.436  20.903  0.00  0.00    +0.000 NA
ATOM      4  C   UNL     1       0.453  12.433  20.143  0.00  0.00    +0.000 A 
ATOM      5  C   UNL     1       0.276  11.164  20.737  0.00  0.00    +0.000 A 
ATOM      6  C   UNL     1       0.551   9.821  20.436  0.00  0.00    +0.000 A 
ATOM      7  N   UNL     1       1.148   9.425  19.222  0.00  0.00    +0.000 N 
ATOM      8  N   UNL     1       0.174   8.883  21.353  0.00  0.00    +0.000 NA
ATOM      9  C   UNL     1      -0.433   9.291  22.487  0.00  0.00    +0.000 A 
ATOM     10  N   UNL     1      -0.724  10.547  22.872  0.00  0.00    +0.000 NA
ATOM     11  C   UNL     1      -0.339  11.440  21.946  0.00  0.00    +0.000 A 
ATOM     12  H   UNL     1       1.655  10.185  18.760  0.00  0.00    +0.000 HD
ENDROOT
BRANCH   7  13
ATOM     13  N   UNL     1       1.943   8.267  19.338  0.00  0.00    +0.000 N 
ATOM     14  C   UNL     1       2.597   7.849  18.193  0.00  0.00    +0.000 C 
ATOM     15  O   UNL     1       2.586   8.508  17.151  0.00  0.00    +0.000 OA
ATOM     16  H   UNL     1       1.711   7.646  20.109  0.00  0.00    +0.000 HD
BRANCH  14  17
ATOM     17  C   UNL     1       3.371   6.552  18.333  0.00  0.00    +0.000 C 
BRANCH  17  18
ATOM     18  C   UNL     1       2.568   5.401  18.890  0.00  0.00    +0.000 A 
ATOM     19  C   UNL     1       2.544   5.142  20.268  0.00  0.00    +0.000 A 
ATOM     20  C   UNL     1       1.760   4.106  20.784  0.00  0.00    +0.000 A 
ATOM     21  C   UNL     1       0.987   3.324  19.929  0.00  0.00    +0.000 A 
ATOM     22  C   UNL     1       0.995   3.577  18.560  0.00  0.00    +0.000 A 
ATOM     23  C   UNL     1       1.778   4.611  18.043  0.00  0.00    +0.000 A 
ENDBRANCH  17  18
ENDBRANCH  14  17
ENDBRANCH   7  13
TORSDOF 3
ENDMDL
MODEL 7
REMARK VINA RESULT:      -7.0      2.620      4.140
REMARK  Name = 
REMARK  4 active torsions:
REMARK  status: ('A' for Active; 'I' for Inactive)
REMARK    1  A    between atoms: C_1  and  N_2
REMARK    2  A    between atoms: N_7  and  N_8
REMARK    3  A    between atoms: C_9  and  C_11
REMARK    4  A    between atoms: C_11  and  C_12
REMARK                            x       y       z     vdW  Elec       q    Type
REMARK                         _______ _______ _______ _____ _____    ______ ____
ROOT
ATOM      1  C   UNL     1      -1.081  12.064  20.097  0.00  0.00    +0.000 C 
ATOM      2  N   UNL     1      -0.383  10.849  20.434  0.00  0.00    +0.000 N 
ATOM      3  N   UNL     1      -0.580  10.259  21.635  0.00  0.00    +0.000 NA
ATOM      4  C   UNL     1       0.205   9.178  21.577  0.00  0.00    +0.000 A 
ATOM      5  C   UNL     1       0.900   9.063  20.353  0.00  0.00    +0.000 A 
ATOM      6  C   UNL     1       1.805   8.181  19.744  0.00  0.00    +0.000 A 
ATOM      7  N   UNL     1       2.303   7.036  20.398  0.00  0.00    +0.000 N 
ATOM      8  N   UNL     1       2.237   8.494  18.488  0.00  0.00    +0.000 NA
ATOM      9  C   UNL     1       1.774   9.619  17.904  0.00  0.00    +0.000 A 
ATOM     10  N   UNL     1       0.899  10.515  18.395  0.00  0.00    +0.000 NA
ATOM     11  C   UNL     1       0.497  10.174  19.631  0.00  0.00    +0.000 A 
ATOM     12  H   UNL     1       1.710   6.732  21.175  0.00  0.00    +0.000 HD
ENDROOT
BRANCH   7  13
ATOM     13  N   UNL     1       2.596   5.971  19.523  0.00  0.00    +0.000 N 
ATOM     14  C   UNL     1       2.705   4.715  20.092  0.00  0.00    +0.000 C 
ATOM     15  O   UNL     1       2.449   4.506  21.280  0.00  0.00    +0.000 OA
ATOM     16  H   UNL     1       3.039   6.228  18.645  0.00  0.00    +0.000 HD
BRANCH  14  17
ATOM     17  C   UNL     1       3.109   3.609  19.135  0.00  0.00    +0.000 C 
BRANCH  17  18
ATOM     18  C   UNL     1       4.270   3.954  18.235  0.00  0.00    +0.000 A 
ATOM     19  C   UNL     1       5.518   4.302  18.772  0.00  0.00    +0.000 A 
ATOM     20  C   UNL     1       6.602   4.573  17.932  0.00  0.00    +0.000 A 
ATOM     21  C   UNL     1       6.454   4.491  16.550  0.00  0.00    +0.000 A 
ATOM     22  C   UNL     1       5.222   4.137  16.005  0.00  0.00    +0.000 A 
ATOM     23  C   UNL     1       4.137   3.867  16.841  0.00  0.00    +0.000 A 
ENDBRANCH  17  18
ENDBRANCH  14  17
ENDBRANCH   7  13
TORSDOF 3
ENDMDL
MODEL 8
REMARK VINA RESULT:      -6.9      2.228      3.554
REMARK  Name = 
REMARK  4 active torsions:
REMARK  status: ('A' for Active; 'I' for Inactive)
REMARK    1  A    between atoms: C_1  and  N_2
REMARK    2  A    between atoms: N_7  and  N_8
REMARK    3  A    between atoms: C_9  and  C_11
REMARK    4  A    between atoms: C_11  and  C_12
REMARK                            x       y       z     vdW  Elec       q    Type
REMARK                         _______ _______ _______ _____ _____    ______ ____
ROOT
ATOM      1  C   UNL     1      -1.630  12.345  22.751  0.00  0.00    +0.000 C 
ATOM      2  N   UNL     1      -0.839  11.157  22.551  0.00  0.00    +0.000 N 
ATOM      3  N   UNL     1      -0.763  10.215  23.518  0.00  0.00    +0.000 NA
ATOM      4  C   UNL     1       0.027   9.283  22.976  0.00  0.00    +0.000 A 
ATOM      5  C   UNL     1       0.457   9.611  21.671  0.00  0.00    +0.000 A 
ATOM      6  C   UNL     1       1.244   9.046  20.657  0.00  0.00    +0.000 A 
ATOM      7  N   UNL     1       1.904   7.809  20.811  0.00  0.00    +0.000 N 
ATOM      8  N   UNL     1       1.396   9.764  19.506  0.00  0.00    +0.000 NA
ATOM      9  C   UNL     1       0.786  10.964  19.406  0.00  0.00    +0.000 A 
ATOM     10  N   UNL     1       0.003  11.581  20.309  0.00  0.00    +0.000 NA
ATOM     11  C   UNL     1      -0.122  10.845  21.426  0.00  0.00    +0.000 A 
ATOM     12  H   UNL     1       1.495   7.229  21.548  0.00  0.00    +0.000 HD
ENDROOT
BRANCH   7  13
ATOM     13  N   UNL     1       2.043   7.093  19.605  0.00  0.00    +0.000 N 
ATOM     14  C   UNL     1       2.418   5.765  19.715  0.00  0.00    +0.000 C 
ATOM     15  O   UNL     1       2.516   5.197  20.805  0.00  0.00    +0.000 OA
ATOM     16  H   UNL     1       2.205   7.653  18.773  0.00  0.00    +0.000 HD
BRANCH  14  17
ATOM     17  C   UNL     1       2.645   5.052  18.396  0.00  0.00    +0.000 C 
BRANCH  17  18
ATOM     18  C   UNL     1       4.025   5.238  17.813  0.00  0.00    +0.000 A 
ATOM     19  C   UNL     1       4.308   6.321  16.968  0.00  0.00    +0.000 A 
ATOM     20  C   UNL     1       5.600   6.516  16.471  0.00  0.00    +0.000 A 
ATOM     21  C   UNL     1       6.622   5.636  16.817  0.00  0.00    +0.000 A 
ATOM     22  C   UNL     1       6.356   4.561  17.662  0.00  0.00    +0.000 A 
ATOM     23  C   UNL     1       5.066   4.365  18.160  0.00  0.00    +0.000 A 
ENDBRANCH  17  18
ENDBRANCH  14  17
ENDBRANCH   7  13
TORSDOF 3
ENDMDL
MODEL 9
REMARK VINA RESULT:      -6.9      3.115      7.878
REMARK  Name = 
REMARK  4 active torsions:
REMARK  status: ('A' for Active; 'I' for Inactive)
REMARK    1  A    between atoms: C_1  and  N_2
REMARK    2  A    between atoms: N_7  and  N_8
REMARK    3  A    between atoms: C_9  and  C_11
REMARK    4  A    between atoms: C_11  and  C_12
REMARK                            x       y       z     vdW  Elec       q    Type
REMARK                         _______ _______ _______ _____ _____    ______ ____
ROOT
ATOM      1  C   UNL     1       6.192   3.630  15.256  0.00  0.00    +0.000 C 
ATOM      2  N   UNL     1       5.660   4.848  15.815  0.00  0.00    +0.000 N 
ATOM      3  N   UNL     1       6.186   6.045  15.470  0.00  0.00    +0.000 NA
ATOM      4  C   UNL     1       5.443   6.916  16.159  0.00  0.00    +0.000 A 
ATOM      5  C   UNL     1       4.443   6.295  16.941  0.00  0.00    +0.000 A 
ATOM      6  C   UNL     1       3.411   6.675  17.813  0.00  0.00    +0.000 A 
ATOM      7  N   UNL     1       3.165   8.021  18.153  0.00  0.00    +0.000 N 
ATOM      8  N   UNL     1       2.664   5.679  18.372  0.00  0.00    +0.000 NA
ATOM      9  C   UNL     1       2.952   4.398  18.059  0.00  0.00    +0.000 A 
ATOM     10  N   UNL     1       3.903   3.936  17.227  0.00  0.00    +0.000 NA
ATOM     11  C   UNL     1       4.616   4.943  16.697  0.00  0.00    +0.000 A 
ATOM     12  H   UNL     1       3.554   8.681  17.473  0.00  0.00    +0.000 HD
ENDROOT
BRANCH   7  13
ATOM     13  N   UNL     1       1.809   8.293  18.423  0.00  0.00    +0.000 N 
ATOM     14  C   UNL     1       1.430   9.623  18.404  0.00  0.00    +0.000 C 
ATOM     15  O   UNL     1       2.200  10.522  18.057  0.00  0.00    +0.000 OA
ATOM     16  H   UNL     1       1.308   7.575  18.939  0.00  0.00    +0.000 HD
BRANCH  14  17
ATOM     17  C   UNL     1      -0.014   9.885  18.786  0.00  0.00    +0.000 C 
BRANCH  17  18
ATOM     18  C   UNL     1      -0.241  10.105  20.262  0.00  0.00    +0.000 A 
ATOM     19  C   UNL     1      -0.631  11.361  20.750  0.00  0.00    +0.000 A 
ATOM     20  C   UNL     1      -0.887  11.547  22.111  0.00  0.00    +0.000 A 
ATOM     21  C   UNL     1      -0.763  10.480  22.998  0.00  0.00    +0.000 A 
ATOM     22  C   UNL     1      -0.386   9.226  22.524  0.00  0.00    +0.000 A 
ATOM     23  C   UNL     1      -0.129   9.038  21.165  0.00  0.00    +0.000 A 
ENDBRANCH  17  18
ENDBRANCH  14  17
ENDBRANCH   7  13
TORSDOF 3
ENDMDL
