MODEL 1
REMARK VINA RESULT:      -4.8      0.000      0.000
REMARK  Name = 
REMARK  5 active torsions:
REMARK  status: ('A' for Active; 'I' for Inactive)
REMARK    1  A    between atoms: N_4  and  C_5
REMARK    2  A    between atoms: C_5  and  C_6
REMARK    3  A    between atoms: C_6  and  C_7
REMARK    4  A    between atoms: C_7  and  C_8
REMARK    5  A    between atoms: C_8  and  O_10
REMARK                            x       y       z     vdW  Elec       q    Type
REMARK                         _______ _______ _______ _____ _____    ______ ____
ROOT
ATOM      1  N   UNL     1       3.923   0.847  18.502  0.00  0.00    +0.000 N 
ATOM      2  C   UNL     1       3.776   2.153  18.833  0.00  0.00    +0.000 C 
ATOM      3  O   UNL     1       2.676   2.645  19.036  0.00  0.00    +0.000 OA
ATOM      4  N   UNL     1       4.961   2.817  18.902  0.00  0.00    +0.000 N 
ATOM      5  H   UNL     1       3.089   0.277  18.547  0.00  0.00    +0.000 HD
ATOM      6  H   UNL     1       4.816   0.386  18.533  0.00  0.00    +0.000 HD
ATOM      7  H   UNL     1       5.797   2.346  18.594  0.00  0.00    +0.000 HD
ENDROOT
BRANCH   4   8
ATOM      8  C   UNL     1       5.035   4.239  19.168  0.00  0.00    +0.000 C 
BRANCH   8   9
ATOM      9  C   UNL     1       4.972   5.058  17.877  0.00  0.00    +0.000 C 
BRANCH   9  10
ATOM     10  C   UNL     1       5.750   4.397  16.738  0.00  0.00    +0.000 C 
BRANCH  10  11
ATOM     11  C   UNL     1       7.163   4.920  16.635  0.00  0.00    +0.000 C 
ATOM     12  O   UNL     1       7.484   5.947  16.057  0.00  0.00    +0.000 OA
BRANCH  11  13
ATOM     13  O   UNL     1       8.065   4.141  17.271  0.00  0.00    +0.000 OA
ATOM     14  H   UNL     1       8.942   4.553  17.388  0.00  0.00    +0.000 HD
ENDBRANCH  11  13
ENDBRANCH  10  11
ENDBRANCH   9  10
ENDBRANCH   8   9
ENDBRANCH   4   8
TORSDOF 5
ENDMDL
MODEL 2
REMARK VINA RESULT:      -4.7      1.664      2.005
REMARK  Name = 
REMARK  5 active torsions:
REMARK  status: ('A' for Active; 'I' for Inactive)
REMARK    1  A    between atoms: N_4  and  C_5
REMARK    2  A    between atoms: C_5  and  C_6
REMARK    3  A    between atoms: C_6  and  C_7
REMARK    4  A    between atoms: C_7  and  C_8
REMARK    5  A    between atoms: C_8  and  O_10
REMARK                            x       y       z     vdW  Elec       q    Type
REMARK                         _______ _______ _______ _____ _____    ______ ____
ROOT
ATOM      1  N   UNL     1       4.858   1.982  19.805  0.00  0.00    +0.000 N 
ATOM      2  C   UNL     1       4.598   3.223  19.328  0.00  0.00    +0.000 C 
ATOM      3  O   UNL     1       3.533   3.784  19.543  0.00  0.00    +0.000 OA
ATOM      4  N   UNL     1       5.628   3.739  18.607  0.00  0.00    +0.000 N 
ATOM      5  H   UNL     1       4.175   1.594  20.442  0.00  0.00    +0.000 HD
ATOM      6  H   UNL     1       5.788   1.597  19.812  0.00  0.00    +0.000 HD
ATOM      7  H   UNL     1       6.410   3.143  18.387  0.00  0.00    +0.000 HD
ENDROOT
BRANCH   4   8
ATOM      8  C   UNL     1       5.539   5.023  17.942  0.00  0.00    +0.000 C 
BRANCH   8   9
ATOM      9  C   UNL     1       5.101   4.875  16.484  0.00  0.00    +0.000 C 
BRANCH   9  10
ATOM     10  C   UNL     1       5.915   3.812  15.744  0.00  0.00    +0.000 C 
BRANCH  10  11
ATOM     11  C   UNL     1       6.622   4.375  14.534  0.00  0.00    +0.000 C 
ATOM     12  O   UNL     1       6.454   3.987  13.388  0.00  0.00    +0.000 OA
BRANCH  11  13
ATOM     13  O   UNL     1       7.465   5.386  14.835  0.00  0.00    +0.000 OA
ATOM     14  H   UNL     1       8.307   5.102  15.241  0.00  0.00    +0.000 HD
ENDBRANCH  11  13
ENDBRANCH  10  11
ENDBRANCH   9  10
ENDBRANCH   8   9
ENDBRANCH   4   8
TORSDOF 5
ENDMDL
MODEL 3
REMARK VINA RESULT:      -4.7      2.878      3.641
REMARK  Name = 
REMARK  5 active torsions:
REMARK  status: ('A' for Active; 'I' for Inactive)
REMARK    1  A    between atoms: N_4  and  C_5
REMARK    2  A    between atoms: C_5  and  C_6
REMARK    3  A    between atoms: C_6  and  C_7
REMARK    4  A    between atoms: C_7  and  C_8
REMARK    5  A    between atoms: C_8  and  O_10
REMARK                            x       y       z     vdW  Elec       q    Type
REMARK                         _______ _______ _______ _____ _____    ______ ____
ROOT
ATOM      1  N   UNL     1       1.559   2.601  22.122  0.00  0.00    +0.000 N 
ATOM      2  C   UNL     1       1.439   3.065  20.854  0.00  0.00    +0.000 C 
ATOM      3  O   UNL     1       1.031   4.193  20.619  0.00  0.00    +0.000 OA
ATOM      4  N   UNL     1       1.811   2.151  19.919  0.00  0.00    +0.000 N 
ATOM      5  H   UNL     1       1.405   3.272  22.862  0.00  0.00    +0.000 HD
ATOM      6  H   UNL     1       2.077   1.766  22.337  0.00  0.00    +0.000 HD
ATOM      7  H   UNL     1       2.014   1.210  20.217  0.00  0.00    +0.000 HD
ENDROOT
BRANCH   4   8
ATOM      8  C   UNL     1       1.695   2.408  18.499  0.00  0.00    +0.000 C 
BRANCH   8   9
ATOM      9  C   UNL     1       3.019   2.166  17.771  0.00  0.00    +0.000 C 
BRANCH   9  10
ATOM     10  C   UNL     1       3.862   3.439  17.673  0.00  0.00    +0.000 C 
BRANCH  10  11
ATOM     11  C   UNL     1       4.650   3.698  18.935  0.00  0.00    +0.000 C 
ATOM     12  O   UNL     1       4.913   4.808  19.374  0.00  0.00    +0.000 OA
BRANCH  11  13
ATOM     13  O   UNL     1       5.032   2.566  19.564  0.00  0.00    +0.000 OA
ATOM     14  H   UNL     1       5.829   2.145  19.187  0.00  0.00    +0.000 HD
ENDBRANCH  11  13
ENDBRANCH  10  11
ENDBRANCH   9  10
ENDBRANCH   8   9
ENDBRANCH   4   8
TORSDOF 5
ENDMDL
MODEL 4
REMARK VINA RESULT:      -4.7      1.122      1.191
REMARK  Name = 
REMARK  5 active torsions:
REMARK  status: ('A' for Active; 'I' for Inactive)
REMARK    1  A    between atoms: N_4  and  C_5
REMARK    2  A    between atoms: C_5  and  C_6
REMARK    3  A    between atoms: C_6  and  C_7
REMARK    4  A    between atoms: C_7  and  C_8
REMARK    5  A    between atoms: C_8  and  O_10
REMARK                            x       y       z     vdW  Elec       q    Type
REMARK                         _______ _______ _______ _____ _____    ______ ____
ROOT
ATOM      1  N   UNL     1       5.007   1.892  20.121  0.00  0.00    +0.000 N 
ATOM      2  C   UNL     1       4.252   2.598  19.244  0.00  0.00    +0.000 C 
ATOM      3  O   UNL     1       3.031   2.554  19.266  0.00  0.00    +0.000 OA
ATOM      4  N   UNL     1       4.999   3.326  18.372  0.00  0.00    +0.000 N 
ATOM      5  H   UNL     1       4.508   1.422  20.864  0.00  0.00    +0.000 HD
ATOM      6  H   UNL     1       5.988   2.075  20.248  0.00  0.00    +0.000 HD
ATOM      7  H   UNL     1       5.997   3.194  18.362  0.00  0.00    +0.000 HD
ENDROOT
BRANCH   4   8
ATOM      8  C   UNL     1       4.401   4.098  17.301  0.00  0.00    +0.000 C 
BRANCH   8   9
ATOM      9  C   UNL     1       4.856   5.558  17.337  0.00  0.00    +0.000 C 
BRANCH   9  10
ATOM     10  C   UNL     1       6.292   5.701  17.846  0.00  0.00    +0.000 C 
BRANCH  10  11
ATOM     11  C   UNL     1       7.305   5.229  16.831  0.00  0.00    +0.000 C 
ATOM     12  O   UNL     1       7.492   5.749  15.741  0.00  0.00    +0.000 OA
BRANCH  11  13
ATOM     13  O   UNL     1       8.020   4.162  17.251  0.00  0.00    +0.000 OA
ATOM     14  H   UNL     1       7.772   3.835  18.137  0.00  0.00    +0.000 HD
ENDBRANCH  11  13
ENDBRANCH  10  11
ENDBRANCH   9  10
ENDBRANCH   8   9
ENDBRANCH   4   8
TORSDOF 5
ENDMDL
MODEL 5
REMARK VINA RESULT:      -4.6      3.227      4.958
REMARK  Name = 
REMARK  5 active torsions:
REMARK  status: ('A' for Active; 'I' for Inactive)
REMARK    1  A    between atoms: N_4  and  C_5
REMARK    2  A    between atoms: C_5  and  C_6
REMARK    3  A    between atoms: C_6  and  C_7
REMARK    4  A    between atoms: C_7  and  C_8
REMARK    5  A    between atoms: C_8  and  O_10
REMARK                            x       y       z     vdW  Elec       q    Type
REMARK                         _______ _______ _______ _____ _____    ______ ____
ROOT
ATOM      1  N   UNL     1       3.982   1.127  18.450  0.00  0.00    +0.000 N 
ATOM      2  C   UNL     1       4.199   2.254  19.169  0.00  0.00    +0.000 C 
ATOM      3  O   UNL     1       4.834   2.239  20.214  0.00  0.00    +0.000 OA
ATOM      4  N   UNL     1       3.639   3.357  18.604  0.00  0.00    +0.000 N 
ATOM      5  H   UNL     1       4.469   0.296  18.760  0.00  0.00    +0.000 HD
ATOM      6  H   UNL     1       3.646   1.155  17.502  0.00  0.00    +0.000 HD
ATOM      7  H   UNL     1       3.033   3.237  17.808  0.00  0.00    +0.000 HD
ENDROOT
BRANCH   4   8
ATOM      8  C   UNL     1       3.684   4.658  19.239  0.00  0.00    +0.000 C 
BRANCH   8   9
ATOM      9  C   UNL     1       2.289   5.272  19.369  0.00  0.00    +0.000 C 
BRANCH   9  10
ATOM     10  C   UNL     1       1.726   5.125  20.783  0.00  0.00    +0.000 C 
BRANCH  10  11
ATOM     11  C   UNL     1       1.550   3.678  21.179  0.00  0.00    +0.000 C 
ATOM     12  O   UNL     1       2.069   3.156  22.155  0.00  0.00    +0.000 OA
BRANCH  11  13
ATOM     13  O   UNL     1       0.734   2.996  20.347  0.00  0.00    +0.000 OA
ATOM     14  H   UNL     1       0.652   3.384  19.454  0.00  0.00    +0.000 HD
ENDBRANCH  11  13
ENDBRANCH  10  11
ENDBRANCH   9  10
ENDBRANCH   8   9
ENDBRANCH   4   8
TORSDOF 5
ENDMDL
MODEL 6
REMARK VINA RESULT:      -4.6      2.471      4.471
REMARK  Name = 
REMARK  5 active torsions:
REMARK  status: ('A' for Active; 'I' for Inactive)
REMARK    1  A    between atoms: N_4  and  C_5
REMARK    2  A    between atoms: C_5  and  C_6
REMARK    3  A    between atoms: C_6  and  C_7
REMARK    4  A    between atoms: C_7  and  C_8
REMARK    5  A    between atoms: C_8  and  O_10
REMARK                            x       y       z     vdW  Elec       q    Type
REMARK                         _______ _______ _______ _____ _____    ______ ____
ROOT
ATOM      1  N   UNL     1       6.282   3.614  13.860  0.00  0.00    +0.000 N 
ATOM      2  C   UNL     1       6.882   4.405  14.782  0.00  0.00    +0.000 C 
ATOM      3  O   UNL     1       7.570   5.363  14.457  0.00  0.00    +0.000 OA
ATOM      4  N   UNL     1       6.636   4.009  16.059  0.00  0.00    +0.000 N 
ATOM      5  H   UNL     1       6.335   3.924  12.899  0.00  0.00    +0.000 HD
ATOM      6  H   UNL     1       5.559   2.959  14.108  0.00  0.00    +0.000 HD
ATOM      7  H   UNL     1       6.158   3.135  16.210  0.00  0.00    +0.000 HD
ENDROOT
BRANCH   4   8
ATOM      8  C   UNL     1       7.237   4.667  17.201  0.00  0.00    +0.000 C 
BRANCH   8   9
ATOM      9  C   UNL     1       6.265   5.642  17.867  0.00  0.00    +0.000 C 
BRANCH   9  10
ATOM     10  C   UNL     1       5.775   5.129  19.222  0.00  0.00    +0.000 C 
BRANCH  10  11
ATOM     11  C   UNL     1       4.770   4.011  19.078  0.00  0.00    +0.000 C 
ATOM     12  O   UNL     1       3.642   4.144  18.627  0.00  0.00    +0.000 OA
BRANCH  11  13
ATOM     13  O   UNL     1       5.246   2.814  19.484  0.00  0.00    +0.000 OA
ATOM     14  H   UNL     1       5.927   2.431  18.898  0.00  0.00    +0.000 HD
ENDBRANCH  11  13
ENDBRANCH  10  11
ENDBRANCH   9  10
ENDBRANCH   8   9
ENDBRANCH   4   8
TORSDOF 5
ENDMDL
MODEL 7
REMARK VINA RESULT:      -4.5      3.279      5.021
REMARK  Name = 
REMARK  5 active torsions:
REMARK  status: ('A' for Active; 'I' for Inactive)
REMARK    1  A    between atoms: N_4  and  C_5
REMARK    2  A    between atoms: C_5  and  C_6
REMARK    3  A    between atoms: C_6  and  C_7
REMARK    4  A    between atoms: C_7  and  C_8
REMARK    5  A    between atoms: C_8  and  O_10
REMARK                            x       y       z     vdW  Elec       q    Type
REMARK                         _______ _______ _______ _____ _____    ______ ____
ROOT
ATOM      1  N   UNL     1       5.134   1.705  20.151  0.00  0.00    +0.000 N 
ATOM      2  C   UNL     1       4.268   2.332  19.319  0.00  0.00    +0.000 C 
ATOM      3  O   UNL     1       3.533   1.709  18.567  0.00  0.00    +0.000 OA
ATOM      4  N   UNL     1       4.324   3.687  19.422  0.00  0.00    +0.000 N 
ATOM      5  H   UNL     1       5.059   0.698  20.201  0.00  0.00    +0.000 HD
ATOM      6  H   UNL     1       5.589   2.186  20.909  0.00  0.00    +0.000 HD
ATOM      7  H   UNL     1       5.052   4.099  19.983  0.00  0.00    +0.000 HD
ENDROOT
BRANCH   4   8
ATOM      8  C   UNL     1       3.537   4.559  18.574  0.00  0.00    +0.000 C 
BRANCH   8   9
ATOM      9  C   UNL     1       2.148   4.814  19.161  0.00  0.00    +0.000 C 
BRANCH   9  10
ATOM     10  C   UNL     1       2.152   4.762  20.690  0.00  0.00    +0.000 C 
BRANCH  10  11
ATOM     11  C   UNL     1       1.526   3.492  21.217  0.00  0.00    +0.000 C 
ATOM     12  O   UNL     1       1.917   2.882  22.201  0.00  0.00    +0.000 OA
BRANCH  11  13
ATOM     13  O   UNL     1       0.457   3.089  20.498  0.00  0.00    +0.000 OA
ATOM     14  H   UNL     1       0.055   2.254  20.806  0.00  0.00    +0.000 HD
ENDBRANCH  11  13
ENDBRANCH  10  11
ENDBRANCH   9  10
ENDBRANCH   8   9
ENDBRANCH   4   8
TORSDOF 5
ENDMDL
MODEL 8
REMARK VINA RESULT:      -4.5      3.718      4.575
REMARK  Name = 
REMARK  5 active torsions:
REMARK  status: ('A' for Active; 'I' for Inactive)
REMARK    1  A    between atoms: N_4  and  C_5
REMARK    2  A    between atoms: C_5  and  C_6
REMARK    3  A    between atoms: C_6  and  C_7
REMARK    4  A    between atoms: C_7  and  C_8
REMARK    5  A    between atoms: C_8  and  O_10
REMARK                            x       y       z     vdW  Elec       q    Type
REMARK                         _______ _______ _______ _____ _____    ______ ____
ROOT
ATOM      1  N   UNL     1       7.919   5.517  13.743  0.00  0.00    +0.000 N 
ATOM      2  C   UNL     1       7.098   4.836  14.578  0.00  0.00    +0.000 C 
ATOM      3  O   UNL     1       6.264   4.047  14.158  0.00  0.00    +0.000 OA
ATOM      4  N   UNL     1       7.309   5.136  15.888  0.00  0.00    +0.000 N 
ATOM      5  H   UNL     1       7.886   5.253  12.767  0.00  0.00    +0.000 HD
ATOM      6  H   UNL     1       8.734   6.005  14.076  0.00  0.00    +0.000 HD
ATOM      7  H   UNL     1       7.936   5.891  16.115  0.00  0.00    +0.000 HD
ENDROOT
BRANCH   4   8
ATOM      8  C   UNL     1       6.494   4.579  16.948  0.00  0.00    +0.000 C 
BRANCH   8   9
ATOM      9  C   UNL     1       6.362   5.548  18.125  0.00  0.00    +0.000 C 
BRANCH   9  10
ATOM     10  C   UNL     1       7.721   6.060  18.604  0.00  0.00    +0.000 C 
BRANCH  10  11
ATOM     11  C   UNL     1       7.993   7.471  18.138  0.00  0.00    +0.000 C 
ATOM     12  O   UNL     1       7.589   7.947  17.088  0.00  0.00    +0.000 OA
BRANCH  11  13
ATOM     13  O   UNL     1       8.727   8.187  19.017  0.00  0.00    +0.000 OA
ATOM     14  H   UNL     1       9.215   8.934  18.621  0.00  0.00    +0.000 HD
ENDBRANCH  11  13
ENDBRANCH  10  11
ENDBRANCH   9  10
ENDBRANCH   8   9
ENDBRANCH   4   8
TORSDOF 5
ENDMDL
MODEL 9
REMARK VINA RESULT:      -4.5      1.654      1.846
REMARK  Name = 
REMARK  5 active torsions:
REMARK  status: ('A' for Active; 'I' for Inactive)
REMARK    1  A    between atoms: N_4  and  C_5
REMARK    2  A    between atoms: C_5  and  C_6
REMARK    3  A    between atoms: C_6  and  C_7
REMARK    4  A    between atoms: C_7  and  C_8
REMARK    5  A    between atoms: C_8  and  O_10
REMARK                            x       y       z     vdW  Elec       q    Type
REMARK                         _______ _______ _______ _____ _____    ______ ____
ROOT
ATOM      1  N   UNL     1       3.985   1.843  18.276  0.00  0.00    +0.000 N 
ATOM      2  C   UNL     1       4.331   3.145  18.129  0.00  0.00    +0.000 C 
ATOM      3  O   UNL     1       3.772   3.872  17.320  0.00  0.00    +0.000 OA
ATOM      4  N   UNL     1       5.341   3.520  18.958  0.00  0.00    +0.000 N 
ATOM      5  H   UNL     1       3.166   1.537  17.768  0.00  0.00    +0.000 HD
ATOM      6  H   UNL     1       4.287   1.297  19.065  0.00  0.00    +0.000 HD
ATOM      7  H   UNL     1       5.813   2.811  19.496  0.00  0.00    +0.000 HD
ENDROOT
BRANCH   4   8
ATOM      8  C   UNL     1       5.920   4.847  18.918  0.00  0.00    +0.000 C 
BRANCH   8   9
ATOM      9  C   UNL     1       7.161   4.895  18.025  0.00  0.00    +0.000 C 
BRANCH   9  10
ATOM     10  C   UNL     1       7.059   5.988  16.959  0.00  0.00    +0.000 C 
BRANCH  10  11
ATOM     11  C   UNL     1       6.801   5.419  15.584  0.00  0.00    +0.000 C 
ATOM     12  O   UNL     1       7.651   5.280  14.718  0.00  0.00    +0.000 OA
BRANCH  11  13
ATOM     13  O   UNL     1       5.515   5.050  15.396  0.00  0.00    +0.000 OA
ATOM     14  H   UNL     1       4.986   5.684  14.875  0.00  0.00    +0.000 HD
ENDBRANCH  11  13
ENDBRANCH  10  11
ENDBRANCH   9  10
ENDBRANCH   8   9
ENDBRANCH   4   8
TORSDOF 5
ENDMDL
