MODEL 1
REMARK VINA RESULT:      -7.6      0.000      0.000
REMARK  Name = 
REMARK  8 active torsions:
REMARK  status: ('A' for Active; 'I' for Inactive)
REMARK    1  A    between atoms: C_1  and  N_2
REMARK    2  A    between atoms: N_2  and  C_3
REMARK    3  A    between atoms: N_2  and  S_9
REMARK    4  A    between atoms: S_9  and  C_12
REMARK    5  A    between atoms: C_16  and  N_17
REMARK    6  A    between atoms: C_18  and  C_20
REMARK    7  A    between atoms: C_20  and  S_21
REMARK    8  A    between atoms: S_21  and  C_22
REMARK                            x       y       z     vdW  Elec       q    Type
REMARK                         _______ _______ _______ _____ _____    ______ ____
ROOT
ATOM      1  C   UNL     1       4.359   6.088  17.380  0.00  0.00    +0.000 A 
ATOM      2  C   UNL     1       3.830   4.793  17.327  0.00  0.00    +0.000 A 
ATOM      3  C   UNL     1       2.685   4.490  18.055  0.00  0.00    +0.000 A 
ATOM      4  C   UNL     1       2.047   5.475  18.814  0.00  0.00    +0.000 A 
ATOM      5  C   UNL     1       2.544   6.783  18.861  0.00  0.00    +0.000 A 
ATOM      6  C   UNL     1       3.711   7.086  18.139  0.00  0.00    +0.000 A 
ENDROOT
BRANCH   5   7
ATOM      7  N   UNL     1       1.884   7.828  19.556  0.00  0.00    +0.000 N 
ATOM      8  C   UNL     1       1.370   8.994  19.000  0.00  0.00    +0.000 C 
ATOM      9  O   UNL     1       1.308   9.247  17.798  0.00  0.00    +0.000 OA
ATOM     10  H   UNL     1       1.701   7.666  20.542  0.00  0.00    +0.000 HD
BRANCH   8  11
ATOM     11  C   UNL     1       0.844  10.002  20.017  0.00  0.00    +0.000 C 
BRANCH  11  12
ATOM     12  S   UNL     1       0.340  11.538  19.188  0.00  0.00    +0.000 S 
BRANCH  12  13
ATOM     13  C   UNL     1       1.554  12.625  19.810  0.00  0.00    +0.000 A 
ATOM     14  N   UNL     1       1.854  12.676  21.091  0.00  0.00    +0.000 NA
ATOM     15  N   UNL     1       2.845  13.600  21.355  0.00  0.00    +0.000 NA
ATOM     16  C   UNL     1       3.250  14.203  20.257  0.00  0.00    +0.000 A 
ATOM     17  S   UNL     1       2.453  13.700  18.826  0.00  0.00    +0.000 S 
ENDBRANCH  12  13
ENDBRANCH  11  12
ENDBRANCH   8  11
ENDBRANCH   5   7
BRANCH   1  18
ATOM     18  S   UNL     1       5.691   6.527  16.268  0.00  0.00    +0.000 S 
ATOM     19  O   UNL     1       6.604   7.370  17.018  0.00  0.00    +0.000 OA
ATOM     20  O   UNL     1       5.063   7.029  15.060  0.00  0.00    +0.000 OA
BRANCH  18  22
ATOM     21  C   UNL     1       7.390   4.470  16.848  0.00  0.00    +0.000 C 
ATOM     22  N   UNL     1       6.476   5.076  15.876  0.00  0.00    +0.000 N 
BRANCH  22  23
ATOM     23  C   UNL     1       6.569   4.697  14.504  0.00  0.00    +0.000 A 
ATOM     24  C   UNL     1       5.694   3.765  13.948  0.00  0.00    +0.000 A 
ATOM     25  C   UNL     1       5.867   3.362  12.621  0.00  0.00    +0.000 A 
ATOM     26  C   UNL     1       6.900   3.903  11.852  0.00  0.00    +0.000 A 
ATOM     27  C   UNL     1       7.746   4.866  12.399  0.00  0.00    +0.000 A 
ATOM     28  C   UNL     1       7.580   5.263  13.725  0.00  0.00    +0.000 A 
ENDBRANCH  22  23
ENDBRANCH  18  22
ENDBRANCH   1  18
TORSDOF 7
ENDMDL
MODEL 2
REMARK VINA RESULT:      -7.5      1.820      2.104
REMARK  Name = 
REMARK  8 active torsions:
REMARK  status: ('A' for Active; 'I' for Inactive)
REMARK    1  A    between atoms: C_1  and  N_2
REMARK    2  A    between atoms: N_2  and  C_3
REMARK    3  A    between atoms: N_2  and  S_9
REMARK    4  A    between atoms: S_9  and  C_12
REMARK    5  A    between atoms: C_16  and  N_17
REMARK    6  A    between atoms: C_18  and  C_20
REMARK    7  A    between atoms: C_20  and  S_21
REMARK    8  A    between atoms: S_21  and  C_22
REMARK                            x       y       z     vdW  Elec       q    Type
REMARK                         _______ _______ _______ _____ _____    ______ ____
ROOT
ATOM      1  C   UNL     1       4.315   5.863  17.591  0.00  0.00    +0.000 A 
ATOM      2  C   UNL     1       3.685   4.650  17.287  0.00  0.00    +0.000 A 
ATOM      3  C   UNL     1       2.546   4.274  17.989  0.00  0.00    +0.000 A 
ATOM      4  C   UNL     1       2.014   5.110  18.975  0.00  0.00    +0.000 A 
ATOM      5  C   UNL     1       2.612   6.339  19.277  0.00  0.00    +0.000 A 
ATOM      6  C   UNL     1       3.773   6.712  18.579  0.00  0.00    +0.000 A 
ENDROOT
BRANCH   5   7
ATOM      7  N   UNL     1       2.060   7.249  20.213  0.00  0.00    +0.000 N 
ATOM      8  C   UNL     1       1.464   8.472  19.925  0.00  0.00    +0.000 C 
ATOM      9  O   UNL     1       1.223   8.901  18.797  0.00  0.00    +0.000 OA
ATOM     10  H   UNL     1       2.027   6.936  21.179  0.00  0.00    +0.000 HD
BRANCH   8  11
ATOM     11  C   UNL     1       1.093   9.300  21.150  0.00  0.00    +0.000 C 
BRANCH  11  12
ATOM     12  S   UNL     1       1.033  11.067  20.729  0.00  0.00    +0.000 S 
BRANCH  12  13
ATOM     13  C   UNL     1      -0.228  11.590  21.815  0.00  0.00    +0.000 A 
ATOM     14  N   UNL     1      -0.942  10.735  22.518  0.00  0.00    +0.000 NA
ATOM     15  N   UNL     1      -1.875  11.371  23.313  0.00  0.00    +0.000 NA
ATOM     16  C   UNL     1      -1.818  12.679  23.176  0.00  0.00    +0.000 A 
ATOM     17  S   UNL     1      -0.636  13.234  22.066  0.00  0.00    +0.000 S 
ENDBRANCH  12  13
ENDBRANCH  11  12
ENDBRANCH   8  11
ENDBRANCH   5   7
BRANCH   1  18
ATOM     18  S   UNL     1       5.638   6.441  16.533  0.00  0.00    +0.000 S 
ATOM     19  O   UNL     1       6.483   7.294  17.347  0.00  0.00    +0.000 OA
ATOM     20  O   UNL     1       5.002   6.971  15.341  0.00  0.00    +0.000 OA
BRANCH  18  22
ATOM     21  C   UNL     1       7.476   4.483  17.024  0.00  0.00    +0.000 C 
ATOM     22  N   UNL     1       6.517   5.064  16.080  0.00  0.00    +0.000 N 
BRANCH  22  23
ATOM     23  C   UNL     1       6.628   4.748  14.694  0.00  0.00    +0.000 A 
ATOM     24  C   UNL     1       5.791   3.808  14.095  0.00  0.00    +0.000 A 
ATOM     25  C   UNL     1       5.983   3.470  12.752  0.00  0.00    +0.000 A 
ATOM     26  C   UNL     1       6.996   4.082  12.012  0.00  0.00    +0.000 A 
ATOM     27  C   UNL     1       7.803   5.053  12.603  0.00  0.00    +0.000 A 
ATOM     28  C   UNL     1       7.619   5.386  13.944  0.00  0.00    +0.000 A 
ENDBRANCH  22  23
ENDBRANCH  18  22
ENDBRANCH   1  18
TORSDOF 7
ENDMDL
MODEL 3
REMARK VINA RESULT:      -7.4      4.085      9.291
REMARK  Name = 
REMARK  8 active torsions:
REMARK  status: ('A' for Active; 'I' for Inactive)
REMARK    1  A    between atoms: C_1  and  N_2
REMARK    2  A    between atoms: N_2  and  C_3
REMARK    3  A    between atoms: N_2  and  S_9
REMARK    4  A    between atoms: S_9  and  C_12
REMARK    5  A    between atoms: C_16  and  N_17
REMARK    6  A    between atoms: C_18  and  C_20
REMARK    7  A    between atoms: C_20  and  S_21
REMARK    8  A    between atoms: S_21  and  C_22
REMARK                            x       y       z     vdW  Elec       q    Type
REMARK                         _______ _______ _______ _____ _____    ______ ____
ROOT
ATOM      1  C   UNL     1       1.223   9.793  19.762  0.00  0.00    +0.000 A 
ATOM      2  C   UNL     1       1.693   9.817  18.443  0.00  0.00    +0.000 A 
ATOM      3  C   UNL     1       2.257   8.671  17.895  0.00  0.00    +0.000 A 
ATOM      4  C   UNL     1       2.334   7.492  18.643  0.00  0.00    +0.000 A 
ATOM      5  C   UNL     1       1.849   7.438  19.954  0.00  0.00    +0.000 A 
ATOM      6  C   UNL     1       1.292   8.601  20.515  0.00  0.00    +0.000 A 
ENDROOT
BRANCH   5   7
ATOM      7  N   UNL     1       1.838   6.243  20.718  0.00  0.00    +0.000 N 
ATOM      8  C   UNL     1       2.757   5.203  20.638  0.00  0.00    +0.000 C 
ATOM      9  O   UNL     1       3.789   5.210  19.968  0.00  0.00    +0.000 OA
ATOM     10  H   UNL     1       1.135   6.184  21.449  0.00  0.00    +0.000 HD
BRANCH   8  11
ATOM     11  C   UNL     1       2.406   3.982  21.481  0.00  0.00    +0.000 C 
BRANCH  11  12
ATOM     12  S   UNL     1       1.122   2.990  20.662  0.00  0.00    +0.000 S 
BRANCH  12  13
ATOM     13  C   UNL     1       1.829   2.841  19.074  0.00  0.00    +0.000 A 
ATOM     14  N   UNL     1       1.353   3.493  18.034  0.00  0.00    +0.000 NA
ATOM     15  N   UNL     1       2.071   3.230  16.885  0.00  0.00    +0.000 NA
ATOM     16  C   UNL     1       3.060   2.392  17.112  0.00  0.00    +0.000 A 
ATOM     17  S   UNL     1       3.187   1.854  18.735  0.00  0.00    +0.000 S 
ENDBRANCH  12  13
ENDBRANCH  11  12
ENDBRANCH   8  11
ENDBRANCH   5   7
BRANCH   1  18
ATOM     18  S   UNL     1       0.297  11.194  20.379  0.00  0.00    +0.000 S 
ATOM     19  O   UNL     1       1.264  12.131  20.920  0.00  0.00    +0.000 OA
ATOM     20  O   UNL     1      -0.744  10.649  21.230  0.00  0.00    +0.000 OA
BRANCH  18  22
ATOM     21  C   UNL     1      -0.036  13.228  18.587  0.00  0.00    +0.000 C 
ATOM     22  N   UNL     1      -0.454  11.894  19.029  0.00  0.00    +0.000 N 
BRANCH  22  23
ATOM     23  C   UNL     1      -1.720  11.389  18.612  0.00  0.00    +0.000 A 
ATOM     24  C   UNL     1      -1.821  10.246  17.821  0.00  0.00    +0.000 A 
ATOM     25  C   UNL     1      -3.076   9.828  17.368  0.00  0.00    +0.000 A 
ATOM     26  C   UNL     1      -4.223  10.542  17.720  0.00  0.00    +0.000 A 
ATOM     27  C   UNL     1      -4.123  11.660  18.547  0.00  0.00    +0.000 A 
ATOM     28  C   UNL     1      -2.871  12.083  18.992  0.00  0.00    +0.000 A 
ENDBRANCH  22  23
ENDBRANCH  18  22
ENDBRANCH   1  18
TORSDOF 7
ENDMDL
MODEL 4
REMARK VINA RESULT:      -7.4      4.891      6.968
REMARK  Name = 
REMARK  8 active torsions:
REMARK  status: ('A' for Active; 'I' for Inactive)
REMARK    1  A    between atoms: C_1  and  N_2
REMARK    2  A    between atoms: N_2  and  C_3
REMARK    3  A    between atoms: N_2  and  S_9
REMARK    4  A    between atoms: S_9  and  C_12
REMARK    5  A    between atoms: C_16  and  N_17
REMARK    6  A    between atoms: C_18  and  C_20
REMARK    7  A    between atoms: C_20  and  S_21
REMARK    8  A    between atoms: S_21  and  C_22
REMARK                            x       y       z     vdW  Elec       q    Type
REMARK                         _______ _______ _______ _____ _____    ______ ____
ROOT
ATOM      1  C   UNL     1       6.405   5.982  17.512  0.00  0.00    +0.000 A 
ATOM      2  C   UNL     1       6.939   5.290  18.606  0.00  0.00    +0.000 A 
ATOM      3  C   UNL     1       7.954   5.872  19.355  0.00  0.00    +0.000 A 
ATOM      4  C   UNL     1       8.424   7.150  19.039  0.00  0.00    +0.000 A 
ATOM      5  C   UNL     1       7.888   7.870  17.966  0.00  0.00    +0.000 A 
ATOM      6  C   UNL     1       6.872   7.275  17.197  0.00  0.00    +0.000 A 
ENDROOT
BRANCH   5   7
ATOM      7  N   UNL     1       8.282   9.197  17.660  0.00  0.00    +0.000 N 
ATOM      8  C   UNL     1       8.899  10.095  18.524  0.00  0.00    +0.000 C 
ATOM      9  O   UNL     1       9.300   9.837  19.658  0.00  0.00    +0.000 OA
ATOM     10  H   UNL     1       8.175   9.486  16.692  0.00  0.00    +0.000 HD
BRANCH   8  11
ATOM     11  C   UNL     1       9.073  11.501  17.957  0.00  0.00    +0.000 C 
BRANCH  11  12
ATOM     12  S   UNL     1       9.292  12.706  19.300  0.00  0.00    +0.000 S 
BRANCH  12  13
ATOM     13  C   UNL     1      10.378  13.826  18.520  0.00  0.00    +0.000 A 
ATOM     14  N   UNL     1      10.662  15.001  19.043  0.00  0.00    +0.000 NA
ATOM     15  N   UNL     1      11.546  15.716  18.260  0.00  0.00    +0.000 NA
ATOM     16  C   UNL     1      11.892  15.044  17.182  0.00  0.00    +0.000 A 
ATOM     17  S   UNL     1      11.162  13.500  17.033  0.00  0.00    +0.000 S 
ENDBRANCH  12  13
ENDBRANCH  11  12
ENDBRANCH   8  11
ENDBRANCH   5   7
BRANCH   1  18
ATOM     18  S   UNL     1       4.951   5.327  16.698  0.00  0.00    +0.000 S 
ATOM     19  O   UNL     1       4.965   3.891  16.905  0.00  0.00    +0.000 OA
ATOM     20  O   UNL     1       4.961   5.869  15.352  0.00  0.00    +0.000 OA
BRANCH  18  22
ATOM     21  C   UNL     1       3.504   7.443  17.638  0.00  0.00    +0.000 C 
ATOM     22  N   UNL     1       3.617   5.988  17.510  0.00  0.00    +0.000 N 
BRANCH  22  23
ATOM     23  C   UNL     1       2.871   5.152  18.392  0.00  0.00    +0.000 A 
ATOM     24  C   UNL     1       1.909   4.265  17.912  0.00  0.00    +0.000 A 
ATOM     25  C   UNL     1       1.145   3.520  18.815  0.00  0.00    +0.000 A 
ATOM     26  C   UNL     1       1.355   3.653  20.189  0.00  0.00    +0.000 A 
ATOM     27  C   UNL     1       2.346   4.511  20.664  0.00  0.00    +0.000 A 
ATOM     28  C   UNL     1       3.104   5.260  19.765  0.00  0.00    +0.000 A 
ENDBRANCH  22  23
ENDBRANCH  18  22
ENDBRANCH   1  18
TORSDOF 7
ENDMDL
MODEL 5
REMARK VINA RESULT:      -7.4      3.735      9.880
REMARK  Name = 
REMARK  8 active torsions:
REMARK  status: ('A' for Active; 'I' for Inactive)
REMARK    1  A    between atoms: C_1  and  N_2
REMARK    2  A    between atoms: N_2  and  C_3
REMARK    3  A    between atoms: N_2  and  S_9
REMARK    4  A    between atoms: S_9  and  C_12
REMARK    5  A    between atoms: C_16  and  N_17
REMARK    6  A    between atoms: C_18  and  C_20
REMARK    7  A    between atoms: C_20  and  S_21
REMARK    8  A    between atoms: S_21  and  C_22
REMARK                            x       y       z     vdW  Elec       q    Type
REMARK                         _______ _______ _______ _____ _____    ______ ____
ROOT
ATOM      1  C   UNL     1       1.397   8.889  20.034  0.00  0.00    +0.000 A 
ATOM      2  C   UNL     1       1.148   9.511  18.804  0.00  0.00    +0.000 A 
ATOM      3  C   UNL     1       1.638   8.942  17.636  0.00  0.00    +0.000 A 
ATOM      4  C   UNL     1       2.354   7.741  17.679  0.00  0.00    +0.000 A 
ATOM      5  C   UNL     1       2.593   7.089  18.893  0.00  0.00    +0.000 A 
ATOM      6  C   UNL     1       2.112   7.673  20.078  0.00  0.00    +0.000 A 
ENDROOT
BRANCH   5   7
ATOM      7  N   UNL     1       3.247   5.833  18.972  0.00  0.00    +0.000 N 
ATOM      8  C   UNL     1       4.493   5.516  18.445  0.00  0.00    +0.000 C 
ATOM      9  O   UNL     1       5.273   6.312  17.924  0.00  0.00    +0.000 OA
ATOM     10  H   UNL     1       2.791   5.125  19.540  0.00  0.00    +0.000 HD
BRANCH   8  11
ATOM     11  C   UNL     1       4.874   4.044  18.561  0.00  0.00    +0.000 C 
BRANCH  11  12
ATOM     12  S   UNL     1       3.459   2.985  18.136  0.00  0.00    +0.000 S 
BRANCH  12  13
ATOM     13  C   UNL     1       2.717   2.834  19.707  0.00  0.00    +0.000 A 
ATOM     14  N   UNL     1       3.423   2.596  20.792  0.00  0.00    +0.000 NA
ATOM     15  N   UNL     1       2.630   2.523  21.920  0.00  0.00    +0.000 NA
ATOM     16  C   UNL     1       1.360   2.715  21.633  0.00  0.00    +0.000 A 
ATOM     17  S   UNL     1       1.032   2.987  19.973  0.00  0.00    +0.000 S 
ENDBRANCH  12  13
ENDBRANCH  11  12
ENDBRANCH   8  11
ENDBRANCH   5   7
BRANCH   1  18
ATOM     18  S   UNL     1       0.573   9.503  21.499  0.00  0.00    +0.000 S 
ATOM     19  O   UNL     1       1.545   9.461  22.576  0.00  0.00    +0.000 OA
ATOM     20  O   UNL     1      -0.668   8.757  21.609  0.00  0.00    +0.000 OA
BRANCH  18  22
ATOM     21  C   UNL     1       1.248  12.079  20.897  0.00  0.00    +0.000 C 
ATOM     22  N   UNL     1       0.176  11.119  21.176  0.00  0.00    +0.000 N 
BRANCH  22  23
ATOM     23  C   UNL     1      -1.103  11.603  21.580  0.00  0.00    +0.000 A 
ATOM     24  C   UNL     1      -1.976  12.195  20.668  0.00  0.00    +0.000 A 
ATOM     25  C   UNL     1      -3.188  12.727  21.119  0.00  0.00    +0.000 A 
ATOM     26  C   UNL     1      -3.529  12.652  22.470  0.00  0.00    +0.000 A 
ATOM     27  C   UNL     1      -2.672  12.021  23.372  0.00  0.00    +0.000 A 
ATOM     28  C   UNL     1      -1.459  11.497  22.926  0.00  0.00    +0.000 A 
ENDBRANCH  22  23
ENDBRANCH  18  22
ENDBRANCH   1  18
TORSDOF 7
ENDMDL
MODEL 6
REMARK VINA RESULT:      -7.4      4.895      6.693
REMARK  Name = 
REMARK  8 active torsions:
REMARK  status: ('A' for Active; 'I' for Inactive)
REMARK    1  A    between atoms: C_1  and  N_2
REMARK    2  A    between atoms: N_2  and  C_3
REMARK    3  A    between atoms: N_2  and  S_9
REMARK    4  A    between atoms: S_9  and  C_12
REMARK    5  A    between atoms: C_16  and  N_17
REMARK    6  A    between atoms: C_18  and  C_20
REMARK    7  A    between atoms: C_20  and  S_21
REMARK    8  A    between atoms: S_21  and  C_22
REMARK                            x       y       z     vdW  Elec       q    Type
REMARK                         _______ _______ _______ _____ _____    ______ ____
ROOT
ATOM      1  C   UNL     1       6.685   6.225  17.183  0.00  0.00    +0.000 A 
ATOM      2  C   UNL     1       7.172   5.500  18.277  0.00  0.00    +0.000 A 
ATOM      3  C   UNL     1       8.077   6.096  19.147  0.00  0.00    +0.000 A 
ATOM      4  C   UNL     1       8.481   7.420  18.952  0.00  0.00    +0.000 A 
ATOM      5  C   UNL     1       7.988   8.172  17.880  0.00  0.00    +0.000 A 
ATOM      6  C   UNL     1       7.085   7.565  16.989  0.00  0.00    +0.000 A 
ENDROOT
BRANCH   5   7
ATOM      7  N   UNL     1       8.312   9.540  17.691  0.00  0.00    +0.000 N 
ATOM      8  C   UNL     1       9.001  10.356  18.580  0.00  0.00    +0.000 C 
ATOM      9  O   UNL     1       9.536   9.985  19.624  0.00  0.00    +0.000 OA
ATOM     10  H   UNL     1       8.087   9.933  16.782  0.00  0.00    +0.000 HD
BRANCH   8  11
ATOM     11  C   UNL     1       9.074  11.822  18.167  0.00  0.00    +0.000 C 
BRANCH  11  12
ATOM     12  S   UNL     1      10.485  12.640  18.970  0.00  0.00    +0.000 S 
BRANCH  12  13
ATOM     13  C   UNL     1      10.445  14.178  18.148  0.00  0.00    +0.000 A 
ATOM     14  N   UNL     1      11.472  14.627  17.457  0.00  0.00    +0.000 NA
ATOM     15  N   UNL     1      11.215  15.858  16.888  0.00  0.00    +0.000 NA
ATOM     16  C   UNL     1      10.002  16.280  17.174  0.00  0.00    +0.000 A 
ATOM     17  S   UNL     1       9.086  15.220  18.162  0.00  0.00    +0.000 S 
ENDBRANCH  12  13
ENDBRANCH  11  12
ENDBRANCH   8  11
ENDBRANCH   5   7
BRANCH   1  18
ATOM     18  S   UNL     1       5.356   5.533  16.205  0.00  0.00    +0.000 S 
ATOM     19  O   UNL     1       5.751   4.180  15.858  0.00  0.00    +0.000 OA
ATOM     20  O   UNL     1       5.074   6.500  15.161  0.00  0.00    +0.000 OA
BRANCH  18  22
ATOM     21  C   UNL     1       3.480   6.709  17.803  0.00  0.00    +0.000 C 
ATOM     22  N   UNL     1       4.003   5.468  17.226  0.00  0.00    +0.000 N 
BRANCH  22  23
ATOM     23  C   UNL     1       3.660   4.222  17.828  0.00  0.00    +0.000 A 
ATOM     24  C   UNL     1       4.307   3.767  18.976  0.00  0.00    +0.000 A 
ATOM     25  C   UNL     1       3.996   2.505  19.491  0.00  0.00    +0.000 A 
ATOM     26  C   UNL     1       3.031   1.712  18.868  0.00  0.00    +0.000 A 
ATOM     27  C   UNL     1       2.356   2.187  17.744  0.00  0.00    +0.000 A 
ATOM     28  C   UNL     1       2.671   3.442  17.225  0.00  0.00    +0.000 A 
ENDBRANCH  22  23
ENDBRANCH  18  22
ENDBRANCH   1  18
TORSDOF 7
ENDMDL
MODEL 7
REMARK VINA RESULT:      -7.4      2.548      3.649
REMARK  Name = 
REMARK  8 active torsions:
REMARK  status: ('A' for Active; 'I' for Inactive)
REMARK    1  A    between atoms: C_1  and  N_2
REMARK    2  A    between atoms: N_2  and  C_3
REMARK    3  A    between atoms: N_2  and  S_9
REMARK    4  A    between atoms: S_9  and  C_12
REMARK    5  A    between atoms: C_16  and  N_17
REMARK    6  A    between atoms: C_18  and  C_20
REMARK    7  A    between atoms: C_20  and  S_21
REMARK    8  A    between atoms: S_21  and  C_22
REMARK                            x       y       z     vdW  Elec       q    Type
REMARK                         _______ _______ _______ _____ _____    ______ ____
ROOT
ATOM      1  C   UNL     1       2.546   6.686  19.119  0.00  0.00    +0.000 A 
ATOM      2  C   UNL     1       2.456   7.355  17.893  0.00  0.00    +0.000 A 
ATOM      3  C   UNL     1       1.874   8.616  17.841  0.00  0.00    +0.000 A 
ATOM      4  C   UNL     1       1.404   9.228  19.007  0.00  0.00    +0.000 A 
ATOM      5  C   UNL     1       1.507   8.588  20.247  0.00  0.00    +0.000 A 
ATOM      6  C   UNL     1       2.080   7.305  20.298  0.00  0.00    +0.000 A 
ENDROOT
BRANCH   5   7
ATOM      7  N   UNL     1       1.113   9.205  21.462  0.00  0.00    +0.000 N 
ATOM      8  C   UNL     1      -0.079   8.998  22.146  0.00  0.00    +0.000 C 
ATOM      9  O   UNL     1      -0.932   8.158  21.859  0.00  0.00    +0.000 OA
ATOM     10  H   UNL     1       1.808   9.793  21.913  0.00  0.00    +0.000 HD
BRANCH   8  11
ATOM     11  C   UNL     1      -0.287   9.911  23.349  0.00  0.00    +0.000 C 
BRANCH  11  12
ATOM     12  S   UNL     1      -1.399  11.284  22.922  0.00  0.00    +0.000 S 
BRANCH  12  13
ATOM     13  C   UNL     1      -0.554  11.935  21.543  0.00  0.00    +0.000 A 
ATOM     14  N   UNL     1       0.674  12.401  21.633  0.00  0.00    +0.000 NA
ATOM     15  N   UNL     1       1.145  12.858  20.418  0.00  0.00    +0.000 NA
ATOM     16  C   UNL     1       0.250  12.711  19.465  0.00  0.00    +0.000 A 
ATOM     17  S   UNL     1      -1.233  12.018  19.972  0.00  0.00    +0.000 S 
ENDBRANCH  12  13
ENDBRANCH  11  12
ENDBRANCH   8  11
ENDBRANCH   5   7
BRANCH   1  18
ATOM     18  S   UNL     1       3.496   5.171  19.214  0.00  0.00    +0.000 S 
ATOM     19  O   UNL     1       2.801   4.298  20.141  0.00  0.00    +0.000 OA
ATOM     20  O   UNL     1       4.867   5.569  19.475  0.00  0.00    +0.000 OA
BRANCH  18  22
ATOM     21  C   UNL     1       2.502   3.394  17.395  0.00  0.00    +0.000 C 
ATOM     22  N   UNL     1       3.444   4.484  17.665  0.00  0.00    +0.000 N 
BRANCH  22  23
ATOM     23  C   UNL     1       4.558   4.671  16.796  0.00  0.00    +0.000 A 
ATOM     24  C   UNL     1       5.073   5.940  16.536  0.00  0.00    +0.000 A 
ATOM     25  C   UNL     1       6.116   6.088  15.618  0.00  0.00    +0.000 A 
ATOM     26  C   UNL     1       6.651   4.969  14.977  0.00  0.00    +0.000 A 
ATOM     27  C   UNL     1       6.163   3.697  15.271  0.00  0.00    +0.000 A 
ATOM     28  C   UNL     1       5.116   3.548  16.180  0.00  0.00    +0.000 A 
ENDBRANCH  22  23
ENDBRANCH  18  22
ENDBRANCH   1  18
TORSDOF 7
ENDMDL
MODEL 8
REMARK VINA RESULT:      -7.3      2.719      3.480
REMARK  Name = 
REMARK  8 active torsions:
REMARK  status: ('A' for Active; 'I' for Inactive)
REMARK    1  A    between atoms: C_1  and  N_2
REMARK    2  A    between atoms: N_2  and  C_3
REMARK    3  A    between atoms: N_2  and  S_9
REMARK    4  A    between atoms: S_9  and  C_12
REMARK    5  A    between atoms: C_16  and  N_17
REMARK    6  A    between atoms: C_18  and  C_20
REMARK    7  A    between atoms: C_20  and  S_21
REMARK    8  A    between atoms: S_21  and  C_22
REMARK                            x       y       z     vdW  Elec       q    Type
REMARK                         _______ _______ _______ _____ _____    ______ ____
ROOT
ATOM      1  C   UNL     1       2.436   6.147  18.925  0.00  0.00    +0.000 A 
ATOM      2  C   UNL     1       2.459   6.896  17.742  0.00  0.00    +0.000 A 
ATOM      3  C   UNL     1       2.063   8.227  17.765  0.00  0.00    +0.000 A 
ATOM      4  C   UNL     1       1.667   8.828  18.964  0.00  0.00    +0.000 A 
ATOM      5  C   UNL     1       1.660   8.107  20.162  0.00  0.00    +0.000 A 
ATOM      6  C   UNL     1       2.045   6.754  20.137  0.00  0.00    +0.000 A 
ENDROOT
BRANCH   5   7
ATOM      7  N   UNL     1       1.340   8.698  21.411  0.00  0.00    +0.000 N 
ATOM      8  C   UNL     1       0.098   8.690  22.035  0.00  0.00    +0.000 C 
ATOM      9  O   UNL     1      -0.891   8.068  21.651  0.00  0.00    +0.000 OA
ATOM     10  H   UNL     1       2.117   9.095  21.931  0.00  0.00    +0.000 HD
BRANCH   8  11
ATOM     11  C   UNL     1       0.021   9.534  23.303  0.00  0.00    +0.000 C 
BRANCH  11  12
ATOM     12  S   UNL     1      -1.009  11.005  23.026  0.00  0.00    +0.000 S 
BRANCH  12  13
ATOM     13  C   UNL     1      -0.336  11.562  21.517  0.00  0.00    +0.000 A 
ATOM     14  N   UNL     1       0.918  11.951  21.414  0.00  0.00    +0.000 NA
ATOM     15  N   UNL     1       1.234  12.343  20.128  0.00  0.00    +0.000 NA
ATOM     16  C   UNL     1       0.203  12.227  19.319  0.00  0.00    +0.000 A 
ATOM     17  S   UNL     1      -1.229  11.645  20.058  0.00  0.00    +0.000 S 
ENDBRANCH  12  13
ENDBRANCH  11  12
ENDBRANCH   8  11
ENDBRANCH   5   7
BRANCH   1  18
ATOM     18  S   UNL     1       3.161   4.511  18.930  0.00  0.00    +0.000 S 
ATOM     19  O   UNL     1       2.475   3.745  17.906  0.00  0.00    +0.000 OA
ATOM     20  O   UNL     1       3.140   4.063  20.310  0.00  0.00    +0.000 OA
BRANCH  18  22
ATOM     21  C   UNL     1       5.723   5.314  19.425  0.00  0.00    +0.000 C 
ATOM     22  N   UNL     1       4.782   4.711  18.477  0.00  0.00    +0.000 N 
BRANCH  22  23
ATOM     23  C   UNL     1       5.113   4.686  17.090  0.00  0.00    +0.000 A 
ATOM     24  C   UNL     1       5.400   3.490  16.433  0.00  0.00    +0.000 A 
ATOM     25  C   UNL     1       5.795   3.517  15.093  0.00  0.00    +0.000 A 
ATOM     26  C   UNL     1       5.887   4.732  14.412  0.00  0.00    +0.000 A 
ATOM     27  C   UNL     1       5.559   5.922  15.060  0.00  0.00    +0.000 A 
ATOM     28  C   UNL     1       5.171   5.898  16.399  0.00  0.00    +0.000 A 
ENDBRANCH  22  23
ENDBRANCH  18  22
ENDBRANCH   1  18
TORSDOF 7
ENDMDL
MODEL 9
REMARK VINA RESULT:      -7.3      4.744      6.828
REMARK  Name = 
REMARK  8 active torsions:
REMARK  status: ('A' for Active; 'I' for Inactive)
REMARK    1  A    between atoms: C_1  and  N_2
REMARK    2  A    between atoms: N_2  and  C_3
REMARK    3  A    between atoms: N_2  and  S_9
REMARK    4  A    between atoms: S_9  and  C_12
REMARK    5  A    between atoms: C_16  and  N_17
REMARK    6  A    between atoms: C_18  and  C_20
REMARK    7  A    between atoms: C_20  and  S_21
REMARK    8  A    between atoms: S_21  and  C_22
REMARK                            x       y       z     vdW  Elec       q    Type
REMARK                         _______ _______ _______ _____ _____    ______ ____
ROOT
ATOM      1  C   UNL     1       6.436   6.069  17.440  0.00  0.00    +0.000 A 
ATOM      2  C   UNL     1       6.960   5.361  18.528  0.00  0.00    +0.000 A 
ATOM      3  C   UNL     1       7.965   5.932  19.299  0.00  0.00    +0.000 A 
ATOM      4  C   UNL     1       8.434   7.218  19.011  0.00  0.00    +0.000 A 
ATOM      5  C   UNL     1       7.907   7.955  17.945  0.00  0.00    +0.000 A 
ATOM      6  C   UNL     1       6.902   7.370  17.154  0.00  0.00    +0.000 A 
ENDROOT
BRANCH   5   7
ATOM      7  N   UNL     1       8.300   9.289  17.667  0.00  0.00    +0.000 N 
ATOM      8  C   UNL     1       8.906  10.172  18.553  0.00  0.00    +0.000 C 
ATOM      9  O   UNL     1       9.298   9.894  19.685  0.00  0.00    +0.000 OA
ATOM     10  H   UNL     1       8.199   9.595  16.704  0.00  0.00    +0.000 HD
BRANCH   8  11
ATOM     11  C   UNL     1       9.080  11.588  18.014  0.00  0.00    +0.000 C 
BRANCH  11  12
ATOM     12  S   UNL     1       9.978  12.619  19.211  0.00  0.00    +0.000 S 
BRANCH  12  13
ATOM     13  C   UNL     1      10.153  14.080  18.275  0.00  0.00    +0.000 A 
ATOM     14  N   UNL     1       9.227  15.016  18.264  0.00  0.00    +0.000 NA
ATOM     15  N   UNL     1       9.579  16.084  17.462  0.00  0.00    +0.000 NA
ATOM     16  C   UNL     1      10.760  15.904  16.908  0.00  0.00    +0.000 A 
ATOM     17  S   UNL     1      11.525  14.424  17.310  0.00  0.00    +0.000 S 
ENDBRANCH  12  13
ENDBRANCH  11  12
ENDBRANCH   8  11
ENDBRANCH   5   7
BRANCH   1  18
ATOM     18  S   UNL     1       4.994   5.424  16.599  0.00  0.00    +0.000 S 
ATOM     19  O   UNL     1       5.052   3.979  16.714  0.00  0.00    +0.000 OA
ATOM     20  O   UNL     1       4.975   6.050  15.289  0.00  0.00    +0.000 OA
BRANCH  18  22
ATOM     21  C   UNL     1       3.491   7.434  17.674  0.00  0.00    +0.000 C 
ATOM     22  N   UNL     1       3.649   5.993  17.462  0.00  0.00    +0.000 N 
BRANCH  22  23
ATOM     23  C   UNL     1       2.942   5.084  18.302  0.00  0.00    +0.000 A 
ATOM     24  C   UNL     1       3.316   4.879  19.629  0.00  0.00    +0.000 A 
ATOM     25  C   UNL     1       2.645   3.922  20.396  0.00  0.00    +0.000 A 
ATOM     26  C   UNL     1       1.596   3.187  19.840  0.00  0.00    +0.000 A 
ATOM     27  C   UNL     1       1.197   3.424  18.526  0.00  0.00    +0.000 A 
ATOM     28  C   UNL     1       1.870   4.373  17.757  0.00  0.00    +0.000 A 
ENDBRANCH  22  23
ENDBRANCH  18  22
ENDBRANCH   1  18
TORSDOF 7
ENDMDL
