MODEL 1
REMARK VINA RESULT:      -6.1      0.000      0.000
REMARK  Name = 
REMARK  8 active torsions:
REMARK  status: ('A' for Active; 'I' for Inactive)
REMARK    1  A    between atoms: C_1  and  O_2
REMARK    2  A    between atoms: O_2  and  C_3
REMARK    3  A    between atoms: C_8  and  C_9
REMARK    4  A    between atoms: C_9  and  C_10
REMARK    5  A    between atoms: C_10  and  C_11
REMARK    6  A    between atoms: C_11  and  C_12
REMARK    7  A    between atoms: C_12  and  C_13
REMARK    8  A    between atoms: C_13  and  O_15
REMARK                            x       y       z     vdW  Elec       q    Type
REMARK                         _______ _______ _______ _____ _____    ______ ____
ROOT
ATOM      1  C   UNL     1       6.522   6.030  16.643  0.00  0.00    +0.000 A 
ATOM      2  C   UNL     1       6.071   5.172  15.644  0.00  0.00    +0.000 A 
ATOM      3  C   UNL     1       4.957   4.366  15.872  0.00  0.00    +0.000 A 
ATOM      4  C   UNL     1       4.281   4.408  17.097  0.00  0.00    +0.000 A 
ATOM      5 BR   UNL     1       2.807   3.221  17.277  0.00  0.00    +0.000 Br
ATOM      6  C   UNL     1       4.707   5.274  18.116  0.00  0.00    +0.000 A 
ATOM      7  C   UNL     1       5.840   6.073  17.864  0.00  0.00    +0.000 A 
ENDROOT
BRANCH   1   9
ATOM      8  C   UNL     1       7.777   7.791  17.617  0.00  0.00    +0.000 C 
ATOM      9  O   UNL     1       7.604   6.861  16.554  0.00  0.00    +0.000 OA
ENDBRANCH   1   9
BRANCH   6  10
ATOM     10  C   UNL     1       4.065   5.371  19.483  0.00  0.00    +0.000 C 
BRANCH  10  11
ATOM     11  C   UNL     1       2.748   6.166  19.529  0.00  0.00    +0.000 C 
BRANCH  11  12
ATOM     12  C   UNL     1       1.780   5.765  20.648  0.00  0.00    +0.000 C 
BRANCH  12  13
ATOM     13  C   UNL     1       1.080   4.436  20.364  0.00  0.00    +0.000 C 
BRANCH  13  14
ATOM     14  C   UNL     1       1.641   3.285  21.161  0.00  0.00    +0.000 C 
ATOM     15  O   UNL     1       2.241   3.374  22.219  0.00  0.00    +0.000 OA
BRANCH  14  16
ATOM     16  O   UNL     1       1.412   2.095  20.550  0.00  0.00    +0.000 OA
ATOM     17  H   UNL     1       0.557   1.689  20.788  0.00  0.00    +0.000 HD
ENDBRANCH  14  16
ENDBRANCH  13  14
ENDBRANCH  12  13
ENDBRANCH  11  12
ENDBRANCH  10  11
ENDBRANCH   6  10
TORSDOF 7
ENDMDL
MODEL 2
REMARK VINA RESULT:      -6.0      1.981      2.730
REMARK  Name = 
REMARK  8 active torsions:
REMARK  status: ('A' for Active; 'I' for Inactive)
REMARK    1  A    between atoms: C_1  and  O_2
REMARK    2  A    between atoms: O_2  and  C_3
REMARK    3  A    between atoms: C_8  and  C_9
REMARK    4  A    between atoms: C_9  and  C_10
REMARK    5  A    between atoms: C_10  and  C_11
REMARK    6  A    between atoms: C_11  and  C_12
REMARK    7  A    between atoms: C_12  and  C_13
REMARK    8  A    between atoms: C_13  and  O_15
REMARK                            x       y       z     vdW  Elec       q    Type
REMARK                         _______ _______ _______ _____ _____    ______ ____
ROOT
ATOM      1  C   UNL     1       5.692   5.167  15.498  0.00  0.00    +0.000 A 
ATOM      2  C   UNL     1       5.377   6.505  15.720  0.00  0.00    +0.000 A 
ATOM      3  C   UNL     1       4.487   6.848  16.736  0.00  0.00    +0.000 A 
ATOM      4  C   UNL     1       3.902   5.863  17.541  0.00  0.00    +0.000 A 
ATOM      5 BR   UNL     1       2.676   6.479  18.855  0.00  0.00    +0.000 Br
ATOM      6  C   UNL     1       4.214   4.508  17.346  0.00  0.00    +0.000 A 
ATOM      7  C   UNL     1       5.110   4.186  16.307  0.00  0.00    +0.000 A 
ENDROOT
BRANCH   1   9
ATOM      8  C   UNL     1       5.976   3.787  13.590  0.00  0.00    +0.000 C 
ATOM      9  O   UNL     1       6.536   4.696  14.531  0.00  0.00    +0.000 OA
ENDBRANCH   1   9
BRANCH   6  10
ATOM     10  C   UNL     1       3.614   3.368  18.139  0.00  0.00    +0.000 C 
BRANCH  10  11
ATOM     11  C   UNL     1       2.114   3.123  17.896  0.00  0.00    +0.000 C 
BRANCH  11  12
ATOM     12  C   UNL     1       1.386   2.361  19.010  0.00  0.00    +0.000 C 
BRANCH  12  13
ATOM     13  C   UNL     1       0.801   3.295  20.069  0.00  0.00    +0.000 C 
BRANCH  13  14
ATOM     14  C   UNL     1       1.659   3.406  21.305  0.00  0.00    +0.000 C 
ATOM     15  O   UNL     1       2.427   4.317  21.560  0.00  0.00    +0.000 OA
BRANCH  14  16
ATOM     16  O   UNL     1       1.489   2.342  22.128  0.00  0.00    +0.000 OA
ATOM     17  H   UNL     1       0.869   1.672  21.783  0.00  0.00    +0.000 HD
ENDBRANCH  14  16
ENDBRANCH  13  14
ENDBRANCH  12  13
ENDBRANCH  11  12
ENDBRANCH  10  11
ENDBRANCH   6  10
TORSDOF 7
ENDMDL
MODEL 3
REMARK VINA RESULT:      -5.9      2.373      3.375
REMARK  Name = 
REMARK  8 active torsions:
REMARK  status: ('A' for Active; 'I' for Inactive)
REMARK    1  A    between atoms: C_1  and  O_2
REMARK    2  A    between atoms: O_2  and  C_3
REMARK    3  A    between atoms: C_8  and  C_9
REMARK    4  A    between atoms: C_9  and  C_10
REMARK    5  A    between atoms: C_10  and  C_11
REMARK    6  A    between atoms: C_11  and  C_12
REMARK    7  A    between atoms: C_12  and  C_13
REMARK    8  A    between atoms: C_13  and  O_15
REMARK                            x       y       z     vdW  Elec       q    Type
REMARK                         _______ _______ _______ _____ _____    ______ ____
ROOT
ATOM      1  C   UNL     1       3.060   7.127  18.068  0.00  0.00    +0.000 A 
ATOM      2  C   UNL     1       4.304   7.418  17.517  0.00  0.00    +0.000 A 
ATOM      3  C   UNL     1       5.038   6.413  16.888  0.00  0.00    +0.000 A 
ATOM      4  C   UNL     1       4.538   5.107  16.803  0.00  0.00    +0.000 A 
ATOM      5 BR   UNL     1       5.669   3.836  15.957  0.00  0.00    +0.000 Br
ATOM      6  C   UNL     1       3.280   4.791  17.339  0.00  0.00    +0.000 A 
ATOM      7  C   UNL     1       2.562   5.822  17.976  0.00  0.00    +0.000 A 
ENDROOT
BRANCH   1   9
ATOM      8  C   UNL     1       1.582   8.974  17.909  0.00  0.00    +0.000 C 
ATOM      9  O   UNL     1       2.247   8.013  18.719  0.00  0.00    +0.000 OA
ENDBRANCH   1   9
BRANCH   6  10
ATOM     10  C   UNL     1       2.666   3.408  17.325  0.00  0.00    +0.000 C 
BRANCH  10  11
ATOM     11  C   UNL     1       2.941   2.561  18.580  0.00  0.00    +0.000 C 
BRANCH  11  12
ATOM     12  C   UNL     1       1.699   2.157  19.383  0.00  0.00    +0.000 C 
BRANCH  12  13
ATOM     13  C   UNL     1       1.145   3.311  20.218  0.00  0.00    +0.000 C 
BRANCH  13  14
ATOM     14  C   UNL     1       2.025   3.676  21.388  0.00  0.00    +0.000 C 
ATOM     15  O   UNL     1       2.404   2.915  22.261  0.00  0.00    +0.000 OA
BRANCH  14  16
ATOM     16  O   UNL     1       2.355   4.992  21.373  0.00  0.00    +0.000 OA
ATOM     17  H   UNL     1       2.824   5.271  20.565  0.00  0.00    +0.000 HD
ENDBRANCH  14  16
ENDBRANCH  13  14
ENDBRANCH  12  13
ENDBRANCH  11  12
ENDBRANCH  10  11
ENDBRANCH   6  10
TORSDOF 7
ENDMDL
MODEL 4
REMARK VINA RESULT:      -5.9      2.098      5.907
REMARK  Name = 
REMARK  8 active torsions:
REMARK  status: ('A' for Active; 'I' for Inactive)
REMARK    1  A    between atoms: C_1  and  O_2
REMARK    2  A    between atoms: O_2  and  C_3
REMARK    3  A    between atoms: C_8  and  C_9
REMARK    4  A    between atoms: C_9  and  C_10
REMARK    5  A    between atoms: C_10  and  C_11
REMARK    6  A    between atoms: C_11  and  C_12
REMARK    7  A    between atoms: C_12  and  C_13
REMARK    8  A    between atoms: C_13  and  O_15
REMARK                            x       y       z     vdW  Elec       q    Type
REMARK                         _______ _______ _______ _____ _____    ______ ____
ROOT
ATOM      1  C   UNL     1       2.757   4.148  20.240  0.00  0.00    +0.000 A 
ATOM      2  C   UNL     1       2.005   5.220  20.710  0.00  0.00    +0.000 A 
ATOM      3  C   UNL     1       1.961   6.409  19.982  0.00  0.00    +0.000 A 
ATOM      4  C   UNL     1       2.666   6.540  18.779  0.00  0.00    +0.000 A 
ATOM      5 BR   UNL     1       2.545   8.232  17.923  0.00  0.00    +0.000 Br
ATOM      6  C   UNL     1       3.420   5.469  18.277  0.00  0.00    +0.000 A 
ATOM      7  C   UNL     1       3.456   4.281  19.035  0.00  0.00    +0.000 A 
ENDROOT
BRANCH   1   9
ATOM      8  C   UNL     1       1.853   2.560  21.750  0.00  0.00    +0.000 C 
ATOM      9  O   UNL     1       2.895   2.937  20.859  0.00  0.00    +0.000 OA
ENDBRANCH   1   9
BRANCH   6  10
ATOM     10  C   UNL     1       4.240   5.519  17.006  0.00  0.00    +0.000 C 
BRANCH  10  11
ATOM     11  C   UNL     1       5.515   6.377  17.087  0.00  0.00    +0.000 C 
BRANCH  11  12
ATOM     12  C   UNL     1       6.822   5.639  16.772  0.00  0.00    +0.000 C 
BRANCH  12  13
ATOM     13  C   UNL     1       7.428   4.975  18.007  0.00  0.00    +0.000 C 
BRANCH  13  14
ATOM     14  C   UNL     1       7.906   5.963  19.042  0.00  0.00    +0.000 C 
ATOM     15  O   UNL     1       8.358   7.072  18.814  0.00  0.00    +0.000 OA
BRANCH  14  16
ATOM     16  O   UNL     1       7.787   5.468  20.299  0.00  0.00    +0.000 OA
ATOM     17  H   UNL     1       7.503   6.129  20.958  0.00  0.00    +0.000 HD
ENDBRANCH  14  16
ENDBRANCH  13  14
ENDBRANCH  12  13
ENDBRANCH  11  12
ENDBRANCH  10  11
ENDBRANCH   6  10
TORSDOF 7
ENDMDL
MODEL 5
REMARK VINA RESULT:      -5.9      2.390      3.181
REMARK  Name = 
REMARK  8 active torsions:
REMARK  status: ('A' for Active; 'I' for Inactive)
REMARK    1  A    between atoms: C_1  and  O_2
REMARK    2  A    between atoms: O_2  and  C_3
REMARK    3  A    between atoms: C_8  and  C_9
REMARK    4  A    between atoms: C_9  and  C_10
REMARK    5  A    between atoms: C_10  and  C_11
REMARK    6  A    between atoms: C_11  and  C_12
REMARK    7  A    between atoms: C_12  and  C_13
REMARK    8  A    between atoms: C_13  and  O_15
REMARK                            x       y       z     vdW  Elec       q    Type
REMARK                         _______ _______ _______ _____ _____    ______ ____
ROOT
ATOM      1  C   UNL     1       5.332   4.737  16.405  0.00  0.00    +0.000 A 
ATOM      2  C   UNL     1       5.663   6.079  16.570  0.00  0.00    +0.000 A 
ATOM      3  C   UNL     1       4.766   6.942  17.198  0.00  0.00    +0.000 A 
ATOM      4  C   UNL     1       3.531   6.477  17.667  0.00  0.00    +0.000 A 
ATOM      5 BR   UNL     1       2.397   7.778  18.461  0.00  0.00    +0.000 Br
ATOM      6  C   UNL     1       3.180   5.125  17.525  0.00  0.00    +0.000 A 
ATOM      7  C   UNL     1       4.100   4.275  16.879  0.00  0.00    +0.000 A 
ENDROOT
BRANCH   1   9
ATOM      8  C   UNL     1       6.222   3.875  14.382  0.00  0.00    +0.000 C 
ATOM      9  O   UNL     1       6.112   3.792  15.798  0.00  0.00    +0.000 OA
ENDBRANCH   1   9
BRANCH   6  10
ATOM     10  C   UNL     1       1.862   4.531  17.969  0.00  0.00    +0.000 C 
BRANCH  10  11
ATOM     11  C   UNL     1       1.668   4.442  19.494  0.00  0.00    +0.000 C 
BRANCH  11  12
ATOM     12  C   UNL     1       1.675   3.022  20.073  0.00  0.00    +0.000 C 
BRANCH  12  13
ATOM     13  C   UNL     1       3.042   2.627  20.631  0.00  0.00    +0.000 C 
BRANCH  13  14
ATOM     14  C   UNL     1       3.965   2.046  19.589  0.00  0.00    +0.000 C 
ATOM     15  O   UNL     1       3.628   1.353  18.644  0.00  0.00    +0.000 OA
BRANCH  14  16
ATOM     16  O   UNL     1       5.259   2.375  19.828  0.00  0.00    +0.000 OA
ATOM     17  H   UNL     1       5.822   1.614  20.063  0.00  0.00    +0.000 HD
ENDBRANCH  14  16
ENDBRANCH  13  14
ENDBRANCH  12  13
ENDBRANCH  11  12
ENDBRANCH  10  11
ENDBRANCH   6  10
TORSDOF 7
ENDMDL
MODEL 6
REMARK VINA RESULT:      -5.9      2.855      3.873
REMARK  Name = 
REMARK  8 active torsions:
REMARK  status: ('A' for Active; 'I' for Inactive)
REMARK    1  A    between atoms: C_1  and  O_2
REMARK    2  A    between atoms: O_2  and  C_3
REMARK    3  A    between atoms: C_8  and  C_9
REMARK    4  A    between atoms: C_9  and  C_10
REMARK    5  A    between atoms: C_10  and  C_11
REMARK    6  A    between atoms: C_11  and  C_12
REMARK    7  A    between atoms: C_12  and  C_13
REMARK    8  A    between atoms: C_13  and  O_15
REMARK                            x       y       z     vdW  Elec       q    Type
REMARK                         _______ _______ _______ _____ _____    ______ ____
ROOT
ATOM      1  C   UNL     1       2.361   7.916  18.181  0.00  0.00    +0.000 A 
ATOM      2  C   UNL     1       3.483   7.694  17.388  0.00  0.00    +0.000 A 
ATOM      3  C   UNL     1       4.304   6.595  17.641  0.00  0.00    +0.000 A 
ATOM      4  C   UNL     1       4.015   5.709  18.685  0.00  0.00    +0.000 A 
ATOM      5 BR   UNL     1       5.248   4.285  18.934  0.00  0.00    +0.000 Br
ATOM      6  C   UNL     1       2.882   5.903  19.490  0.00  0.00    +0.000 A 
ATOM      7  C   UNL     1       2.073   7.025  19.220  0.00  0.00    +0.000 A 
ENDROOT
BRANCH   1   9
ATOM      8  C   UNL     1       2.048  10.263  18.045  0.00  0.00    +0.000 C 
ATOM      9  O   UNL     1       1.484   8.957  18.050  0.00  0.00    +0.000 OA
ENDBRANCH   1   9
BRANCH   6  10
ATOM     10  C   UNL     1       2.500   5.022  20.659  0.00  0.00    +0.000 C 
BRANCH  10  11
ATOM     11  C   UNL     1       1.131   4.329  20.532  0.00  0.00    +0.000 C 
BRANCH  11  12
ATOM     12  C   UNL     1       1.183   2.812  20.314  0.00  0.00    +0.000 C 
BRANCH  12  13
ATOM     13  C   UNL     1       0.857   2.419  18.874  0.00  0.00    +0.000 C 
BRANCH  13  14
ATOM     14  C   UNL     1       2.067   2.398  17.973  0.00  0.00    +0.000 C 
ATOM     15  O   UNL     1       2.276   3.157  17.042  0.00  0.00    +0.000 OA
BRANCH  14  16
ATOM     16  O   UNL     1       2.924   1.403  18.310  0.00  0.00    +0.000 OA
ATOM     17  H   UNL     1       3.505   1.622  19.063  0.00  0.00    +0.000 HD
ENDBRANCH  14  16
ENDBRANCH  13  14
ENDBRANCH  12  13
ENDBRANCH  11  12
ENDBRANCH  10  11
ENDBRANCH   6  10
TORSDOF 7
ENDMDL
MODEL 7
REMARK VINA RESULT:      -5.9      1.886      2.846
REMARK  Name = 
REMARK  8 active torsions:
REMARK  status: ('A' for Active; 'I' for Inactive)
REMARK    1  A    between atoms: C_1  and  O_2
REMARK    2  A    between atoms: O_2  and  C_3
REMARK    3  A    between atoms: C_8  and  C_9
REMARK    4  A    between atoms: C_9  and  C_10
REMARK    5  A    between atoms: C_10  and  C_11
REMARK    6  A    between atoms: C_11  and  C_12
REMARK    7  A    between atoms: C_12  and  C_13
REMARK    8  A    between atoms: C_13  and  O_15
REMARK                            x       y       z     vdW  Elec       q    Type
REMARK                         _______ _______ _______ _____ _____    ______ ____
ROOT
ATOM      1  C   UNL     1       5.756   5.354  15.931  0.00  0.00    +0.000 A 
ATOM      2  C   UNL     1       5.778   6.625  16.497  0.00  0.00    +0.000 A 
ATOM      3  C   UNL     1       4.794   6.994  17.414  0.00  0.00    +0.000 A 
ATOM      4  C   UNL     1       3.780   6.098  17.776  0.00  0.00    +0.000 A 
ATOM      5 BR   UNL     1       2.487   6.756  19.002  0.00  0.00    +0.000 Br
ATOM      6  C   UNL     1       3.744   4.806  17.230  0.00  0.00    +0.000 A 
ATOM      7  C   UNL     1       4.744   4.461  16.299  0.00  0.00    +0.000 A 
ENDROOT
BRANCH   1   9
ATOM      8  C   UNL     1       6.160   3.887  14.112  0.00  0.00    +0.000 C 
ATOM      9  O   UNL     1       6.649   4.872  15.014  0.00  0.00    +0.000 OA
ENDBRANCH   1   9
BRANCH   6  10
ATOM     10  C   UNL     1       2.676   3.778  17.531  0.00  0.00    +0.000 C 
BRANCH  10  11
ATOM     11  C   UNL     1       3.202   2.372  17.870  0.00  0.00    +0.000 C 
BRANCH  11  12
ATOM     12  C   UNL     1       3.309   2.055  19.367  0.00  0.00    +0.000 C 
BRANCH  12  13
ATOM     13  C   UNL     1       2.817   3.207  20.242  0.00  0.00    +0.000 C 
BRANCH  13  14
ATOM     14  C   UNL     1       1.584   2.865  21.041  0.00  0.00    +0.000 C 
ATOM     15  O   UNL     1       1.566   2.499  22.203  0.00  0.00    +0.000 OA
BRANCH  14  16
ATOM     16  O   UNL     1       0.455   3.002  20.301  0.00  0.00    +0.000 OA
ATOM     17  H   UNL     1       0.303   2.268  19.675  0.00  0.00    +0.000 HD
ENDBRANCH  14  16
ENDBRANCH  13  14
ENDBRANCH  12  13
ENDBRANCH  11  12
ENDBRANCH  10  11
ENDBRANCH   6  10
TORSDOF 7
ENDMDL
MODEL 8
REMARK VINA RESULT:      -5.8      0.824      1.234
REMARK  Name = 
REMARK  8 active torsions:
REMARK  status: ('A' for Active; 'I' for Inactive)
REMARK    1  A    between atoms: C_1  and  O_2
REMARK    2  A    between atoms: O_2  and  C_3
REMARK    3  A    between atoms: C_8  and  C_9
REMARK    4  A    between atoms: C_9  and  C_10
REMARK    5  A    between atoms: C_10  and  C_11
REMARK    6  A    between atoms: C_11  and  C_12
REMARK    7  A    between atoms: C_12  and  C_13
REMARK    8  A    between atoms: C_13  and  O_15
REMARK                            x       y       z     vdW  Elec       q    Type
REMARK                         _______ _______ _______ _____ _____    ______ ____
ROOT
ATOM      1  C   UNL     1       6.177   6.567  16.870  0.00  0.00    +0.000 A 
ATOM      2  C   UNL     1       6.456   5.246  16.532  0.00  0.00    +0.000 A 
ATOM      3  C   UNL     1       5.463   4.275  16.655  0.00  0.00    +0.000 A 
ATOM      4  C   UNL     1       4.184   4.611  17.116  0.00  0.00    +0.000 A 
ATOM      5 BR   UNL     1       2.951   3.173  17.272  0.00  0.00    +0.000 Br
ATOM      6  C   UNL     1       3.874   5.938  17.449  0.00  0.00    +0.000 A 
ATOM      7  C   UNL     1       4.897   6.900  17.324  0.00  0.00    +0.000 A 
ENDROOT
BRANCH   1   9
ATOM      8  C   UNL     1       7.957   7.746  17.903  0.00  0.00    +0.000 C 
ATOM      9  O   UNL     1       7.059   7.610  16.808  0.00  0.00    +0.000 OA
ENDBRANCH   1   9
BRANCH   6  10
ATOM     10  C   UNL     1       2.535   6.397  17.983  0.00  0.00    +0.000 C 
BRANCH  10  11
ATOM     11  C   UNL     1       2.491   6.650  19.501  0.00  0.00    +0.000 C 
BRANCH  11  12
ATOM     12  C   UNL     1       2.755   5.420  20.377  0.00  0.00    +0.000 C 
BRANCH  12  13
ATOM     13  C   UNL     1       1.487   4.605  20.634  0.00  0.00    +0.000 C 
BRANCH  13  14
ATOM     14  C   UNL     1       1.767   3.188  21.071  0.00  0.00    +0.000 C 
ATOM     15  O   UNL     1       1.554   2.185  20.413  0.00  0.00    +0.000 OA
BRANCH  14  16
ATOM     16  O   UNL     1       2.288   3.144  22.322  0.00  0.00    +0.000 OA
ATOM     17  H   UNL     1       1.682   2.766  22.988  0.00  0.00    +0.000 HD
ENDBRANCH  14  16
ENDBRANCH  13  14
ENDBRANCH  12  13
ENDBRANCH  11  12
ENDBRANCH  10  11
ENDBRANCH   6  10
TORSDOF 7
ENDMDL
MODEL 9
REMARK VINA RESULT:      -5.8      2.321      5.459
REMARK  Name = 
REMARK  8 active torsions:
REMARK  status: ('A' for Active; 'I' for Inactive)
REMARK    1  A    between atoms: C_1  and  O_2
REMARK    2  A    between atoms: O_2  and  C_3
REMARK    3  A    between atoms: C_8  and  C_9
REMARK    4  A    between atoms: C_9  and  C_10
REMARK    5  A    between atoms: C_10  and  C_11
REMARK    6  A    between atoms: C_11  and  C_12
REMARK    7  A    between atoms: C_12  and  C_13
REMARK    8  A    between atoms: C_13  and  O_15
REMARK                            x       y       z     vdW  Elec       q    Type
REMARK                         _______ _______ _______ _____ _____    ______ ____
ROOT
ATOM      1  C   UNL     1       2.330   6.460  19.771  0.00  0.00    +0.000 A 
ATOM      2  C   UNL     1       1.789   5.410  20.506  0.00  0.00    +0.000 A 
ATOM      3  C   UNL     1       2.031   4.093  20.117  0.00  0.00    +0.000 A 
ATOM      4  C   UNL     1       2.816   3.811  18.992  0.00  0.00    +0.000 A 
ATOM      5 BR   UNL     1       3.022   1.972  18.559  0.00  0.00    +0.000 Br
ATOM      6  C   UNL     1       3.385   4.852  18.242  0.00  0.00    +0.000 A 
ATOM      7  C   UNL     1       3.118   6.174  18.651  0.00  0.00    +0.000 A 
ENDROOT
BRANCH   1   9
ATOM      8  C   UNL     1       1.231   8.118  21.062  0.00  0.00    +0.000 C 
ATOM      9  O   UNL     1       2.161   7.791  20.036  0.00  0.00    +0.000 OA
ENDBRANCH   1   9
BRANCH   6  10
ATOM     10  C   UNL     1       4.220   4.654  16.996  0.00  0.00    +0.000 C 
BRANCH  10  11
ATOM     11  C   UNL     1       4.879   5.931  16.444  0.00  0.00    +0.000 C 
BRANCH  11  12
ATOM     12  C   UNL     1       6.402   6.006  16.609  0.00  0.00    +0.000 C 
BRANCH  12  13
ATOM     13  C   UNL     1       6.823   6.128  18.072  0.00  0.00    +0.000 C 
BRANCH  13  14
ATOM     14  C   UNL     1       7.854   5.107  18.484  0.00  0.00    +0.000 C 
ATOM     15  O   UNL     1       8.237   4.168  17.807  0.00  0.00    +0.000 OA
BRANCH  14  16
ATOM     16  O   UNL     1       8.320   5.342  19.735  0.00  0.00    +0.000 OA
ATOM     17  H   UNL     1       7.851   6.060  20.201  0.00  0.00    +0.000 HD
ENDBRANCH  14  16
ENDBRANCH  13  14
ENDBRANCH  12  13
ENDBRANCH  11  12
ENDBRANCH  10  11
ENDBRANCH   6  10
TORSDOF 7
ENDMDL
