MODEL 1
REMARK VINA RESULT:      -9.9      0.000      0.000
REMARK  Name = 
REMARK  7 active torsions:
REMARK  status: ('A' for Active; 'I' for Inactive)
REMARK    1  A    between atoms: C_1  and  O_2
REMARK    2  A    between atoms: O_2  and  C_3
REMARK    3  A    between atoms: C_12  and  C_13
REMARK    4  A    between atoms: C_13  and  N_14
REMARK    5  A    between atoms: C_17  and  C_18
REMARK    6  A    between atoms: C_20  and  C_21
REMARK    7  A    between atoms: C_25  and  C_26
REMARK                            x       y       z     vdW  Elec       q    Type
REMARK                         _______ _______ _______ _____ _____    ______ ____
ROOT
ATOM      1  N   UNL     1       1.176   9.490  19.101  0.00  0.00    +0.000 N 
ATOM      2  C   UNL     1       1.787   9.642  17.891  0.00  0.00    +0.000 A 
ATOM      3  N   UNL     1       2.491   8.577  17.570  0.00  0.00    +0.000 NA
ATOM      4  C   UNL     1       2.369   7.723  18.649  0.00  0.00    +0.000 A 
ATOM      5  C   UNL     1       1.570   8.291  19.618  0.00  0.00    +0.000 A 
ENDROOT
BRANCH   4   6
ATOM      6  C   UNL     1       2.999   6.416  18.753  0.00  0.00    +0.000 A 
ATOM      7  C   UNL     1       4.268   6.192  18.230  0.00  0.00    +0.000 A 
ATOM      8  C   UNL     1       4.840   4.924  18.374  0.00  0.00    +0.000 A 
ATOM      9  C   UNL     1       4.140   3.948  19.080  0.00  0.00    +0.000 A 
ATOM     10  C   UNL     1       2.872   4.245  19.538  0.00  0.00    +0.000 A 
ATOM     11  N   UNL     1       2.285   5.446  19.385  0.00  0.00    +0.000 NA
BRANCH   8  12
ATOM     12  C   UNL     1       6.142   4.657  17.795  0.00  0.00    +0.000 A 
ATOM     13  N   UNL     1       7.263   4.452  18.556  0.00  0.00    +0.000 NA
ATOM     14  N   UNL     1       8.294   4.258  17.740  0.00  0.00    +0.000 NA
ATOM     15  N   UNL     1       7.834   4.357  16.488  0.00  0.00    +0.000 N 
ATOM     16  C   UNL     1       6.494   4.613  16.462  0.00  0.00    +0.000 A 
ATOM     17  H   UNL     1       8.490   4.253  15.720  0.00  0.00    +0.000 HD
BRANCH  16  18
ATOM     18  C   UNL     1       5.819   4.789  15.180  0.00  0.00    +0.000 C 
ATOM     19  F   UNL     1       5.420   6.056  14.929  0.00  0.00    +0.000 F 
ATOM     20  F   UNL     1       6.621   4.421  14.150  0.00  0.00    +0.000 F 
ATOM     21  F   UNL     1       4.714   4.005  15.105  0.00  0.00    +0.000 F 
ENDBRANCH  16  18
ENDBRANCH   8  12
ENDBRANCH   4   6
BRANCH   1  22
ATOM     22  C   UNL     1       0.253  10.413  19.734  0.00  0.00    +0.000 C 
BRANCH  22  32
ATOM     23  C   UNL     1      -4.105  11.297  18.281  0.00  0.00    +0.000 A 
ATOM     24  C   UNL     1      -4.152  10.457  17.163  0.00  0.00    +0.000 A 
ATOM     25  C   UNL     1      -2.979   9.983  16.591  0.00  0.00    +0.000 A 
ATOM     26  C   UNL     1      -1.753  10.357  17.126  0.00  0.00    +0.000 A 
ATOM     27  C   UNL     1      -1.674  11.199  18.248  0.00  0.00    +0.000 A 
ATOM     28  C   UNL     1      -2.864  11.695  18.823  0.00  0.00    +0.000 A 
ATOM     29  C   UNL     1      -2.829  12.708  19.948  0.00  0.00    +0.000 C 
ATOM     30  C   UNL     1      -1.464  12.883  20.612  0.00  0.00    +0.000 C 
ATOM     31  C   UNL     1      -0.347  12.871  19.575  0.00  0.00    +0.000 C 
ATOM     32  C   UNL     1      -0.303  11.532  18.818  0.00  0.00    +0.000 C 
BRANCH  23  34
ATOM     33  C   UNL     1      -6.353  10.914  18.894  0.00  0.00    +0.000 C 
ATOM     34  O   UNL     1      -5.234  11.797  18.883  0.00  0.00    +0.000 OA
ENDBRANCH  23  34
ENDBRANCH  22  32
ENDBRANCH   1  22
TORSDOF 6
ENDMDL
MODEL 2
REMARK VINA RESULT:      -9.4      0.780      1.072
REMARK  Name = 
REMARK  7 active torsions:
REMARK  status: ('A' for Active; 'I' for Inactive)
REMARK    1  A    between atoms: C_1  and  O_2
REMARK    2  A    between atoms: O_2  and  C_3
REMARK    3  A    between atoms: C_12  and  C_13
REMARK    4  A    between atoms: C_13  and  N_14
REMARK    5  A    between atoms: C_17  and  C_18
REMARK    6  A    between atoms: C_20  and  C_21
REMARK    7  A    between atoms: C_25  and  C_26
REMARK                            x       y       z     vdW  Elec       q    Type
REMARK                         _______ _______ _______ _____ _____    ______ ____
ROOT
ATOM      1  N   UNL     1       1.144   9.281  19.585  0.00  0.00    +0.000 N 
ATOM      2  C   UNL     1       1.574   9.386  18.295  0.00  0.00    +0.000 A 
ATOM      3  N   UNL     1       2.264   8.326  17.929  0.00  0.00    +0.000 NA
ATOM      4  C   UNL     1       2.324   7.526  19.054  0.00  0.00    +0.000 A 
ATOM      5  C   UNL     1       1.649   8.121  20.098  0.00  0.00    +0.000 A 
ENDROOT
BRANCH   4   6
ATOM      6  C   UNL     1       3.008   6.245  19.130  0.00  0.00    +0.000 A 
ATOM      7  C   UNL     1       4.238   6.055  18.510  0.00  0.00    +0.000 A 
ATOM      8  C   UNL     1       4.866   4.811  18.630  0.00  0.00    +0.000 A 
ATOM      9  C   UNL     1       4.262   3.826  19.409  0.00  0.00    +0.000 A 
ATOM     10  C   UNL     1       3.024   4.088  19.963  0.00  0.00    +0.000 A 
ATOM     11  N   UNL     1       2.384   5.264  19.836  0.00  0.00    +0.000 NA
BRANCH   8  12
ATOM     12  C   UNL     1       6.126   4.578  17.952  0.00  0.00    +0.000 A 
ATOM     13  N   UNL     1       7.322   4.496  18.618  0.00  0.00    +0.000 NA
ATOM     14  N   UNL     1       8.286   4.302  17.724  0.00  0.00    +0.000 NA
ATOM     15  N   UNL     1       7.712   4.280  16.516  0.00  0.00    +0.000 N 
ATOM     16  C   UNL     1       6.360   4.455  16.599  0.00  0.00    +0.000 A 
ATOM     17  H   UNL     1       8.302   4.158  15.700  0.00  0.00    +0.000 HD
BRANCH  16  18
ATOM     18  C   UNL     1       5.565   4.495  15.376  0.00  0.00    +0.000 C 
ATOM     19  F   UNL     1       4.336   3.944  15.491  0.00  0.00    +0.000 F 
ATOM     20  F   UNL     1       5.383   5.770  14.951  0.00  0.00    +0.000 F 
ATOM     21  F   UNL     1       6.196   3.841  14.368  0.00  0.00    +0.000 F 
ENDBRANCH  16  18
ENDBRANCH   8  12
ENDBRANCH   4   6
BRANCH   1  22
ATOM     22  C   UNL     1       0.286  10.208  20.297  0.00  0.00    +0.000 C 
BRANCH  22  32
ATOM     23  C   UNL     1      -3.823  12.243  19.371  0.00  0.00    +0.000 A 
ATOM     24  C   UNL     1      -4.158  11.564  18.194  0.00  0.00    +0.000 A 
ATOM     25  C   UNL     1      -3.183  10.893  17.468  0.00  0.00    +0.000 A 
ATOM     26  C   UNL     1      -1.865  10.908  17.908  0.00  0.00    +0.000 A 
ATOM     27  C   UNL     1      -1.498  11.581  19.087  0.00  0.00    +0.000 A 
ATOM     28  C   UNL     1      -2.484  12.277  19.818  0.00  0.00    +0.000 A 
ATOM     29  C   UNL     1      -2.118  13.125  21.018  0.00  0.00    +0.000 C 
ATOM     30  C   UNL     1      -0.705  12.902  21.554  0.00  0.00    +0.000 C 
ATOM     31  C   UNL     1       0.293  12.741  20.414  0.00  0.00    +0.000 C 
ATOM     32  C   UNL     1      -0.048  11.520  19.543  0.00  0.00    +0.000 C 
BRANCH  23  34
ATOM     33  C   UNL     1      -5.797  12.125  20.662  0.00  0.00    +0.000 C 
ATOM     34  O   UNL     1      -4.746  12.925  20.124  0.00  0.00    +0.000 OA
ENDBRANCH  23  34
ENDBRANCH  22  32
ENDBRANCH   1  22
TORSDOF 6
ENDMDL
MODEL 3
REMARK VINA RESULT:      -9.2      2.384      3.150
REMARK  Name = 
REMARK  7 active torsions:
REMARK  status: ('A' for Active; 'I' for Inactive)
REMARK    1  A    between atoms: C_1  and  O_2
REMARK    2  A    between atoms: O_2  and  C_3
REMARK    3  A    between atoms: C_12  and  C_13
REMARK    4  A    between atoms: C_13  and  N_14
REMARK    5  A    between atoms: C_17  and  C_18
REMARK    6  A    between atoms: C_20  and  C_21
REMARK    7  A    between atoms: C_25  and  C_26
REMARK                            x       y       z     vdW  Elec       q    Type
REMARK                         _______ _______ _______ _____ _____    ______ ____
ROOT
ATOM      1  N   UNL     1       1.178   9.496  19.002  0.00  0.00    +0.000 N 
ATOM      2  C   UNL     1       1.900   9.826  17.892  0.00  0.00    +0.000 A 
ATOM      3  N   UNL     1       2.562   8.790  17.422  0.00  0.00    +0.000 NA
ATOM      4  C   UNL     1       2.295   7.759  18.301  0.00  0.00    +0.000 A 
ATOM      5  C   UNL     1       1.452   8.193  19.302  0.00  0.00    +0.000 A 
ENDROOT
BRANCH   4   6
ATOM      6  C   UNL     1       2.831   6.411  18.194  0.00  0.00    +0.000 A 
ATOM      7  C   UNL     1       4.171   6.200  17.889  0.00  0.00    +0.000 A 
ATOM      8  C   UNL     1       4.645   4.885  17.818  0.00  0.00    +0.000 A 
ATOM      9  C   UNL     1       3.769   3.840  18.106  0.00  0.00    +0.000 A 
ATOM     10  C   UNL     1       2.447   4.138  18.368  0.00  0.00    +0.000 A 
ATOM     11  N   UNL     1       1.959   5.391  18.411  0.00  0.00    +0.000 NA
BRANCH   8  12
ATOM     12  C   UNL     1       6.027   4.642  17.455  0.00  0.00    +0.000 A 
ATOM     13  N   UNL     1       7.003   4.390  18.384  0.00  0.00    +0.000 NA
ATOM     14  N   UNL     1       8.158   4.233  17.745  0.00  0.00    +0.000 NA
ATOM     15  N   UNL     1       7.918   4.401  16.440  0.00  0.00    +0.000 N 
ATOM     16  C   UNL     1       6.600   4.667  16.201  0.00  0.00    +0.000 A 
ATOM     17  H   UNL     1       8.695   4.335  15.790  0.00  0.00    +0.000 HD
BRANCH  16  18
ATOM     18  C   UNL     1       6.153   4.915  14.834  0.00  0.00    +0.000 C 
ATOM     19  F   UNL     1       7.152   5.132  13.950  0.00  0.00    +0.000 F 
ATOM     20  F   UNL     1       5.430   3.870  14.358  0.00  0.00    +0.000 F 
ATOM     21  F   UNL     1       5.339   6.000  14.783  0.00  0.00    +0.000 F 
ENDBRANCH  16  18
ENDBRANCH   8  12
ENDBRANCH   4   6
BRANCH   1  22
ATOM     22  C   UNL     1       0.263  10.350  19.733  0.00  0.00    +0.000 C 
BRANCH  22  32
ATOM     23  C   UNL     1      -1.747  13.122  22.920  0.00  0.00    +0.000 A 
ATOM     24  C   UNL     1      -1.467  14.370  22.353  0.00  0.00    +0.000 A 
ATOM     25  C   UNL     1      -0.469  14.498  21.397  0.00  0.00    +0.000 A 
ATOM     26  C   UNL     1       0.263  13.382  21.012  0.00  0.00    +0.000 A 
ATOM     27  C   UNL     1       0.005  12.115  21.564  0.00  0.00    +0.000 A 
ATOM     28  C   UNL     1      -0.998  11.985  22.548  0.00  0.00    +0.000 A 
ATOM     29  C   UNL     1      -1.225  10.672  23.268  0.00  0.00    +0.000 C 
ATOM     30  C   UNL     1      -0.541   9.463  22.629  0.00  0.00    +0.000 C 
ATOM     31  C   UNL     1       0.858   9.823  22.141  0.00  0.00    +0.000 C 
ATOM     32  C   UNL     1       0.808  10.922  21.066  0.00  0.00    +0.000 C 
BRANCH  23  34
ATOM     33  C   UNL     1      -4.059  13.048  23.394  0.00  0.00    +0.000 C 
ATOM     34  O   UNL     1      -2.720  12.940  23.872  0.00  0.00    +0.000 OA
ENDBRANCH  23  34
ENDBRANCH  22  32
ENDBRANCH   1  22
TORSDOF 6
ENDMDL
MODEL 4
REMARK VINA RESULT:      -9.2      1.831      2.128
REMARK  Name = 
REMARK  7 active torsions:
REMARK  status: ('A' for Active; 'I' for Inactive)
REMARK    1  A    between atoms: C_1  and  O_2
REMARK    2  A    between atoms: O_2  and  C_3
REMARK    3  A    between atoms: C_12  and  C_13
REMARK    4  A    between atoms: C_13  and  N_14
REMARK    5  A    between atoms: C_17  and  C_18
REMARK    6  A    between atoms: C_20  and  C_21
REMARK    7  A    between atoms: C_25  and  C_26
REMARK                            x       y       z     vdW  Elec       q    Type
REMARK                         _______ _______ _______ _____ _____    ______ ____
ROOT
ATOM      1  N   UNL     1       0.724  10.286  19.265  0.00  0.00    +0.000 N 
ATOM      2  C   UNL     1       1.496  10.768  18.249  0.00  0.00    +0.000 A 
ATOM      3  N   UNL     1       2.243   9.822  17.721  0.00  0.00    +0.000 NA
ATOM      4  C   UNL     1       1.978   8.690  18.469  0.00  0.00    +0.000 A 
ATOM      5  C   UNL     1       1.050   8.974  19.447  0.00  0.00    +0.000 A 
ENDROOT
BRANCH   4   6
ATOM      6  C   UNL     1       2.595   7.390  18.260  0.00  0.00    +0.000 A 
ATOM      7  C   UNL     1       3.760   7.265  17.512  0.00  0.00    +0.000 A 
ATOM      8  C   UNL     1       4.327   5.995  17.358  0.00  0.00    +0.000 A 
ATOM      9  C   UNL     1       3.732   4.913  18.002  0.00  0.00    +0.000 A 
ATOM     10  C   UNL     1       2.559   5.120  18.698  0.00  0.00    +0.000 A 
ATOM     11  N   UNL     1       1.975   6.325  18.835  0.00  0.00    +0.000 NA
BRANCH   8  12
ATOM     12  C   UNL     1       5.516   5.837  16.543  0.00  0.00    +0.000 A 
ATOM     13  N   UNL     1       5.479   5.831  15.173  0.00  0.00    +0.000 NA
ATOM     14  N   UNL     1       6.716   5.646  14.722  0.00  0.00    +0.000 NA
ATOM     15  N   UNL     1       7.514   5.520  15.788  0.00  0.00    +0.000 N 
ATOM     16  C   UNL     1       6.815   5.625  16.955  0.00  0.00    +0.000 A 
ATOM     17  H   UNL     1       8.504   5.354  15.637  0.00  0.00    +0.000 HD
BRANCH  16  18
ATOM     18  C   UNL     1       7.514   5.478  18.228  0.00  0.00    +0.000 C 
ATOM     19  F   UNL     1       6.704   5.261  19.288  0.00  0.00    +0.000 F 
ATOM     20  F   UNL     1       8.391   4.444  18.188  0.00  0.00    +0.000 F 
ATOM     21  F   UNL     1       8.242   6.588  18.509  0.00  0.00    +0.000 F 
ENDBRANCH  16  18
ENDBRANCH   8  12
ENDBRANCH   4   6
BRANCH   1  22
ATOM     22  C   UNL     1      -0.283  11.011  20.016  0.00  0.00    +0.000 C 
BRANCH  22  32
ATOM     23  C   UNL     1      -4.567  11.475  18.197  0.00  0.00    +0.000 A 
ATOM     24  C   UNL     1      -4.350  10.898  16.941  0.00  0.00    +0.000 A 
ATOM     25  C   UNL     1      -3.060  10.753  16.448  0.00  0.00    +0.000 A 
ATOM     26  C   UNL     1      -1.981  11.195  17.204  0.00  0.00    +0.000 A 
ATOM     27  C   UNL     1      -2.168  11.778  18.469  0.00  0.00    +0.000 A 
ATOM     28  C   UNL     1      -3.479  11.941  18.965  0.00  0.00    +0.000 A 
ATOM     29  C   UNL     1      -3.741  12.682  20.260  0.00  0.00    +0.000 C 
ATOM     30  C   UNL     1      -2.502  12.928  21.121  0.00  0.00    +0.000 C 
ATOM     31  C   UNL     1      -1.307  13.318  20.259  0.00  0.00    +0.000 C 
ATOM     32  C   UNL     1      -0.944  12.197  19.269  0.00  0.00    +0.000 C 
BRANCH  23  34
ATOM     33  C   UNL     1      -6.779  12.222  17.843  0.00  0.00    +0.000 C 
ATOM     34  O   UNL     1      -5.822  11.646  18.729  0.00  0.00    +0.000 OA
ENDBRANCH  23  34
ENDBRANCH  22  32
ENDBRANCH   1  22
TORSDOF 6
ENDMDL
MODEL 5
REMARK VINA RESULT:      -9.0      2.045      3.128
REMARK  Name = 
REMARK  7 active torsions:
REMARK  status: ('A' for Active; 'I' for Inactive)
REMARK    1  A    between atoms: C_1  and  O_2
REMARK    2  A    between atoms: O_2  and  C_3
REMARK    3  A    between atoms: C_12  and  C_13
REMARK    4  A    between atoms: C_13  and  N_14
REMARK    5  A    between atoms: C_17  and  C_18
REMARK    6  A    between atoms: C_20  and  C_21
REMARK    7  A    between atoms: C_25  and  C_26
REMARK                            x       y       z     vdW  Elec       q    Type
REMARK                         _______ _______ _______ _____ _____    ______ ____
ROOT
ATOM      1  N   UNL     1       1.366   8.948  19.884  0.00  0.00    +0.000 N 
ATOM      2  C   UNL     1       1.219   8.151  20.981  0.00  0.00    +0.000 A 
ATOM      3  N   UNL     1       1.674   6.936  20.758  0.00  0.00    +0.000 NA
ATOM      4  C   UNL     1       2.084   6.938  19.439  0.00  0.00    +0.000 A 
ATOM      5  C   UNL     1       1.877   8.180  18.878  0.00  0.00    +0.000 A 
ENDROOT
BRANCH   4   6
ATOM      6  C   UNL     1       2.646   5.794  18.738  0.00  0.00    +0.000 A 
ATOM      7  C   UNL     1       4.006   5.731  18.452  0.00  0.00    +0.000 A 
ATOM      8  C   UNL     1       4.502   4.600  17.795  0.00  0.00    +0.000 A 
ATOM      9  C   UNL     1       3.627   3.558  17.499  0.00  0.00    +0.000 A 
ATOM     10  C   UNL     1       2.286   3.717  17.788  0.00  0.00    +0.000 A 
ATOM     11  N   UNL     1       1.778   4.808  18.391  0.00  0.00    +0.000 NA
BRANCH   8  12
ATOM     12  C   UNL     1       5.908   4.536  17.447  0.00  0.00    +0.000 A 
ATOM     13  N   UNL     1       6.893   4.330  18.377  0.00  0.00    +0.000 NA
ATOM     14  N   UNL     1       8.067   4.345  17.754  0.00  0.00    +0.000 NA
ATOM     15  N   UNL     1       7.828   4.575  16.459  0.00  0.00    +0.000 N 
ATOM     16  C   UNL     1       6.492   4.710  16.210  0.00  0.00    +0.000 A 
ATOM     17  H   UNL     1       8.616   4.640  15.822  0.00  0.00    +0.000 HD
BRANCH  16  18
ATOM     18  C   UNL     1       6.039   5.001  14.853  0.00  0.00    +0.000 C 
ATOM     19  F   UNL     1       7.036   5.182  13.958  0.00  0.00    +0.000 F 
ATOM     20  F   UNL     1       5.259   4.001  14.372  0.00  0.00    +0.000 F 
ATOM     21  F   UNL     1       5.280   6.126  14.829  0.00  0.00    +0.000 F 
ENDBRANCH  16  18
ENDBRANCH   8  12
ENDBRANCH   4   6
BRANCH   1  22
ATOM     22  C   UNL     1       1.064  10.363  19.787  0.00  0.00    +0.000 C 
BRANCH  22  32
ATOM     23  C   UNL     1      -1.289  13.771  21.961  0.00  0.00    +0.000 A 
ATOM     24  C   UNL     1      -1.523  13.145  23.190  0.00  0.00    +0.000 A 
ATOM     25  C   UNL     1      -1.416  11.765  23.307  0.00  0.00    +0.000 A 
ATOM     26  C   UNL     1      -1.088  11.004  22.192  0.00  0.00    +0.000 A 
ATOM     27  C   UNL     1      -0.847  11.605  20.945  0.00  0.00    +0.000 A 
ATOM     28  C   UNL     1      -0.970  13.005  20.820  0.00  0.00    +0.000 A 
ATOM     29  C   UNL     1      -0.851  13.686  19.472  0.00  0.00    +0.000 C 
ATOM     30  C   UNL     1      -0.273  12.812  18.360  0.00  0.00    +0.000 C 
ATOM     31  C   UNL     1      -0.822  11.392  18.440  0.00  0.00    +0.000 C 
ATOM     32  C   UNL     1      -0.443  10.723  19.773  0.00  0.00    +0.000 C 
BRANCH  23  34
ATOM     33  C   UNL     1      -2.613  15.709  22.226  0.00  0.00    +0.000 C 
ATOM     34  O   UNL     1      -1.384  15.131  21.790  0.00  0.00    +0.000 OA
ENDBRANCH  23  34
ENDBRANCH  22  32
ENDBRANCH   1  22
TORSDOF 6
ENDMDL
MODEL 6
REMARK VINA RESULT:      -9.0      1.520      2.736
REMARK  Name = 
REMARK  7 active torsions:
REMARK  status: ('A' for Active; 'I' for Inactive)
REMARK    1  A    between atoms: C_1  and  O_2
REMARK    2  A    between atoms: O_2  and  C_3
REMARK    3  A    between atoms: C_12  and  C_13
REMARK    4  A    between atoms: C_13  and  N_14
REMARK    5  A    between atoms: C_17  and  C_18
REMARK    6  A    between atoms: C_20  and  C_21
REMARK    7  A    between atoms: C_25  and  C_26
REMARK                            x       y       z     vdW  Elec       q    Type
REMARK                         _______ _______ _______ _____ _____    ______ ____
ROOT
ATOM      1  N   UNL     1       1.493   9.775  19.122  0.00  0.00    +0.000 N 
ATOM      2  C   UNL     1       1.905  10.039  17.849  0.00  0.00    +0.000 A 
ATOM      3  N   UNL     1       2.415   8.969  17.276  0.00  0.00    +0.000 NA
ATOM      4  C   UNL     1       2.376   7.985  18.245  0.00  0.00    +0.000 A 
ATOM      5  C   UNL     1       1.825   8.482  19.406  0.00  0.00    +0.000 A 
ENDROOT
BRANCH   4   6
ATOM      6  C   UNL     1       2.856   6.623  18.070  0.00  0.00    +0.000 A 
ATOM      7  C   UNL     1       4.211   6.361  17.897  0.00  0.00    +0.000 A 
ATOM      8  C   UNL     1       4.626   5.032  17.755  0.00  0.00    +0.000 A 
ATOM      9  C   UNL     1       3.673   4.020  17.842  0.00  0.00    +0.000 A 
ATOM     10  C   UNL     1       2.346   4.370  17.982  0.00  0.00    +0.000 A 
ATOM     11  N   UNL     1       1.917   5.640  18.090  0.00  0.00    +0.000 NA
BRANCH   8  12
ATOM     12  C   UNL     1       6.027   4.742  17.527  0.00  0.00    +0.000 A 
ATOM     13  N   UNL     1       6.929   4.594  18.549  0.00  0.00    +0.000 NA
ATOM     14  N   UNL     1       8.126   4.359  18.021  0.00  0.00    +0.000 NA
ATOM     15  N   UNL     1       7.985   4.376  16.691  0.00  0.00    +0.000 N 
ATOM     16  C   UNL     1       6.692   4.619  16.325  0.00  0.00    +0.000 A 
ATOM     17  H   UNL     1       8.807   4.231  16.114  0.00  0.00    +0.000 HD
BRANCH  16  18
ATOM     18  C   UNL     1       6.351   4.709  14.909  0.00  0.00    +0.000 C 
ATOM     19  F   UNL     1       7.364   5.121  14.116  0.00  0.00    +0.000 F 
ATOM     20  F   UNL     1       5.939   3.511  14.427  0.00  0.00    +0.000 F 
ATOM     21  F   UNL     1       5.323   5.574  14.716  0.00  0.00    +0.000 F 
ENDBRANCH  16  18
ENDBRANCH   8  12
ENDBRANCH   4   6
BRANCH   1  22
ATOM     22  C   UNL     1       0.805  10.680  20.022  0.00  0.00    +0.000 C 
BRANCH  22  32
ATOM     23  C   UNL     1      -2.718  13.438  21.385  0.00  0.00    +0.000 A 
ATOM     24  C   UNL     1      -2.548  13.364  22.772  0.00  0.00    +0.000 A 
ATOM     25  C   UNL     1      -1.800  12.339  23.334  0.00  0.00    +0.000 A 
ATOM     26  C   UNL     1      -1.229  11.374  22.514  0.00  0.00    +0.000 A 
ATOM     27  C   UNL     1      -1.383  11.422  21.117  0.00  0.00    +0.000 A 
ATOM     28  C   UNL     1      -2.155  12.454  20.544  0.00  0.00    +0.000 A 
ATOM     29  C   UNL     1      -2.461  12.475  19.061  0.00  0.00    +0.000 C 
ATOM     30  C   UNL     1      -1.617  11.520  18.219  0.00  0.00    +0.000 C 
ATOM     31  C   UNL     1      -1.429  10.185  18.930  0.00  0.00    +0.000 C 
ATOM     32  C   UNL     1      -0.692  10.365  20.268  0.00  0.00    +0.000 C 
BRANCH  23  34
ATOM     33  C   UNL     1      -3.115  15.757  21.173  0.00  0.00    +0.000 C 
ATOM     34  O   UNL     1      -3.452  14.428  20.778  0.00  0.00    +0.000 OA
ENDBRANCH  23  34
ENDBRANCH  22  32
ENDBRANCH   1  22
TORSDOF 6
ENDMDL
MODEL 7
REMARK VINA RESULT:      -8.9      2.522      3.520
REMARK  Name = 
REMARK  7 active torsions:
REMARK  status: ('A' for Active; 'I' for Inactive)
REMARK    1  A    between atoms: C_1  and  O_2
REMARK    2  A    between atoms: O_2  and  C_3
REMARK    3  A    between atoms: C_12  and  C_13
REMARK    4  A    between atoms: C_13  and  N_14
REMARK    5  A    between atoms: C_17  and  C_18
REMARK    6  A    between atoms: C_20  and  C_21
REMARK    7  A    between atoms: C_25  and  C_26
REMARK                            x       y       z     vdW  Elec       q    Type
REMARK                         _______ _______ _______ _____ _____    ______ ____
ROOT
ATOM      1  N   UNL     1       1.440   9.124  19.380  0.00  0.00    +0.000 N 
ATOM      2  C   UNL     1       1.494   8.388  20.528  0.00  0.00    +0.000 A 
ATOM      3  N   UNL     1       1.968   7.181  20.304  0.00  0.00    +0.000 NA
ATOM      4  C   UNL     1       2.177   7.120  18.940  0.00  0.00    +0.000 A 
ATOM      5  C   UNL     1       1.831   8.317  18.352  0.00  0.00    +0.000 A 
ENDROOT
BRANCH   4   6
ATOM      6  C   UNL     1       2.683   5.958  18.225  0.00  0.00    +0.000 A 
ATOM      7  C   UNL     1       3.891   6.015  17.538  0.00  0.00    +0.000 A 
ATOM      8  C   UNL     1       4.345   4.865  16.883  0.00  0.00    +0.000 A 
ATOM      9  C   UNL     1       3.597   3.694  16.986  0.00  0.00    +0.000 A 
ATOM     10  C   UNL     1       2.393   3.735  17.661  0.00  0.00    +0.000 A 
ATOM     11  N   UNL     1       1.918   4.835  18.272  0.00  0.00    +0.000 NA
BRANCH   8  12
ATOM     12  C   UNL     1       5.578   4.916  16.123  0.00  0.00    +0.000 A 
ATOM     13  N   UNL     1       5.607   4.873  14.753  0.00  0.00    +0.000 NA
ATOM     14  N   UNL     1       6.875   4.915  14.359  0.00  0.00    +0.000 NA
ATOM     15  N   UNL     1       7.633   4.964  15.460  0.00  0.00    +0.000 N 
ATOM     16  C   UNL     1       6.874   4.961  16.594  0.00  0.00    +0.000 A 
ATOM     17  H   UNL     1       8.642   4.984  15.355  0.00  0.00    +0.000 HD
BRANCH  16  18
ATOM     18  C   UNL     1       7.529   4.976  17.898  0.00  0.00    +0.000 C 
ATOM     19  F   UNL     1       8.014   6.183  18.265  0.00  0.00    +0.000 F 
ATOM     20  F   UNL     1       6.678   4.583  18.878  0.00  0.00    +0.000 F 
ATOM     21  F   UNL     1       8.571   4.108  17.924  0.00  0.00    +0.000 F 
ENDBRANCH  16  18
ENDBRANCH   8  12
ENDBRANCH   4   6
BRANCH   1  22
ATOM     22  C   UNL     1       1.060  10.518  19.254  0.00  0.00    +0.000 C 
BRANCH  22  32
ATOM     23  C   UNL     1      -1.243  13.484  22.043  0.00  0.00    +0.000 A 
ATOM     24  C   UNL     1      -1.367  12.683  23.183  0.00  0.00    +0.000 A 
ATOM     25  C   UNL     1      -1.206  11.307  23.095  0.00  0.00    +0.000 A 
ATOM     26  C   UNL     1      -0.934  10.723  21.864  0.00  0.00    +0.000 A 
ATOM     27  C   UNL     1      -0.804  11.502  20.701  0.00  0.00    +0.000 A 
ATOM     28  C   UNL     1      -0.982  12.899  20.785  0.00  0.00    +0.000 A 
ATOM     29  C   UNL     1      -0.983  13.766  19.543  0.00  0.00    +0.000 C 
ATOM     30  C   UNL     1      -0.458  13.081  18.282  0.00  0.00    +0.000 C 
ATOM     31  C   UNL     1      -0.952  11.642  18.196  0.00  0.00    +0.000 C 
ATOM     32  C   UNL     1      -0.456  10.810  19.392  0.00  0.00    +0.000 C 
BRANCH  23  34
ATOM     33  C   UNL     1      -2.429  15.321  22.936  0.00  0.00    +0.000 C 
ATOM     34  O   UNL     1      -1.396  14.849  22.073  0.00  0.00    +0.000 OA
ENDBRANCH  23  34
ENDBRANCH  22  32
ENDBRANCH   1  22
TORSDOF 6
ENDMDL
MODEL 8
REMARK VINA RESULT:      -8.9      2.218      3.468
REMARK  Name = 
REMARK  7 active torsions:
REMARK  status: ('A' for Active; 'I' for Inactive)
REMARK    1  A    between atoms: C_1  and  O_2
REMARK    2  A    between atoms: O_2  and  C_3
REMARK    3  A    between atoms: C_12  and  C_13
REMARK    4  A    between atoms: C_13  and  N_14
REMARK    5  A    between atoms: C_17  and  C_18
REMARK    6  A    between atoms: C_20  and  C_21
REMARK    7  A    between atoms: C_25  and  C_26
REMARK                            x       y       z     vdW  Elec       q    Type
REMARK                         _______ _______ _______ _____ _____    ______ ____
ROOT
ATOM      1  N   UNL     1       1.240   9.266  19.160  0.00  0.00    +0.000 N 
ATOM      2  C   UNL     1       1.349   8.686  20.391  0.00  0.00    +0.000 A 
ATOM      3  N   UNL     1       1.894   7.491  20.314  0.00  0.00    +0.000 NA
ATOM      4  C   UNL     1       2.095   7.269  18.965  0.00  0.00    +0.000 A 
ATOM      5  C   UNL     1       1.670   8.359  18.236  0.00  0.00    +0.000 A 
ENDROOT
BRANCH   4   6
ATOM      6  C   UNL     1       2.664   6.058  18.394  0.00  0.00    +0.000 A 
ATOM      7  C   UNL     1       4.039   5.921  18.241  0.00  0.00    +0.000 A 
ATOM      8  C   UNL     1       4.540   4.728  17.707  0.00  0.00    +0.000 A 
ATOM      9  C   UNL     1       3.646   3.706  17.396  0.00  0.00    +0.000 A 
ATOM     10  C   UNL     1       2.294   3.939  17.548  0.00  0.00    +0.000 A 
ATOM     11  N   UNL     1       1.785   5.087  18.029  0.00  0.00    +0.000 NA
BRANCH   8  12
ATOM     12  C   UNL     1       5.966   4.583  17.497  0.00  0.00    +0.000 A 
ATOM     13  N   UNL     1       6.863   4.498  18.530  0.00  0.00    +0.000 NA
ATOM     14  N   UNL     1       8.085   4.395  18.018  0.00  0.00    +0.000 NA
ATOM     15  N   UNL     1       7.962   4.434  16.686  0.00  0.00    +0.000 N 
ATOM     16  C   UNL     1       6.658   4.558  16.304  0.00  0.00    +0.000 A 
ATOM     17  H   UNL     1       8.803   4.385  16.120  0.00  0.00    +0.000 HD
BRANCH  16  18
ATOM     18  C   UNL     1       6.331   4.652  14.885  0.00  0.00    +0.000 C 
ATOM     19  F   UNL     1       5.847   3.511  14.346  0.00  0.00    +0.000 F 
ATOM     20  F   UNL     1       5.402   5.614  14.659  0.00  0.00    +0.000 F 
ATOM     21  F   UNL     1       7.424   4.998  14.159  0.00  0.00    +0.000 F 
ENDBRANCH  16  18
ENDBRANCH   8  12
ENDBRANCH   4   6
BRANCH   1  22
ATOM     22  C   UNL     1       0.774  10.607  18.866  0.00  0.00    +0.000 C 
BRANCH  22  32
ATOM     23  C   UNL     1       0.401  15.269  18.921  0.00  0.00    +0.000 A 
ATOM     24  C   UNL     1       1.722  15.612  18.609  0.00  0.00    +0.000 A 
ATOM     25  C   UNL     1       2.743  14.684  18.764  0.00  0.00    +0.000 A 
ATOM     26  C   UNL     1       2.451  13.413  19.242  0.00  0.00    +0.000 A 
ATOM     27  C   UNL     1       1.135  13.040  19.564  0.00  0.00    +0.000 A 
ATOM     28  C   UNL     1       0.097  13.986  19.423  0.00  0.00    +0.000 A 
ATOM     29  C   UNL     1      -1.313  13.677  19.879  0.00  0.00    +0.000 C 
ATOM     30  C   UNL     1      -1.584  12.202  20.176  0.00  0.00    +0.000 C 
ATOM     31  C   UNL     1      -0.402  11.565  20.898  0.00  0.00    +0.000 C 
ATOM     32  C   UNL     1       0.872  11.618  20.036  0.00  0.00    +0.000 C 
BRANCH  23  34
ATOM     33  C   UNL     1      -0.367  17.306  18.004  0.00  0.00    +0.000 C 
ATOM     34  O   UNL     1      -0.645  16.149  18.791  0.00  0.00    +0.000 OA
ENDBRANCH  23  34
ENDBRANCH  22  32
ENDBRANCH   1  22
TORSDOF 6
ENDMDL
MODEL 9
REMARK VINA RESULT:      -8.9      1.714      1.965
REMARK  Name = 
REMARK  7 active torsions:
REMARK  status: ('A' for Active; 'I' for Inactive)
REMARK    1  A    between atoms: C_1  and  O_2
REMARK    2  A    between atoms: O_2  and  C_3
REMARK    3  A    between atoms: C_12  and  C_13
REMARK    4  A    between atoms: C_13  and  N_14
REMARK    5  A    between atoms: C_17  and  C_18
REMARK    6  A    between atoms: C_20  and  C_21
REMARK    7  A    between atoms: C_25  and  C_26
REMARK                            x       y       z     vdW  Elec       q    Type
REMARK                         _______ _______ _______ _____ _____    ______ ____
ROOT
ATOM      1  N   UNL     1       0.784   9.826  19.548  0.00  0.00    +0.000 N 
ATOM      2  C   UNL     1       1.468  10.021  18.384  0.00  0.00    +0.000 A 
ATOM      3  N   UNL     1       2.185   8.965  18.064  0.00  0.00    +0.000 NA
ATOM      4  C   UNL     1       1.994   8.069  19.098  0.00  0.00    +0.000 A 
ATOM      5  C   UNL     1       1.140   8.604  20.039  0.00  0.00    +0.000 A 
ENDROOT
BRANCH   4   6
ATOM      6  C   UNL     1       2.610   6.754  19.187  0.00  0.00    +0.000 A 
ATOM      7  C   UNL     1       3.619   6.379  18.308  0.00  0.00    +0.000 A 
ATOM      8  C   UNL     1       4.195   5.111  18.448  0.00  0.00    +0.000 A 
ATOM      9  C   UNL     1       3.772   4.294  19.494  0.00  0.00    +0.000 A 
ATOM     10  C   UNL     1       2.741   4.732  20.300  0.00  0.00    +0.000 A 
ATOM     11  N   UNL     1       2.148   5.932  20.167  0.00  0.00    +0.000 NA
BRANCH   8  12
ATOM     12  C   UNL     1       5.216   4.683  17.513  0.00  0.00    +0.000 A 
ATOM     13  N   UNL     1       4.929   3.980  16.372  0.00  0.00    +0.000 NA
ATOM     14  N   UNL     1       6.070   3.718  15.742  0.00  0.00    +0.000 NA
ATOM     15  N   UNL     1       7.059   4.230  16.482  0.00  0.00    +0.000 N 
ATOM     16  C   UNL     1       6.583   4.841  17.606  0.00  0.00    +0.000 A 
ATOM     17  H   UNL     1       8.016   4.111  16.164  0.00  0.00    +0.000 HD
BRANCH  16  18
ATOM     18  C   UNL     1       7.522   5.430  18.557  0.00  0.00    +0.000 C 
ATOM     19  F   UNL     1       7.960   6.662  18.217  0.00  0.00    +0.000 F 
ATOM     20  F   UNL     1       6.966   5.538  19.789  0.00  0.00    +0.000 F 
ATOM     21  F   UNL     1       8.620   4.646  18.699  0.00  0.00    +0.000 F 
ENDBRANCH  16  18
ENDBRANCH   8  12
ENDBRANCH   4   6
BRANCH   1  22
ATOM     22  C   UNL     1      -0.171  10.729  20.160  0.00  0.00    +0.000 C 
BRANCH  22  32
ATOM     23  C   UNL     1      -4.431  11.495  18.387  0.00  0.00    +0.000 A 
ATOM     24  C   UNL     1      -4.352  10.700  17.239  0.00  0.00    +0.000 A 
ATOM     25  C   UNL     1      -3.117  10.297  16.748  0.00  0.00    +0.000 A 
ATOM     26  C   UNL     1      -1.955  10.698  17.395  0.00  0.00    +0.000 A 
ATOM     27  C   UNL     1      -2.004  11.497  18.551  0.00  0.00    +0.000 A 
ATOM     28  C   UNL     1      -3.256  11.920  19.043  0.00  0.00    +0.000 A 
ATOM     29  C   UNL     1      -3.357  12.888  20.204  0.00  0.00    +0.000 C 
ATOM     30  C   UNL     1      -2.058  13.091  20.984  0.00  0.00    +0.000 C 
ATOM     31  C   UNL     1      -0.862  13.166  20.043  0.00  0.00    +0.000 C 
ATOM     32  C   UNL     1      -0.699  11.862  19.243  0.00  0.00    +0.000 C 
BRANCH  23  34
ATOM     33  C   UNL     1      -6.783  11.541  18.173  0.00  0.00    +0.000 C 
ATOM     34  O   UNL     1      -5.626  11.925  18.912  0.00  0.00    +0.000 OA
ENDBRANCH  23  34
ENDBRANCH  22  32
ENDBRANCH   1  22
TORSDOF 6
ENDMDL
