MODEL 1
REMARK VINA RESULT:      -6.4      0.000      0.000
REMARK  Name = 
REMARK  7 active torsions:
REMARK  status: ('A' for Active; 'I' for Inactive)
REMARK    1  A    between atoms: C_1  and  O_2
REMARK    2  A    between atoms: O_2  and  C_3
REMARK    3  A    between atoms: C_3  and  C_5
REMARK    4  A    between atoms: C_6  and  C_7
REMARK    5  A    between atoms: C_11  and  C_12
REMARK    6  A    between atoms: C_16  and  N_17
REMARK    7  A    between atoms: C_18  and  C_20
REMARK                            x       y       z     vdW  Elec       q    Type
REMARK                         _______ _______ _______ _____ _____    ______ ____
ROOT
ATOM      1  C   UNL     1       3.032   6.517  19.007  0.00  0.00    +0.000 A 
ATOM      2  C   UNL     1       3.943   5.380  19.053  0.00  0.00    +0.000 A 
ATOM      3  C   UNL     1       3.574   4.482  20.041  0.00  0.00    +0.000 A 
ATOM      4  S   UNL     1       2.087   4.892  20.779  0.00  0.00    +0.000 S 
ATOM      5  C   UNL     1       2.016   6.356  19.930  0.00  0.00    +0.000 A 
ENDROOT
BRANCH   2   6
ATOM      6  C   UNL     1       5.050   5.067  18.139  0.00  0.00    +0.000 A 
ATOM      7  C   UNL     1       6.383   5.053  18.568  0.00  0.00    +0.000 A 
ATOM      8  C   UNL     1       7.412   4.732  17.676  0.00  0.00    +0.000 A 
ATOM      9  C   UNL     1       7.126   4.441  16.342  0.00  0.00    +0.000 A 
ATOM     10  C   UNL     1       5.804   4.446  15.893  0.00  0.00    +0.000 A 
ATOM     11  C   UNL     1       5.459   4.178  14.459  0.00  0.00    +0.000 C 
ATOM     12  C   UNL     1       4.777   4.733  16.804  0.00  0.00    +0.000 A 
ENDBRANCH   2   6
BRANCH   5  13
ATOM     13  N   UNL     1       0.947   7.142  20.287  0.00  0.00    +0.000 N 
ATOM     14  C   UNL     1       1.065   8.179  21.193  0.00  0.00    +0.000 C 
ATOM     15  O   UNL     1       2.074   8.449  21.842  0.00  0.00    +0.000 OA
ATOM     16  H   UNL     1       0.009   6.820  20.074  0.00  0.00    +0.000 HD
BRANCH  14  17
ATOM     17  C   UNL     1      -0.246   8.946  21.392  0.00  0.00    +0.000 C 
ATOM     18  C   UNL     1      -0.120  10.385  20.912  0.00  0.00    +0.000 C 
ATOM     19  C   UNL     1      -0.980  11.146  21.889  0.00  0.00    +0.000 C 
ATOM     20  C   UNL     1      -0.782  10.366  23.165  0.00  0.00    +0.000 C 
ATOM     21  O   UNL     1      -0.636   8.996  22.778  0.00  0.00    +0.000 OA
ENDBRANCH  14  17
ENDBRANCH   5  13
BRANCH   1  22
ATOM     22  C   UNL     1       3.100   7.633  18.066  0.00  0.00    +0.000 C 
ATOM     23  O   UNL     1       4.127   7.976  17.482  0.00  0.00    +0.000 OA
BRANCH  22  25
ATOM     24  C   UNL     1       1.838   9.598  17.830  0.00  0.00    +0.000 C 
ATOM     25  O   UNL     1       1.863   8.169  17.820  0.00  0.00    +0.000 OA
ENDBRANCH  22  25
ENDBRANCH   1  22
TORSDOF 5
ENDMDL
MODEL 2
REMARK VINA RESULT:      -6.3      2.027      3.617
REMARK  Name = 
REMARK  7 active torsions:
REMARK  status: ('A' for Active; 'I' for Inactive)
REMARK    1  A    between atoms: C_1  and  O_2
REMARK    2  A    between atoms: O_2  and  C_3
REMARK    3  A    between atoms: C_3  and  C_5
REMARK    4  A    between atoms: C_6  and  C_7
REMARK    5  A    between atoms: C_11  and  C_12
REMARK    6  A    between atoms: C_16  and  N_17
REMARK    7  A    between atoms: C_18  and  C_20
REMARK                            x       y       z     vdW  Elec       q    Type
REMARK                         _______ _______ _______ _____ _____    ______ ____
ROOT
ATOM      1  C   UNL     1       4.757   5.652  16.813  0.00  0.00    +0.000 A 
ATOM      2  C   UNL     1       4.956   4.418  16.065  0.00  0.00    +0.000 A 
ATOM      3  C   UNL     1       4.346   3.346  16.696  0.00  0.00    +0.000 A 
ATOM      4  S   UNL     1       3.417   3.822  18.050  0.00  0.00    +0.000 S 
ATOM      5  C   UNL     1       3.965   5.420  17.922  0.00  0.00    +0.000 A 
ENDROOT
BRANCH   2   6
ATOM      6  C   UNL     1       5.584   4.246  14.748  0.00  0.00    +0.000 A 
ATOM      7  C   UNL     1       6.909   4.632  14.505  0.00  0.00    +0.000 A 
ATOM      8  C   UNL     1       7.484   4.437  13.244  0.00  0.00    +0.000 A 
ATOM      9  C   UNL     1       6.739   3.874  12.207  0.00  0.00    +0.000 A 
ATOM     10  C   UNL     1       5.418   3.480  12.428  0.00  0.00    +0.000 A 
ATOM     11  C   UNL     1       4.573   2.908  11.330  0.00  0.00    +0.000 C 
ATOM     12  C   UNL     1       4.863   3.646  13.705  0.00  0.00    +0.000 A 
ENDBRANCH   2   6
BRANCH   5  13
ATOM     13  N   UNL     1       3.519   6.232  18.936  0.00  0.00    +0.000 N 
ATOM     14  C   UNL     1       2.508   7.157  18.749  0.00  0.00    +0.000 C 
ATOM     15  O   UNL     1       1.980   7.428  17.673  0.00  0.00    +0.000 OA
ATOM     16  H   UNL     1       4.086   6.331  19.771  0.00  0.00    +0.000 HD
BRANCH  14  17
ATOM     17  C   UNL     1       2.145   7.908  20.034  0.00  0.00    +0.000 C 
ATOM     18  C   UNL     1       1.170   7.105  20.884  0.00  0.00    +0.000 C 
ATOM     19  C   UNL     1       0.296   8.170  21.497  0.00  0.00    +0.000 C 
ATOM     20  C   UNL     1       0.244   9.209  20.405  0.00  0.00    +0.000 C 
ATOM     21  O   UNL     1       1.520   9.176  19.759  0.00  0.00    +0.000 OA
ENDBRANCH  14  17
ENDBRANCH   5  13
BRANCH   1  22
ATOM     22  C   UNL     1       5.230   6.979  16.422  0.00  0.00    +0.000 C 
ATOM     23  O   UNL     1       4.889   7.551  15.388  0.00  0.00    +0.000 OA
BRANCH  22  25
ATOM     24  C   UNL     1       7.353   7.101  17.416  0.00  0.00    +0.000 C 
ATOM     25  O   UNL     1       5.999   7.556  17.399  0.00  0.00    +0.000 OA
ENDBRANCH  22  25
ENDBRANCH   1  22
TORSDOF 5
ENDMDL
MODEL 3
REMARK VINA RESULT:      -6.3      2.515      7.814
REMARK  Name = 
REMARK  7 active torsions:
REMARK  status: ('A' for Active; 'I' for Inactive)
REMARK    1  A    between atoms: C_1  and  O_2
REMARK    2  A    between atoms: O_2  and  C_3
REMARK    3  A    between atoms: C_3  and  C_5
REMARK    4  A    between atoms: C_6  and  C_7
REMARK    5  A    between atoms: C_11  and  C_12
REMARK    6  A    between atoms: C_16  and  N_17
REMARK    7  A    between atoms: C_18  and  C_20
REMARK                            x       y       z     vdW  Elec       q    Type
REMARK                         _______ _______ _______ _____ _____    ______ ____
ROOT
ATOM      1  C   UNL     1       0.867   8.872  20.117  0.00  0.00    +0.000 A 
ATOM      2  C   UNL     1       0.466   9.969  19.246  0.00  0.00    +0.000 A 
ATOM      3  C   UNL     1       1.239  10.005  18.097  0.00  0.00    +0.000 A 
ATOM      4  S   UNL     1       2.298   8.668  17.976  0.00  0.00    +0.000 S 
ATOM      5  C   UNL     1       1.877   8.134  19.527  0.00  0.00    +0.000 A 
ENDROOT
BRANCH   2   6
ATOM      6  C   UNL     1      -0.671  10.885  19.406  0.00  0.00    +0.000 A 
ATOM      7  C   UNL     1      -0.691  11.874  20.398  0.00  0.00    +0.000 A 
ATOM      8  C   UNL     1      -1.782  12.743  20.512  0.00  0.00    +0.000 A 
ATOM      9  C   UNL     1      -2.873  12.623  19.650  0.00  0.00    +0.000 A 
ATOM     10  C   UNL     1      -2.873  11.647  18.653  0.00  0.00    +0.000 A 
ATOM     11  C   UNL     1      -4.043  11.461  17.734  0.00  0.00    +0.000 C 
ATOM     12  C   UNL     1      -1.759  10.805  18.524  0.00  0.00    +0.000 A 
ENDBRANCH   2   6
BRANCH   5  13
ATOM     13  N   UNL     1       2.598   7.041  19.942  0.00  0.00    +0.000 N 
ATOM     14  C   UNL     1       2.630   5.863  19.221  0.00  0.00    +0.000 C 
ATOM     15  O   UNL     1       1.962   5.621  18.217  0.00  0.00    +0.000 OA
ATOM     16  H   UNL     1       2.923   7.004  20.902  0.00  0.00    +0.000 HD
BRANCH  14  17
ATOM     17  C   UNL     1       3.542   4.805  19.850  0.00  0.00    +0.000 C 
ATOM     18  C   UNL     1       4.127   3.882  18.791  0.00  0.00    +0.000 C 
ATOM     19  C   UNL     1       4.186   2.550  19.495  0.00  0.00    +0.000 C 
ATOM     20  C   UNL     1       2.973   2.607  20.390  0.00  0.00    +0.000 C 
ATOM     21  O   UNL     1       2.835   3.973  20.791  0.00  0.00    +0.000 OA
ENDBRANCH  14  17
ENDBRANCH   5  13
BRANCH   1  22
ATOM     22  C   UNL     1       0.245   8.516  21.391  0.00  0.00    +0.000 C 
ATOM     23  O   UNL     1      -0.702   7.738  21.499  0.00  0.00    +0.000 OA
BRANCH  22  25
ATOM     24  C   UNL     1       0.069   9.607  23.463  0.00  0.00    +0.000 C 
ATOM     25  O   UNL     1       0.920   9.055  22.456  0.00  0.00    +0.000 OA
ENDBRANCH  22  25
ENDBRANCH   1  22
TORSDOF 5
ENDMDL
MODEL 4
REMARK VINA RESULT:      -6.2      3.475      5.453
REMARK  Name = 
REMARK  7 active torsions:
REMARK  status: ('A' for Active; 'I' for Inactive)
REMARK    1  A    between atoms: C_1  and  O_2
REMARK    2  A    between atoms: O_2  and  C_3
REMARK    3  A    between atoms: C_3  and  C_5
REMARK    4  A    between atoms: C_6  and  C_7
REMARK    5  A    between atoms: C_11  and  C_12
REMARK    6  A    between atoms: C_16  and  N_17
REMARK    7  A    between atoms: C_18  and  C_20
REMARK                            x       y       z     vdW  Elec       q    Type
REMARK                         _______ _______ _______ _____ _____    ______ ____
ROOT
ATOM      1  C   UNL     1      -0.271  10.300  20.926  0.00  0.00    +0.000 A 
ATOM      2  C   UNL     1       0.820   9.335  20.992  0.00  0.00    +0.000 A 
ATOM      3  C   UNL     1       1.103   8.990  22.303  0.00  0.00    +0.000 A 
ATOM      4  S   UNL     1      -0.009   9.660  23.415  0.00  0.00    +0.000 S 
ATOM      5  C   UNL     1      -0.758  10.562  22.192  0.00  0.00    +0.000 A 
ENDROOT
BRANCH   2   6
ATOM      6  C   UNL     1       1.503   8.660  19.880  0.00  0.00    +0.000 A 
ATOM      7  C   UNL     1       1.723   9.295  18.651  0.00  0.00    +0.000 A 
ATOM      8  C   UNL     1       2.393   8.630  17.619  0.00  0.00    +0.000 A 
ATOM      9  C   UNL     1       2.834   7.318  17.793  0.00  0.00    +0.000 A 
ATOM     10  C   UNL     1       2.627   6.666  19.010  0.00  0.00    +0.000 A 
ATOM     11  C   UNL     1       3.050   5.244  19.223  0.00  0.00    +0.000 C 
ATOM     12  C   UNL     1       1.987   7.355  20.051  0.00  0.00    +0.000 A 
ENDBRANCH   2   6
BRANCH   5  13
ATOM     13  N   UNL     1      -1.743  11.399  22.658  0.00  0.00    +0.000 N 
ATOM     14  C   UNL     1      -1.480  12.694  23.062  0.00  0.00    +0.000 C 
ATOM     15  O   UNL     1      -0.363  13.202  23.150  0.00  0.00    +0.000 OA
ATOM     16  H   UNL     1      -2.633  11.001  22.936  0.00  0.00    +0.000 HD
BRANCH  14  17
ATOM     17  C   UNL     1      -2.741  13.452  23.491  0.00  0.00    +0.000 C 
ATOM     18  C   UNL     1      -3.758  12.513  24.123  0.00  0.00    +0.000 C 
ATOM     19  C   UNL     1      -5.077  13.088  23.673  0.00  0.00    +0.000 C 
ATOM     20  C   UNL     1      -4.742  13.625  22.304  0.00  0.00    +0.000 C 
ATOM     21  O   UNL     1      -3.391  14.091  22.376  0.00  0.00    +0.000 OA
ENDBRANCH  14  17
ENDBRANCH   5  13
BRANCH   1  22
ATOM     22  C   UNL     1      -0.853  10.854  19.705  0.00  0.00    +0.000 C 
ATOM     23  O   UNL     1      -1.441  10.182  18.859  0.00  0.00    +0.000 OA
BRANCH  22  25
ATOM     24  C   UNL     1       0.549  12.722  19.463  0.00  0.00    +0.000 C 
ATOM     25  O   UNL     1      -0.773  12.222  19.676  0.00  0.00    +0.000 OA
ENDBRANCH  22  25
ENDBRANCH   1  22
TORSDOF 5
ENDMDL
MODEL 5
REMARK VINA RESULT:      -6.0      2.698      3.801
REMARK  Name = 
REMARK  7 active torsions:
REMARK  status: ('A' for Active; 'I' for Inactive)
REMARK    1  A    between atoms: C_1  and  O_2
REMARK    2  A    between atoms: O_2  and  C_3
REMARK    3  A    between atoms: C_3  and  C_5
REMARK    4  A    between atoms: C_6  and  C_7
REMARK    5  A    between atoms: C_11  and  C_12
REMARK    6  A    between atoms: C_16  and  N_17
REMARK    7  A    between atoms: C_18  and  C_20
REMARK                            x       y       z     vdW  Elec       q    Type
REMARK                         _______ _______ _______ _____ _____    ______ ____
ROOT
ATOM      1  C   UNL     1       2.439   7.415  19.015  0.00  0.00    +0.000 A 
ATOM      2  C   UNL     1       2.186   6.114  19.621  0.00  0.00    +0.000 A 
ATOM      3  C   UNL     1       1.429   6.238  20.774  0.00  0.00    +0.000 A 
ATOM      4  S   UNL     1       0.887   7.838  21.037  0.00  0.00    +0.000 S 
ATOM      5  C   UNL     1       1.804   8.411  19.733  0.00  0.00    +0.000 A 
ENDROOT
BRANCH   2   6
ATOM      6  C   UNL     1       2.527   4.786  19.093  0.00  0.00    +0.000 A 
ATOM      7  C   UNL     1       2.011   4.317  17.879  0.00  0.00    +0.000 A 
ATOM      8  C   UNL     1       2.371   3.054  17.395  0.00  0.00    +0.000 A 
ATOM      9  C   UNL     1       3.233   2.237  18.127  0.00  0.00    +0.000 A 
ATOM     10  C   UNL     1       3.761   2.685  19.339  0.00  0.00    +0.000 A 
ATOM     11  C   UNL     1       4.659   1.822  20.174  0.00  0.00    +0.000 C 
ATOM     12  C   UNL     1       3.423   3.967  19.797  0.00  0.00    +0.000 A 
ENDBRANCH   2   6
BRANCH   5  13
ATOM     13  N   UNL     1       1.755   9.777  19.590  0.00  0.00    +0.000 N 
ATOM     14  C   UNL     1       0.804  10.402  18.805  0.00  0.00    +0.000 C 
ATOM     15  O   UNL     1      -0.014   9.832  18.085  0.00  0.00    +0.000 OA
ATOM     16  H   UNL     1       2.559  10.328  19.866  0.00  0.00    +0.000 HD
BRANCH  14  17
ATOM     17  C   UNL     1       0.913  11.929  18.842  0.00  0.00    +0.000 C 
ATOM     18  C   UNL     1       2.279  12.395  18.359  0.00  0.00    +0.000 C 
ATOM     19  C   UNL     1       2.551  13.603  19.220  0.00  0.00    +0.000 C 
ATOM     20  C   UNL     1       1.887  13.224  20.520  0.00  0.00    +0.000 C 
ATOM     21  O   UNL     1       0.734  12.452  20.172  0.00  0.00    +0.000 OA
ENDBRANCH  14  17
ENDBRANCH   5  13
BRANCH   1  22
ATOM     22  C   UNL     1       3.172   7.655  17.773  0.00  0.00    +0.000 C 
ATOM     23  O   UNL     1       2.788   8.418  16.887  0.00  0.00    +0.000 OA
BRANCH  22  25
ATOM     24  C   UNL     1       4.813   6.588  16.477  0.00  0.00    +0.000 C 
ATOM     25  O   UNL     1       4.390   7.027  17.770  0.00  0.00    +0.000 OA
ENDBRANCH  22  25
ENDBRANCH   1  22
TORSDOF 5
ENDMDL
MODEL 6
REMARK VINA RESULT:      -6.0      3.502      5.538
REMARK  Name = 
REMARK  7 active torsions:
REMARK  status: ('A' for Active; 'I' for Inactive)
REMARK    1  A    between atoms: C_1  and  O_2
REMARK    2  A    between atoms: O_2  and  C_3
REMARK    3  A    between atoms: C_3  and  C_5
REMARK    4  A    between atoms: C_6  and  C_7
REMARK    5  A    between atoms: C_11  and  C_12
REMARK    6  A    between atoms: C_16  and  N_17
REMARK    7  A    between atoms: C_18  and  C_20
REMARK                            x       y       z     vdW  Elec       q    Type
REMARK                         _______ _______ _______ _____ _____    ______ ____
ROOT
ATOM      1  C   UNL     1      -0.278  10.447  20.943  0.00  0.00    +0.000 A 
ATOM      2  C   UNL     1       0.764   9.428  20.986  0.00  0.00    +0.000 A 
ATOM      3  C   UNL     1       0.978   8.985  22.280  0.00  0.00    +0.000 A 
ATOM      4  S   UNL     1      -0.146   9.635  23.393  0.00  0.00    +0.000 S 
ATOM      5  C   UNL     1      -0.803  10.650  22.206  0.00  0.00    +0.000 A 
ENDROOT
BRANCH   2   6
ATOM      6  C   UNL     1       1.459   8.794  19.857  0.00  0.00    +0.000 A 
ATOM      7  C   UNL     1       1.640   9.453  18.635  0.00  0.00    +0.000 A 
ATOM      8  C   UNL     1       2.323   8.828  17.586  0.00  0.00    +0.000 A 
ATOM      9  C   UNL     1       2.817   7.531  17.738  0.00  0.00    +0.000 A 
ATOM     10  C   UNL     1       2.650   6.857  18.949  0.00  0.00    +0.000 A 
ATOM     11  C   UNL     1       3.131   5.450  19.139  0.00  0.00    +0.000 C 
ATOM     12  C   UNL     1       1.996   7.507  20.006  0.00  0.00    +0.000 A 
ENDBRANCH   2   6
BRANCH   5  13
ATOM     13  N   UNL     1      -1.767  11.501  22.689  0.00  0.00    +0.000 N 
ATOM     14  C   UNL     1      -1.476  12.791  23.091  0.00  0.00    +0.000 C 
ATOM     15  O   UNL     1      -0.350  13.281  23.161  0.00  0.00    +0.000 OA
ATOM     16  H   UNL     1      -2.658  11.117  22.982  0.00  0.00    +0.000 HD
BRANCH  14  17
ATOM     17  C   UNL     1      -2.717  13.568  23.542  0.00  0.00    +0.000 C 
ATOM     18  C   UNL     1      -3.785  12.630  24.086  0.00  0.00    +0.000 C 
ATOM     19  C   UNL     1      -5.070  13.286  23.647  0.00  0.00    +0.000 C 
ATOM     20  C   UNL     1      -4.680  13.900  22.326  0.00  0.00    +0.000 C 
ATOM     21  O   UNL     1      -3.315  14.306  22.459  0.00  0.00    +0.000 OA
ENDBRANCH  14  17
ENDBRANCH   5  13
BRANCH   1  22
ATOM     22  C   UNL     1      -0.784  11.107  19.741  0.00  0.00    +0.000 C 
ATOM     23  O   UNL     1      -0.425  12.224  19.369  0.00  0.00    +0.000 OA
BRANCH  22  25
ATOM     24  C   UNL     1      -2.413  10.973  18.056  0.00  0.00    +0.000 C 
ATOM     25  O   UNL     1      -1.608  10.286  19.017  0.00  0.00    +0.000 OA
ENDBRANCH  22  25
ENDBRANCH   1  22
TORSDOF 5
ENDMDL
MODEL 7
REMARK VINA RESULT:      -6.0      5.962      8.537
REMARK  Name = 
REMARK  7 active torsions:
REMARK  status: ('A' for Active; 'I' for Inactive)
REMARK    1  A    between atoms: C_1  and  O_2
REMARK    2  A    between atoms: O_2  and  C_3
REMARK    3  A    between atoms: C_3  and  C_5
REMARK    4  A    between atoms: C_6  and  C_7
REMARK    5  A    between atoms: C_11  and  C_12
REMARK    6  A    between atoms: C_16  and  N_17
REMARK    7  A    between atoms: C_18  and  C_20
REMARK                            x       y       z     vdW  Elec       q    Type
REMARK                         _______ _______ _______ _____ _____    ______ ____
ROOT
ATOM      1  C   UNL     1      -3.107  11.512  18.338  0.00  0.00    +0.000 A 
ATOM      2  C   UNL     1      -2.180  10.447  17.977  0.00  0.00    +0.000 A 
ATOM      3  C   UNL     1      -2.509   9.890  16.753  0.00  0.00    +0.000 A 
ATOM      4  S   UNL     1      -3.782  10.723  15.972  0.00  0.00    +0.000 S 
ATOM      5  C   UNL     1      -4.030  11.708  17.328  0.00  0.00    +0.000 A 
ENDROOT
BRANCH   2   6
ATOM      6  C   UNL     1      -0.957  10.032  18.678  0.00  0.00    +0.000 A 
ATOM      7  C   UNL     1      -0.862  10.054  20.075  0.00  0.00    +0.000 A 
ATOM      8  C   UNL     1       0.311   9.635  20.713  0.00  0.00    +0.000 A 
ATOM      9  C   UNL     1       1.409   9.208  19.964  0.00  0.00    +0.000 A 
ATOM     10  C   UNL     1       1.335   9.176  18.570  0.00  0.00    +0.000 A 
ATOM     11  C   UNL     1       2.505   8.761  17.729  0.00  0.00    +0.000 C 
ATOM     12  C   UNL     1       0.142   9.563  17.943  0.00  0.00    +0.000 A 
ENDBRANCH   2   6
BRANCH   5  13
ATOM     13  N   UNL     1      -5.103  12.556  17.196  0.00  0.00    +0.000 N 
ATOM     14  C   UNL     1      -6.373  12.208  17.616  0.00  0.00    +0.000 C 
ATOM     15  O   UNL     1      -6.706  11.104  18.044  0.00  0.00    +0.000 OA
ATOM     16  H   UNL     1      -5.025  13.352  16.574  0.00  0.00    +0.000 HD
BRANCH  14  17
ATOM     17  C   UNL     1      -7.394  13.332  17.416  0.00  0.00    +0.000 C 
ATOM     18  C   UNL     1      -6.839  14.426  16.515  0.00  0.00    +0.000 C 
ATOM     19  C   UNL     1      -7.436  15.682  17.097  0.00  0.00    +0.000 C 
ATOM     20  C   UNL     1      -7.491  15.358  18.569  0.00  0.00    +0.000 C 
ATOM     21  O   UNL     1      -7.761  13.956  18.661  0.00  0.00    +0.000 OA
ENDBRANCH  14  17
ENDBRANCH   5  13
BRANCH   1  22
ATOM     22  C   UNL     1      -3.038  12.338  19.542  0.00  0.00    +0.000 C 
ATOM     23  O   UNL     1      -2.092  13.075  19.815  0.00  0.00    +0.000 OA
BRANCH  22  25
ATOM     24  C   UNL     1      -4.707  13.569  20.643  0.00  0.00    +0.000 C 
ATOM     25  O   UNL     1      -4.203  12.287  20.263  0.00  0.00    +0.000 OA
ENDBRANCH  22  25
ENDBRANCH   1  22
TORSDOF 5
ENDMDL
MODEL 8
REMARK VINA RESULT:      -6.0      3.373      4.969
REMARK  Name = 
REMARK  7 active torsions:
REMARK  status: ('A' for Active; 'I' for Inactive)
REMARK    1  A    between atoms: C_1  and  O_2
REMARK    2  A    between atoms: O_2  and  C_3
REMARK    3  A    between atoms: C_3  and  C_5
REMARK    4  A    between atoms: C_6  and  C_7
REMARK    5  A    between atoms: C_11  and  C_12
REMARK    6  A    between atoms: C_16  and  N_17
REMARK    7  A    between atoms: C_18  and  C_20
REMARK                            x       y       z     vdW  Elec       q    Type
REMARK                         _______ _______ _______ _____ _____    ______ ____
ROOT
ATOM      1  C   UNL     1       1.067   9.711  19.852  0.00  0.00    +0.000 A 
ATOM      2  C   UNL     1       1.406   8.468  20.533  0.00  0.00    +0.000 A 
ATOM      3  C   UNL     1       1.139   8.552  21.890  0.00  0.00    +0.000 A 
ATOM      4  S   UNL     1       0.348  10.006  22.316  0.00  0.00    +0.000 S 
ATOM      5  C   UNL     1       0.520  10.614  20.744  0.00  0.00    +0.000 A 
ENDROOT
BRANCH   2   6
ATOM      6  C   UNL     1       1.849   7.199  19.939  0.00  0.00    +0.000 A 
ATOM      7  C   UNL     1       2.677   7.160  18.810  0.00  0.00    +0.000 A 
ATOM      8  C   UNL     1       3.097   5.934  18.280  0.00  0.00    +0.000 A 
ATOM      9  C   UNL     1       2.679   4.735  18.859  0.00  0.00    +0.000 A 
ATOM     10  C   UNL     1       1.856   4.751  19.986  0.00  0.00    +0.000 A 
ATOM     11  C   UNL     1       1.355   3.484  20.612  0.00  0.00    +0.000 C 
ATOM     12  C   UNL     1       1.471   5.984  20.531  0.00  0.00    +0.000 A 
ENDBRANCH   2   6
BRANCH   5  13
ATOM     13  N   UNL     1       0.072  11.905  20.607  0.00  0.00    +0.000 N 
ATOM     14  C   UNL     1       0.915  12.994  20.727  0.00  0.00    +0.000 C 
ATOM     15  O   UNL     1       2.097  12.949  21.062  0.00  0.00    +0.000 OA
ATOM     16  H   UNL     1      -0.924  12.086  20.652  0.00  0.00    +0.000 HD
BRANCH  14  17
ATOM     17  C   UNL     1       0.202  14.328  20.482  0.00  0.00    +0.000 C 
ATOM     18  C   UNL     1      -0.274  14.440  19.040  0.00  0.00    +0.000 C 
ATOM     19  C   UNL     1      -0.100  15.907  18.737  0.00  0.00    +0.000 C 
ATOM     20  C   UNL     1       1.123  16.258  19.548  0.00  0.00    +0.000 C 
ATOM     21  O   UNL     1       1.064  15.455  20.731  0.00  0.00    +0.000 OA
ENDBRANCH  14  17
ENDBRANCH   5  13
BRANCH   1  22
ATOM     22  C   UNL     1       1.185   9.962  18.417  0.00  0.00    +0.000 C 
ATOM     23  O   UNL     1       2.133  10.553  17.900  0.00  0.00    +0.000 OA
BRANCH  22  25
ATOM     24  C   UNL     1      -1.034  10.107  17.664  0.00  0.00    +0.000 C 
ATOM     25  O   UNL     1       0.181   9.355  17.708  0.00  0.00    +0.000 OA
ENDBRANCH  22  25
ENDBRANCH   1  22
TORSDOF 5
ENDMDL
MODEL 9
REMARK VINA RESULT:      -5.9      2.637      7.632
REMARK  Name = 
REMARK  7 active torsions:
REMARK  status: ('A' for Active; 'I' for Inactive)
REMARK    1  A    between atoms: C_1  and  O_2
REMARK    2  A    between atoms: O_2  and  C_3
REMARK    3  A    between atoms: C_3  and  C_5
REMARK    4  A    between atoms: C_6  and  C_7
REMARK    5  A    between atoms: C_11  and  C_12
REMARK    6  A    between atoms: C_16  and  N_17
REMARK    7  A    between atoms: C_18  and  C_20
REMARK                            x       y       z     vdW  Elec       q    Type
REMARK                         _______ _______ _______ _____ _____    ______ ____
ROOT
ATOM      1  C   UNL     1       1.385   8.625  19.932  0.00  0.00    +0.000 A 
ATOM      2  C   UNL     1       1.288   9.739  18.997  0.00  0.00    +0.000 A 
ATOM      3  C   UNL     1       2.084   9.529  17.883  0.00  0.00    +0.000 A 
ATOM      4  S   UNL     1       2.794   7.974  17.867  0.00  0.00    +0.000 S 
ATOM      5  C   UNL     1       2.207   7.639  19.420  0.00  0.00    +0.000 A 
ENDROOT
BRANCH   2   6
ATOM      6  C   UNL     1       0.400  10.907  19.066  0.00  0.00    +0.000 A 
ATOM      7  C   UNL     1      -0.995  10.780  19.028  0.00  0.00    +0.000 A 
ATOM      8  C   UNL     1      -1.813  11.912  19.116  0.00  0.00    +0.000 A 
ATOM      9  C   UNL     1      -1.250  13.184  19.222  0.00  0.00    +0.000 A 
ATOM     10  C   UNL     1       0.137  13.334  19.264  0.00  0.00    +0.000 A 
ATOM     11  C   UNL     1       0.781  14.686  19.338  0.00  0.00    +0.000 C 
ATOM     12  C   UNL     1       0.947  12.190  19.213  0.00  0.00    +0.000 A 
ENDBRANCH   2   6
BRANCH   5  13
ATOM     13  N   UNL     1       2.631   6.429  19.914  0.00  0.00    +0.000 N 
ATOM     14  C   UNL     1       2.326   5.232  19.293  0.00  0.00    +0.000 C 
ATOM     15  O   UNL     1       1.581   5.100  18.323  0.00  0.00    +0.000 OA
ATOM     16  H   UNL     1       2.970   6.380  20.868  0.00  0.00    +0.000 HD
BRANCH  14  17
ATOM     17  C   UNL     1       2.950   4.022  19.995  0.00  0.00    +0.000 C 
ATOM     18  C   UNL     1       4.359   3.755  19.483  0.00  0.00    +0.000 C 
ATOM     19  C   UNL     1       4.455   2.251  19.519  0.00  0.00    +0.000 C 
ATOM     20  C   UNL     1       3.043   1.832  19.195  0.00  0.00    +0.000 C 
ATOM     21  O   UNL     1       2.188   2.819  19.779  0.00  0.00    +0.000 OA
ENDBRANCH  14  17
ENDBRANCH   5  13
BRANCH   1  22
ATOM     22  C   UNL     1       0.656   8.497  21.192  0.00  0.00    +0.000 C 
ATOM     23  O   UNL     1      -0.132   7.584  21.438  0.00  0.00    +0.000 OA
BRANCH  22  25
ATOM     24  C   UNL     1       0.115   9.633  23.174  0.00  0.00    +0.000 C 
ATOM     25  O   UNL     1       1.045   9.441  22.106  0.00  0.00    +0.000 OA
ENDBRANCH  22  25
ENDBRANCH   1  22
TORSDOF 5
ENDMDL
