MODEL 1
REMARK VINA RESULT:      -9.0      0.000      0.000
REMARK  Name = 
REMARK  7 active torsions:
REMARK  status: ('A' for Active; 'I' for Inactive)
REMARK    1  A    between atoms: C_1  and  C_2
REMARK    2  A    between atoms: C_7  and  O_8
REMARK    3  A    between atoms: O_8  and  C_9
REMARK    4  A    between atoms: C_9  and  C_10
REMARK    5  A    between atoms: C_10  and  C_11
REMARK    6  A    between atoms: C_11  and  N_12
REMARK    7  A    between atoms: N_15  and  C_16
REMARK                            x       y       z     vdW  Elec       q    Type
REMARK                         _______ _______ _______ _____ _____    ______ ____
ROOT
ATOM      1  N   UNL     1       7.391   6.455  17.449  0.00  0.00    +0.000 NA
ATOM      2  C   UNL     1       7.224   5.129  18.092  0.00  0.00    +0.000 C 
ATOM      3  C   UNL     1       6.060   4.942  19.117  0.00  0.00    +0.000 C 
ATOM      4  N   UNL     1       4.829   5.596  18.647  0.00  0.00    +0.000 N 
ATOM      5  C   UNL     1       5.065   6.996  18.236  0.00  0.00    +0.000 C 
ATOM      6  C   UNL     1       6.059   6.969  17.060  0.00  0.00    +0.000 C 
ENDROOT
BRANCH   4   7
ATOM      7  C   UNL     1       3.524   5.321  19.059  0.00  0.00    +0.000 A 
ATOM      8  C   UNL     1       2.957   6.306  19.913  0.00  0.00    +0.000 A 
ATOM      9  C   UNL     1       1.733   6.147  20.549  0.00  0.00    +0.000 A 
ATOM     10  C   UNL     1       1.044   4.965  20.380  0.00  0.00    +0.000 A 
ATOM     11  C   UNL     1       1.541   3.965  19.538  0.00  0.00    +0.000 A 
ATOM     12  C   UNL     1       0.822   2.762  19.478  0.00  0.00    +0.000 A 
ATOM     13  C   UNL     1       1.212   1.725  18.642  0.00  0.00    +0.000 A 
ATOM     14  C   UNL     1       2.287   1.911  17.806  0.00  0.00    +0.000 A 
ATOM     15  C   UNL     1       3.009   3.103  17.849  0.00  0.00    +0.000 A 
ATOM     16  F   UNL     1       3.969   3.204  16.921  0.00  0.00    +0.000 F 
ATOM     17  C   UNL     1       2.740   4.142  18.782  0.00  0.00    +0.000 A 
ENDBRANCH   4   7
BRANCH   1  18
ATOM     18  C   UNL     1       8.090   7.470  18.252  0.00  0.00    +0.000 C 
BRANCH  18  19
ATOM     19  C   UNL     1       8.096   8.891  17.687  0.00  0.00    +0.000 C 
BRANCH  19  20
ATOM     20  C   UNL     1       8.810   9.908  18.570  0.00  0.00    +0.000 C 
BRANCH  20  21
ATOM     21  O   UNL     1       9.795  10.646  17.839  0.00  0.00    +0.000 OA
BRANCH  21  28
ATOM     22  C   UNL     1      12.248  11.653  19.350  0.00  0.00    +0.000 C 
ATOM     23  C   UNL     1      11.024  12.454  19.018  0.00  0.00    +0.000 A 
ATOM     24  C   UNL     1      10.966  13.767  19.523  0.00  0.00    +0.000 A 
ATOM     25  C   UNL     1       9.895  14.565  19.181  0.00  0.00    +0.000 A 
ATOM     26  C   UNL     1       8.933  14.102  18.289  0.00  0.00    +0.000 A 
ATOM     27  C   UNL     1       8.923  12.808  17.812  0.00  0.00    +0.000 A 
ATOM     28  C   UNL     1       9.943  11.949  18.239  0.00  0.00    +0.000 A 
ATOM     29  C   UNL     1       7.905  15.138  18.169  0.00  0.00    +0.000 C 
ATOM     30  O   UNL     1       6.901  15.078  17.490  0.00  0.00    +0.000 OA
ATOM     31  N   UNL     1       8.241  16.140  19.061  0.00  0.00    +0.000 N 
ATOM     32  C   UNL     1       9.529  15.916  19.677  0.00  0.00    +0.000 C 
ATOM     33  H   UNL     1       7.464  16.547  19.565  0.00  0.00    +0.000 HD
ENDBRANCH  21  28
ENDBRANCH  20  21
ENDBRANCH  19  20
ENDBRANCH  18  19
ENDBRANCH   1  18
TORSDOF 6
ENDMDL
MODEL 2
REMARK VINA RESULT:      -8.9      1.898      2.036
REMARK  Name = 
REMARK  7 active torsions:
REMARK  status: ('A' for Active; 'I' for Inactive)
REMARK    1  A    between atoms: C_1  and  C_2
REMARK    2  A    between atoms: C_7  and  O_8
REMARK    3  A    between atoms: O_8  and  C_9
REMARK    4  A    between atoms: C_9  and  C_10
REMARK    5  A    between atoms: C_10  and  C_11
REMARK    6  A    between atoms: C_11  and  N_12
REMARK    7  A    between atoms: N_15  and  C_16
REMARK                            x       y       z     vdW  Elec       q    Type
REMARK                         _______ _______ _______ _____ _____    ______ ____
ROOT
ATOM      1  N   UNL     1       7.112   6.722  17.042  0.00  0.00    +0.000 NA
ATOM      2  C   UNL     1       7.193   5.805  18.205  0.00  0.00    +0.000 C 
ATOM      3  C   UNL     1       5.999   5.776  19.213  0.00  0.00    +0.000 C 
ATOM      4  N   UNL     1       4.709   5.820  18.507  0.00  0.00    +0.000 N 
ATOM      5  C   UNL     1       4.652   6.918  17.520  0.00  0.00    +0.000 C 
ATOM      6  C   UNL     1       5.748   6.653  16.472  0.00  0.00    +0.000 C 
ENDROOT
BRANCH   4   7
ATOM      7  C   UNL     1       3.468   5.417  19.005  0.00  0.00    +0.000 A 
ATOM      8  C   UNL     1       2.880   6.326  19.926  0.00  0.00    +0.000 A 
ATOM      9  C   UNL     1       1.726   6.041  20.644  0.00  0.00    +0.000 A 
ATOM     10  C   UNL     1       1.136   4.805  20.490  0.00  0.00    +0.000 A 
ATOM     11  C   UNL     1       1.657   3.874  19.586  0.00  0.00    +0.000 A 
ATOM     12  C   UNL     1       1.046   2.612  19.543  0.00  0.00    +0.000 A 
ATOM     13  C   UNL     1       1.464   1.634  18.651  0.00  0.00    +0.000 A 
ATOM     14  C   UNL     1       2.452   1.937  17.745  0.00  0.00    +0.000 A 
ATOM     15  C   UNL     1       3.066   3.189  17.771  0.00  0.00    +0.000 A 
ATOM     16  F   UNL     1       3.941   3.398  16.779  0.00  0.00    +0.000 F 
ATOM     17  C   UNL     1       2.774   4.177  18.750  0.00  0.00    +0.000 A 
ENDBRANCH   4   7
BRANCH   1  18
ATOM     18  C   UNL     1       7.457   8.126  17.312  0.00  0.00    +0.000 C 
BRANCH  18  19
ATOM     19  C   UNL     1       8.401   8.375  18.489  0.00  0.00    +0.000 C 
BRANCH  19  20
ATOM     20  C   UNL     1       8.920   9.805  18.576  0.00  0.00    +0.000 C 
BRANCH  20  21
ATOM     21  O   UNL     1       9.670  10.025  19.776  0.00  0.00    +0.000 OA
BRANCH  21  28
ATOM     22  C   UNL     1      11.587  11.895  18.312  0.00  0.00    +0.000 C 
ATOM     23  C   UNL     1      10.769  12.238  19.522  0.00  0.00    +0.000 A 
ATOM     24  C   UNL     1      10.968  13.514  20.084  0.00  0.00    +0.000 A 
ATOM     25  C   UNL     1      10.184  13.900  21.151  0.00  0.00    +0.000 A 
ATOM     26  C   UNL     1       9.166  13.070  21.609  0.00  0.00    +0.000 A 
ATOM     27  C   UNL     1       8.970  11.795  21.122  0.00  0.00    +0.000 A 
ATOM     28  C   UNL     1       9.831  11.344  20.114  0.00  0.00    +0.000 A 
ATOM     29  C   UNL     1       8.556  13.719  22.772  0.00  0.00    +0.000 C 
ATOM     30  O   UNL     1       7.645  13.279  23.443  0.00  0.00    +0.000 OA
ATOM     31  N   UNL     1       9.291  14.862  23.023  0.00  0.00    +0.000 N 
ATOM     32  C   UNL     1      10.279  15.115  22.000  0.00  0.00    +0.000 C 
ATOM     33  H   UNL     1       9.461  15.059  24.001  0.00  0.00    +0.000 HD
ENDBRANCH  21  28
ENDBRANCH  20  21
ENDBRANCH  19  20
ENDBRANCH  18  19
ENDBRANCH   1  18
TORSDOF 6
ENDMDL
MODEL 3
REMARK VINA RESULT:      -8.8      1.971      2.883
REMARK  Name = 
REMARK  7 active torsions:
REMARK  status: ('A' for Active; 'I' for Inactive)
REMARK    1  A    between atoms: C_1  and  C_2
REMARK    2  A    between atoms: C_7  and  O_8
REMARK    3  A    between atoms: O_8  and  C_9
REMARK    4  A    between atoms: C_9  and  C_10
REMARK    5  A    between atoms: C_10  and  C_11
REMARK    6  A    between atoms: C_11  and  N_12
REMARK    7  A    between atoms: N_15  and  C_16
REMARK                            x       y       z     vdW  Elec       q    Type
REMARK                         _______ _______ _______ _____ _____    ______ ____
ROOT
ATOM      1  N   UNL     1       7.064   6.701  16.578  0.00  0.00    +0.000 NA
ATOM      2  C   UNL     1       7.505   5.508  17.342  0.00  0.00    +0.000 C 
ATOM      3  C   UNL     1       6.486   4.831  18.314  0.00  0.00    +0.000 C 
ATOM      4  N   UNL     1       5.146   4.758  17.710  0.00  0.00    +0.000 N 
ATOM      5  C   UNL     1       4.706   6.062  17.173  0.00  0.00    +0.000 C 
ATOM      6  C   UNL     1       5.696   6.461  16.063  0.00  0.00    +0.000 C 
ENDROOT
BRANCH   4   7
ATOM      7  C   UNL     1       4.109   3.897  18.075  0.00  0.00    +0.000 A 
ATOM      8  C   UNL     1       4.081   2.672  17.355  0.00  0.00    +0.000 A 
ATOM      9  C   UNL     1       3.048   1.751  17.462  0.00  0.00    +0.000 A 
ATOM     10  C   UNL     1       1.974   2.047  18.275  0.00  0.00    +0.000 A 
ATOM     11  C   UNL     1       1.951   3.229  19.022  0.00  0.00    +0.000 A 
ATOM     12  C   UNL     1       0.792   3.494  19.765  0.00  0.00    +0.000 A 
ATOM     13  C   UNL     1       0.688   4.620  20.571  0.00  0.00    +0.000 A 
ATOM     14  C   UNL     1       1.774   5.454  20.693  0.00  0.00    +0.000 A 
ATOM     15  C   UNL     1       2.936   5.201  19.966  0.00  0.00    +0.000 A 
ATOM     16  F   UNL     1       3.956   6.024  20.245  0.00  0.00    +0.000 F 
ATOM     17  C   UNL     1       3.049   4.143  19.023  0.00  0.00    +0.000 A 
ENDBRANCH   4   7
BRANCH   1  18
ATOM     18  C   UNL     1       7.092   7.975  17.311  0.00  0.00    +0.000 C 
BRANCH  18  19
ATOM     19  C   UNL     1       8.315   8.217  18.197  0.00  0.00    +0.000 C 
BRANCH  19  20
ATOM     20  C   UNL     1       8.728   9.680  18.299  0.00  0.00    +0.000 C 
BRANCH  20  21
ATOM     21  O   UNL     1       8.904  10.089  19.660  0.00  0.00    +0.000 OA
BRANCH  21  28
ATOM     22  C   UNL     1       8.692  11.802  22.177  0.00  0.00    +0.000 C 
ATOM     23  C   UNL     1       9.451  12.151  20.931  0.00  0.00    +0.000 A 
ATOM     24  C   UNL     1      10.052  13.424  20.888  0.00  0.00    +0.000 A 
ATOM     25  C   UNL     1      10.822  13.759  19.794  0.00  0.00    +0.000 A 
ATOM     26  C   UNL     1      11.060  12.824  18.792  0.00  0.00    +0.000 A 
ATOM     27  C   UNL     1      10.452  11.587  18.769  0.00  0.00    +0.000 A 
ATOM     28  C   UNL     1       9.577  11.272  19.817  0.00  0.00    +0.000 A 
ATOM     29  C   UNL     1      11.852  13.483  17.751  0.00  0.00    +0.000 C 
ATOM     30  O   UNL     1      12.234  12.982  16.715  0.00  0.00    +0.000 OA
ATOM     31  N   UNL     1      11.976  14.809  18.123  0.00  0.00    +0.000 N 
ATOM     32  C   UNL     1      11.444  15.061  19.442  0.00  0.00    +0.000 C 
ATOM     33  H   UNL     1      11.893  15.478  17.369  0.00  0.00    +0.000 HD
ENDBRANCH  21  28
ENDBRANCH  20  21
ENDBRANCH  19  20
ENDBRANCH  18  19
ENDBRANCH   1  18
TORSDOF 6
ENDMDL
MODEL 4
REMARK VINA RESULT:      -8.6      5.880      9.479
REMARK  Name = 
REMARK  7 active torsions:
REMARK  status: ('A' for Active; 'I' for Inactive)
REMARK    1  A    between atoms: C_1  and  C_2
REMARK    2  A    between atoms: C_7  and  O_8
REMARK    3  A    between atoms: O_8  and  C_9
REMARK    4  A    between atoms: C_9  and  C_10
REMARK    5  A    between atoms: C_10  and  C_11
REMARK    6  A    between atoms: C_11  and  N_12
REMARK    7  A    between atoms: N_15  and  C_16
REMARK                            x       y       z     vdW  Elec       q    Type
REMARK                         _______ _______ _______ _____ _____    ______ ____
ROOT
ATOM      1  N   UNL     1       2.781   6.992  18.388  0.00  0.00    +0.000 NA
ATOM      2  C   UNL     1       2.053   6.901  19.677  0.00  0.00    +0.000 C 
ATOM      3  C   UNL     1       1.648   8.227  20.398  0.00  0.00    +0.000 C 
ATOM      4  N   UNL     1       1.145   9.220  19.436  0.00  0.00    +0.000 N 
ATOM      5  C   UNL     1       2.061   9.399  18.291  0.00  0.00    +0.000 C 
ATOM      6  C   UNL     1       2.155   8.048  17.559  0.00  0.00    +0.000 C 
ENDROOT
BRANCH   4   7
ATOM      7  C   UNL     1       0.339  10.324  19.717  0.00  0.00    +0.000 A 
ATOM      8  C   UNL     1       0.784  11.115  20.810  0.00  0.00    +0.000 A 
ATOM      9  C   UNL     1       0.046  12.164  21.341  0.00  0.00    +0.000 A 
ATOM     10  C   UNL     1      -1.198  12.435  20.813  0.00  0.00    +0.000 A 
ATOM     11  C   UNL     1      -1.685  11.704  19.726  0.00  0.00    +0.000 A 
ATOM     12  C   UNL     1      -2.989  11.989  19.295  0.00  0.00    +0.000 A 
ATOM     13  C   UNL     1      -3.548  11.345  18.199  0.00  0.00    +0.000 A 
ATOM     14  C   UNL     1      -2.778  10.462  17.481  0.00  0.00    +0.000 A 
ATOM     15  C   UNL     1      -1.478  10.172  17.893  0.00  0.00    +0.000 A 
ATOM     16  F   UNL     1      -0.796   9.375  17.059  0.00  0.00    +0.000 F 
ATOM     17  C   UNL     1      -0.904  10.695  19.084  0.00  0.00    +0.000 A 
ENDBRANCH   4   7
BRANCH   1  18
ATOM     18  C   UNL     1       4.226   7.244  18.487  0.00  0.00    +0.000 C 
BRANCH  18  19
ATOM     19  C   UNL     1       5.138   6.237  17.784  0.00  0.00    +0.000 C 
BRANCH  19  20
ATOM     20  C   UNL     1       6.151   5.568  18.705  0.00  0.00    +0.000 C 
BRANCH  20  21
ATOM     21  O   UNL     1       6.028   4.142  18.683  0.00  0.00    +0.000 OA
BRANCH  21  28
ATOM     22  C   UNL     1       4.675   3.380  16.055  0.00  0.00    +0.000 C 
ATOM     23  C   UNL     1       4.031   3.392  17.410  0.00  0.00    +0.000 A 
ATOM     24  C   UNL     1       2.653   3.108  17.462  0.00  0.00    +0.000 A 
ATOM     25  C   UNL     1       2.035   3.035  18.693  0.00  0.00    +0.000 A 
ATOM     26  C   UNL     1       2.781   3.164  19.860  0.00  0.00    +0.000 A 
ATOM     27  C   UNL     1       4.120   3.493  19.855  0.00  0.00    +0.000 A 
ATOM     28  C   UNL     1       4.739   3.682  18.612  0.00  0.00    +0.000 A 
ATOM     29  C   UNL     1       1.850   3.100  20.989  0.00  0.00    +0.000 C 
ATOM     30  O   UNL     1       2.139   3.194  22.163  0.00  0.00    +0.000 OA
ATOM     31  N   UNL     1       0.577   3.031  20.454  0.00  0.00    +0.000 N 
ATOM     32  C   UNL     1       0.593   2.887  19.017  0.00  0.00    +0.000 C 
ATOM     33  H   UNL     1      -0.124   3.579  20.935  0.00  0.00    +0.000 HD
ENDBRANCH  21  28
ENDBRANCH  20  21
ENDBRANCH  19  20
ENDBRANCH  18  19
ENDBRANCH   1  18
TORSDOF 6
ENDMDL
MODEL 5
REMARK VINA RESULT:      -8.5      1.125      2.133
REMARK  Name = 
REMARK  7 active torsions:
REMARK  status: ('A' for Active; 'I' for Inactive)
REMARK    1  A    between atoms: C_1  and  C_2
REMARK    2  A    between atoms: C_7  and  O_8
REMARK    3  A    between atoms: O_8  and  C_9
REMARK    4  A    between atoms: C_9  and  C_10
REMARK    5  A    between atoms: C_10  and  C_11
REMARK    6  A    between atoms: C_11  and  N_12
REMARK    7  A    between atoms: N_15  and  C_16
REMARK                            x       y       z     vdW  Elec       q    Type
REMARK                         _______ _______ _______ _____ _____    ______ ____
ROOT
ATOM      1  N   UNL     1       6.949   6.740  16.537  0.00  0.00    +0.000 NA
ATOM      2  C   UNL     1       7.462   5.565  17.283  0.00  0.00    +0.000 C 
ATOM      3  C   UNL     1       6.509   4.854  18.297  0.00  0.00    +0.000 C 
ATOM      4  N   UNL     1       5.149   4.734  17.750  0.00  0.00    +0.000 N 
ATOM      5  C   UNL     1       4.642   6.021  17.231  0.00  0.00    +0.000 C 
ATOM      6  C   UNL     1       5.570   6.452  16.081  0.00  0.00    +0.000 C 
ENDROOT
BRANCH   4   7
ATOM      7  C   UNL     1       4.159   3.838  18.157  0.00  0.00    +0.000 A 
ATOM      8  C   UNL     1       4.207   2.573  17.511  0.00  0.00    +0.000 A 
ATOM      9  C   UNL     1       3.227   1.602  17.665  0.00  0.00    +0.000 A 
ATOM     10  C   UNL     1       2.130   1.884  18.451  0.00  0.00    +0.000 A 
ATOM     11  C   UNL     1       2.032   3.104  19.127  0.00  0.00    +0.000 A 
ATOM     12  C   UNL     1       0.852   3.346  19.845  0.00  0.00    +0.000 A 
ATOM     13  C   UNL     1       0.676   4.510  20.581  0.00  0.00    +0.000 A 
ATOM     14  C   UNL     1       1.712   5.410  20.662  0.00  0.00    +0.000 A 
ATOM     15  C   UNL     1       2.893   5.181  19.959  0.00  0.00    +0.000 A 
ATOM     16  F   UNL     1       3.862   6.076  20.196  0.00  0.00    +0.000 F 
ATOM     17  C   UNL     1       3.076   4.078  19.081  0.00  0.00    +0.000 A 
ENDBRANCH   4   7
BRANCH   1  18
ATOM     18  C   UNL     1       6.963   8.016  17.269  0.00  0.00    +0.000 C 
BRANCH  18  19
ATOM     19  C   UNL     1       8.271   8.375  17.975  0.00  0.00    +0.000 C 
BRANCH  19  20
ATOM     20  C   UNL     1       8.387   9.845  18.359  0.00  0.00    +0.000 C 
BRANCH  20  21
ATOM     21  O   UNL     1       9.626  10.413  17.920  0.00  0.00    +0.000 OA
BRANCH  21  28
ATOM     22  C   UNL     1      12.177  11.643  19.057  0.00  0.00    +0.000 C 
ATOM     23  C   UNL     1      10.893  12.368  18.781  0.00  0.00    +0.000 A 
ATOM     24  C   UNL     1      10.833  13.722  19.160  0.00  0.00    +0.000 A 
ATOM     25  C   UNL     1       9.699  14.448  18.858  0.00  0.00    +0.000 A 
ATOM     26  C   UNL     1       8.671  13.867  18.124  0.00  0.00    +0.000 A 
ATOM     27  C   UNL     1       8.666  12.532  17.777  0.00  0.00    +0.000 A 
ATOM     28  C   UNL     1       9.760  11.753  18.174  0.00  0.00    +0.000 A 
ATOM     29  C   UNL     1       7.594  14.854  18.014  0.00  0.00    +0.000 C 
ATOM     30  O   UNL     1       6.529  14.694  17.455  0.00  0.00    +0.000 OA
ATOM     31  N   UNL     1       7.978  15.950  18.764  0.00  0.00    +0.000 N 
ATOM     32  C   UNL     1       9.330  15.830  19.258  0.00  0.00    +0.000 C 
ATOM     33  H   UNL     1       7.240  16.381  19.306  0.00  0.00    +0.000 HD
ENDBRANCH  21  28
ENDBRANCH  20  21
ENDBRANCH  19  20
ENDBRANCH  18  19
ENDBRANCH   1  18
TORSDOF 6
ENDMDL
MODEL 6
REMARK VINA RESULT:      -8.3      5.921      9.313
REMARK  Name = 
REMARK  7 active torsions:
REMARK  status: ('A' for Active; 'I' for Inactive)
REMARK    1  A    between atoms: C_1  and  C_2
REMARK    2  A    between atoms: C_7  and  O_8
REMARK    3  A    between atoms: O_8  and  C_9
REMARK    4  A    between atoms: C_9  and  C_10
REMARK    5  A    between atoms: C_10  and  C_11
REMARK    6  A    between atoms: C_11  and  N_12
REMARK    7  A    between atoms: N_15  and  C_16
REMARK                            x       y       z     vdW  Elec       q    Type
REMARK                         _______ _______ _______ _____ _____    ______ ____
ROOT
ATOM      1  N   UNL     1       2.181   7.720  19.808  0.00  0.00    +0.000 NA
ATOM      2  C   UNL     1       2.272   8.698  18.696  0.00  0.00    +0.000 C 
ATOM      3  C   UNL     1       0.989   9.498  18.303  0.00  0.00    +0.000 C 
ATOM      4  N   UNL     1       0.252   9.938  19.498  0.00  0.00    +0.000 N 
ATOM      5  C   UNL     1       0.017   8.830  20.447  0.00  0.00    +0.000 C 
ATOM      6  C   UNL     1       1.395   8.320  20.909  0.00  0.00    +0.000 C 
ENDROOT
BRANCH   4   7
ATOM      7  C   UNL     1      -0.677  10.977  19.573  0.00  0.00    +0.000 A 
ATOM      8  C   UNL     1      -0.319  12.024  20.465  0.00  0.00    +0.000 A 
ATOM      9  C   UNL     1      -1.172  13.069  20.794  0.00  0.00    +0.000 A 
ATOM     10  C   UNL     1      -2.444  13.080  20.263  0.00  0.00    +0.000 A 
ATOM     11  C   UNL     1      -2.851  12.087  19.366  0.00  0.00    +0.000 A 
ATOM     12  C   UNL     1      -4.184  12.125  18.930  0.00  0.00    +0.000 A 
ATOM     13  C   UNL     1      -4.672  11.208  18.009  0.00  0.00    +0.000 A 
ATOM     14  C   UNL     1      -3.809  10.289  17.463  0.00  0.00    +0.000 A 
ATOM     15  C   UNL     1      -2.480  10.242  17.881  0.00  0.00    +0.000 A 
ATOM     16  F   UNL     1      -1.716   9.372  17.207  0.00  0.00    +0.000 F 
ATOM     17  C   UNL     1      -1.962  11.063  18.920  0.00  0.00    +0.000 A 
ENDBRANCH   4   7
BRANCH   1  18
ATOM     18  C   UNL     1       1.612   6.410  19.460  0.00  0.00    +0.000 C 
BRANCH  18  19
ATOM     19  C   UNL     1       1.562   5.375  20.585  0.00  0.00    +0.000 C 
BRANCH  19  20
ATOM     20  C   UNL     1       2.909   4.737  20.902  0.00  0.00    +0.000 C 
BRANCH  20  21
ATOM     21  O   UNL     1       3.169   3.603  20.067  0.00  0.00    +0.000 OA
BRANCH  21  28
ATOM     22  C   UNL     1       1.991   3.402  17.259  0.00  0.00    +0.000 C 
ATOM     23  C   UNL     1       3.417   3.724  17.599  0.00  0.00    +0.000 A 
ATOM     24  C   UNL     1       4.312   3.864  16.522  0.00  0.00    +0.000 A 
ATOM     25  C   UNL     1       5.615   4.233  16.784  0.00  0.00    +0.000 A 
ATOM     26  C   UNL     1       6.010   4.537  18.082  0.00  0.00    +0.000 A 
ATOM     27  C   UNL     1       5.181   4.364  19.171  0.00  0.00    +0.000 A 
ATOM     28  C   UNL     1       3.888   3.882  18.934  0.00  0.00    +0.000 A 
ATOM     29  C   UNL     1       7.444   4.834  18.051  0.00  0.00    +0.000 C 
ATOM     30  O   UNL     1       8.137   5.124  19.003  0.00  0.00    +0.000 OA
ATOM     31  N   UNL     1       7.871   4.606  16.756  0.00  0.00    +0.000 N 
ATOM     32  C   UNL     1       6.775   4.317  15.860  0.00  0.00    +0.000 C 
ATOM     33  H   UNL     1       8.772   4.155  16.672  0.00  0.00    +0.000 HD
ENDBRANCH  21  28
ENDBRANCH  20  21
ENDBRANCH  19  20
ENDBRANCH  18  19
ENDBRANCH   1  18
TORSDOF 6
ENDMDL
MODEL 7
REMARK VINA RESULT:      -8.2      3.689     10.880
REMARK  Name = 
REMARK  7 active torsions:
REMARK  status: ('A' for Active; 'I' for Inactive)
REMARK    1  A    between atoms: C_1  and  C_2
REMARK    2  A    between atoms: C_7  and  O_8
REMARK    3  A    between atoms: O_8  and  C_9
REMARK    4  A    between atoms: C_9  and  C_10
REMARK    5  A    between atoms: C_10  and  C_11
REMARK    6  A    between atoms: C_11  and  N_12
REMARK    7  A    between atoms: N_15  and  C_16
REMARK                            x       y       z     vdW  Elec       q    Type
REMARK                         _______ _______ _______ _____ _____    ______ ____
ROOT
ATOM      1  N   UNL     1       9.703  10.900  18.160  0.00  0.00    +0.000 NA
ATOM      2  C   UNL     1       8.988  12.149  17.801  0.00  0.00    +0.000 C 
ATOM      3  C   UNL     1       8.661  13.171  18.938  0.00  0.00    +0.000 C 
ATOM      4  N   UNL     1       9.796  13.313  19.864  0.00  0.00    +0.000 N 
ATOM      5  C   UNL     1      10.294  12.006  20.339  0.00  0.00    +0.000 C 
ATOM      6  C   UNL     1      10.793  11.228  19.107  0.00  0.00    +0.000 C 
ENDROOT
BRANCH   4   7
ATOM      7  C   UNL     1      10.041  14.381  20.729  0.00  0.00    +0.000 A 
ATOM      8  C   UNL     1      11.051  15.278  20.286  0.00  0.00    +0.000 A 
ATOM      9  C   UNL     1      11.545  16.313  21.068  0.00  0.00    +0.000 A 
ATOM     10  C   UNL     1      11.065  16.464  22.352  0.00  0.00    +0.000 A 
ATOM     11  C   UNL     1      10.059  15.624  22.840  0.00  0.00    +0.000 A 
ATOM     12  C   UNL     1       9.680  15.791  24.179  0.00  0.00    +0.000 A 
ATOM     13  C   UNL     1       8.663  15.034  24.745  0.00  0.00    +0.000 A 
ATOM     14  C   UNL     1       7.969  14.152  23.952  0.00  0.00    +0.000 A 
ATOM     15  C   UNL     1       8.331  13.978  22.617  0.00  0.00    +0.000 A 
ATOM     16  F   UNL     1       7.520  13.167  21.924  0.00  0.00    +0.000 F 
ATOM     17  C   UNL     1       9.450  14.623  22.024  0.00  0.00    +0.000 A 
ENDBRANCH   4   7
BRANCH   1  18
ATOM     18  C   UNL     1       8.871   9.828  18.726  0.00  0.00    +0.000 C 
BRANCH  18  19
ATOM     19  C   UNL     1       7.914   9.133  17.756  0.00  0.00    +0.000 C 
BRANCH  19  20
ATOM     20  C   UNL     1       7.890   7.615  17.888  0.00  0.00    +0.000 C 
BRANCH  20  21
ATOM     21  O   UNL     1       7.628   6.977  16.634  0.00  0.00    +0.000 OA
BRANCH  21  28
ATOM     22  C   UNL     1       7.249   4.899  14.431  0.00  0.00    +0.000 C 
ATOM     23  C   UNL     1       6.380   5.072  15.643  0.00  0.00    +0.000 A 
ATOM     24  C   UNL     1       5.237   4.255  15.728  0.00  0.00    +0.000 A 
ATOM     25  C   UNL     1       4.451   4.327  16.859  0.00  0.00    +0.000 A 
ATOM     26  C   UNL     1       4.830   5.136  17.925  0.00  0.00    +0.000 A 
ATOM     27  C   UNL     1       5.911   5.990  17.864  0.00  0.00    +0.000 A 
ATOM     28  C   UNL     1       6.656   6.011  16.678  0.00  0.00    +0.000 A 
ATOM     29  C   UNL     1       3.780   5.048  18.942  0.00  0.00    +0.000 C 
ATOM     30  O   UNL     1       3.759   5.633  20.005  0.00  0.00    +0.000 OA
ATOM     31  N   UNL     1       2.771   4.266  18.409  0.00  0.00    +0.000 N 
ATOM     32  C   UNL     1       3.141   3.686  17.139  0.00  0.00    +0.000 C 
ATOM     33  H   UNL     1       1.831   4.582  18.607  0.00  0.00    +0.000 HD
ENDBRANCH  21  28
ENDBRANCH  20  21
ENDBRANCH  19  20
ENDBRANCH  18  19
ENDBRANCH   1  18
TORSDOF 6
ENDMDL
MODEL 8
REMARK VINA RESULT:      -8.2      7.004     10.826
REMARK  Name = 
REMARK  7 active torsions:
REMARK  status: ('A' for Active; 'I' for Inactive)
REMARK    1  A    between atoms: C_1  and  C_2
REMARK    2  A    between atoms: C_7  and  O_8
REMARK    3  A    between atoms: O_8  and  C_9
REMARK    4  A    between atoms: C_9  and  C_10
REMARK    5  A    between atoms: C_10  and  C_11
REMARK    6  A    between atoms: C_11  and  N_12
REMARK    7  A    between atoms: N_15  and  C_16
REMARK                            x       y       z     vdW  Elec       q    Type
REMARK                         _______ _______ _______ _____ _____    ______ ____
ROOT
ATOM      1  N   UNL     1       1.049  11.194  19.270  0.00  0.00    +0.000 NA
ATOM      2  C   UNL     1       0.624  12.556  18.867  0.00  0.00    +0.000 C 
ATOM      3  C   UNL     1      -0.896  12.912  18.939  0.00  0.00    +0.000 C 
ATOM      4  N   UNL     1      -1.508  12.375  20.165  0.00  0.00    +0.000 N 
ATOM      5  C   UNL     1      -1.204  10.942  20.358  0.00  0.00    +0.000 C 
ATOM      6  C   UNL     1       0.323  10.811  20.503  0.00  0.00    +0.000 C 
ENDROOT
BRANCH   4   7
ATOM      7  C   UNL     1      -2.690  12.807  20.769  0.00  0.00    +0.000 A 
ATOM      8  C   UNL     1      -2.505  13.507  21.992  0.00  0.00    +0.000 A 
ATOM      9  C   UNL     1      -3.554  13.886  22.819  0.00  0.00    +0.000 A 
ATOM     10  C   UNL     1      -4.840  13.537  22.463  0.00  0.00    +0.000 A 
ATOM     11  C   UNL     1      -5.089  12.863  21.263  0.00  0.00    +0.000 A 
ATOM     12  C   UNL     1      -6.413  12.476  21.009  0.00  0.00    +0.000 A 
ATOM     13  C   UNL     1      -6.769  11.838  19.829  0.00  0.00    +0.000 A 
ATOM     14  C   UNL     1      -5.812  11.646  18.861  0.00  0.00    +0.000 A 
ATOM     15  C   UNL     1      -4.492  12.030  19.096  0.00  0.00    +0.000 A 
ATOM     16  F   UNL     1      -3.676  11.883  18.044  0.00  0.00    +0.000 F 
ATOM     17  C   UNL     1      -4.045  12.559  20.337  0.00  0.00    +0.000 A 
ENDBRANCH   4   7
BRANCH   1  18
ATOM     18  C   UNL     1       0.874  10.144  18.256  0.00  0.00    +0.000 C 
BRANCH  18  19
ATOM     19  C   UNL     1       2.151   9.464  17.760  0.00  0.00    +0.000 C 
BRANCH  19  20
ATOM     20  C   UNL     1       2.131   7.945  17.875  0.00  0.00    +0.000 C 
BRANCH  20  21
ATOM     21  O   UNL     1       3.451   7.404  17.999  0.00  0.00    +0.000 OA
BRANCH  21  28
ATOM     22  C   UNL     1       5.284   5.919  16.062  0.00  0.00    +0.000 C 
ATOM     23  C   UNL     1       4.286   5.293  16.992  0.00  0.00    +0.000 A 
ATOM     24  C   UNL     1       4.122   3.898  16.903  0.00  0.00    +0.000 A 
ATOM     25  C   UNL     1       3.271   3.270  17.790  0.00  0.00    +0.000 A 
ATOM     26  C   UNL     1       2.652   3.998  18.800  0.00  0.00    +0.000 A 
ATOM     27  C   UNL     1       2.744   5.371  18.892  0.00  0.00    +0.000 A 
ATOM     28  C   UNL     1       3.515   6.037  17.931  0.00  0.00    +0.000 A 
ATOM     29  C   UNL     1       1.778   3.080  19.534  0.00  0.00    +0.000 C 
ATOM     30  O   UNL     1       1.065   3.365  20.473  0.00  0.00    +0.000 OA
ATOM     31  N   UNL     1       1.835   1.863  18.879  0.00  0.00    +0.000 N 
ATOM     32  C   UNL     1       2.822   1.855  17.824  0.00  0.00    +0.000 C 
ATOM     33  H   UNL     1       0.953   1.375  18.798  0.00  0.00    +0.000 HD
ENDBRANCH  21  28
ENDBRANCH  20  21
ENDBRANCH  19  20
ENDBRANCH  18  19
ENDBRANCH   1  18
TORSDOF 6
ENDMDL
MODEL 9
REMARK VINA RESULT:      -8.2      5.837     11.358
REMARK  Name = 
REMARK  7 active torsions:
REMARK  status: ('A' for Active; 'I' for Inactive)
REMARK    1  A    between atoms: C_1  and  C_2
REMARK    2  A    between atoms: C_7  and  O_8
REMARK    3  A    between atoms: O_8  and  C_9
REMARK    4  A    between atoms: C_9  and  C_10
REMARK    5  A    between atoms: C_10  and  C_11
REMARK    6  A    between atoms: C_11  and  N_12
REMARK    7  A    between atoms: N_15  and  C_16
REMARK                            x       y       z     vdW  Elec       q    Type
REMARK                         _______ _______ _______ _____ _____    ______ ____
ROOT
ATOM      1  N   UNL     1      -0.764  10.600  20.007  0.00  0.00    +0.000 NA
ATOM      2  C   UNL     1      -0.746  11.588  21.114  0.00  0.00    +0.000 C 
ATOM      3  C   UNL     1       0.213  12.816  20.997  0.00  0.00    +0.000 C 
ATOM      4  N   UNL     1       0.204  13.368  19.633  0.00  0.00    +0.000 N 
ATOM      5  C   UNL     1       0.417  12.324  18.609  0.00  0.00    +0.000 C 
ATOM      6  C   UNL     1      -0.752  11.327  18.717  0.00  0.00    +0.000 C 
ENDROOT
BRANCH   4   7
ATOM      7  C   UNL     1       0.590  14.652  19.246  0.00  0.00    +0.000 A 
ATOM      8  C   UNL     1      -0.489  15.534  18.970  0.00  0.00    +0.000 A 
ATOM      9  C   UNL     1      -0.318  16.802  18.430  0.00  0.00    +0.000 A 
ATOM     10  C   UNL     1       0.956  17.219  18.107  0.00  0.00    +0.000 A 
ATOM     11  C   UNL     1       2.061  16.404  18.370  0.00  0.00    +0.000 A 
ATOM     12  C   UNL     1       3.314  16.867  17.943  0.00  0.00    +0.000 A 
ATOM     13  C   UNL     1       4.477  16.150  18.193  0.00  0.00    +0.000 A 
ATOM     14  C   UNL     1       4.400  14.996  18.936  0.00  0.00    +0.000 A 
ATOM     15  C   UNL     1       3.163  14.526  19.372  0.00  0.00    +0.000 A 
ATOM     16  F   UNL     1       3.228  13.450  20.169  0.00  0.00    +0.000 F 
ATOM     17  C   UNL     1       1.930  15.143  19.028  0.00  0.00    +0.000 A 
ENDBRANCH   4   7
BRANCH   1  18
ATOM     18  C   UNL     1       0.321   9.608  20.018  0.00  0.00    +0.000 C 
BRANCH  18  19
ATOM     19  C   UNL     1       0.500   8.818  21.316  0.00  0.00    +0.000 C 
BRANCH  19  20
ATOM     20  C   UNL     1       1.358   7.568  21.168  0.00  0.00    +0.000 C 
BRANCH  20  21
ATOM     21  O   UNL     1       2.154   7.608  19.979  0.00  0.00    +0.000 OA
BRANCH  21  28
ATOM     22  C   UNL     1       3.777   7.247  17.419  0.00  0.00    +0.000 C 
ATOM     23  C   UNL     1       3.114   6.155  18.207  0.00  0.00    +0.000 A 
ATOM     24  C   UNL     1       3.176   4.856  17.670  0.00  0.00    +0.000 A 
ATOM     25  C   UNL     1       2.645   3.810  18.397  0.00  0.00    +0.000 A 
ATOM     26  C   UNL     1       2.131   4.032  19.670  0.00  0.00    +0.000 A 
ATOM     27  C   UNL     1       2.005   5.293  20.212  0.00  0.00    +0.000 A 
ATOM     28  C   UNL     1       2.436   6.379  19.440  0.00  0.00    +0.000 A 
ATOM     29  C   UNL     1       1.597   2.759  20.159  0.00  0.00    +0.000 C 
ATOM     30  O   UNL     1       1.054   2.572  21.228  0.00  0.00    +0.000 OA
ATOM     31  N   UNL     1       1.726   1.848  19.127  0.00  0.00    +0.000 N 
ATOM     32  C   UNL     1       2.462   2.389  18.007  0.00  0.00    +0.000 C 
ATOM     33  H   UNL     1       0.943   1.219  19.006  0.00  0.00    +0.000 HD
ENDBRANCH  21  28
ENDBRANCH  20  21
ENDBRANCH  19  20
ENDBRANCH  18  19
ENDBRANCH   1  18
TORSDOF 6
ENDMDL
