MODEL 1
REMARK VINA RESULT:      -8.6      0.000      0.000
REMARK  Name = 
REMARK  5 active torsions:
REMARK  status: ('A' for Active; 'I' for Inactive)
REMARK    1  A    between atoms: C_1  and  O_2
REMARK    2  A    between atoms: O_2  and  C_3
REMARK    3  A    between atoms: C_6  and  C_7
REMARK    4  A    between atoms: C_7  and  N_8
REMARK    5  A    between atoms: N_11  and  C_12
REMARK                            x       y       z     vdW  Elec       q    Type
REMARK                         _______ _______ _______ _____ _____    ______ ____
ROOT
ATOM      1  N   UNL     1       8.043   9.140  17.856  0.00  0.00    +0.000 N 
ATOM      2  C   UNL     1       7.698   7.805  17.890  0.00  0.00    +0.000 C 
ATOM      3  O   UNL     1       8.197   7.034  18.701  0.00  0.00    +0.000 OA
ATOM      4  N   UNL     1       6.809   7.471  16.887  0.00  0.00    +0.000 N 
ATOM      5  H   UNL     1       7.303   9.775  17.596  0.00  0.00    +0.000 HD
ATOM      6  H   UNL     1       6.821   8.105  16.105  0.00  0.00    +0.000 HD
ENDROOT
BRANCH   4   7
ATOM      7  C   UNL     1       6.343   6.145  16.641  0.00  0.00    +0.000 A 
ATOM      8  C   UNL     1       7.099   5.273  15.842  0.00  0.00    +0.000 A 
ATOM      9  C   UNL     1       6.603   4.031  15.460  0.00  0.00    +0.000 A 
ATOM     10  C   UNL     1       5.332   3.645  15.862  0.00  0.00    +0.000 A 
ATOM     11  C   UNL     1       4.562   4.469  16.692  0.00  0.00    +0.000 A 
ATOM     12  C   UNL     1       3.269   4.061  17.051  0.00  0.00    +0.000 A 
ATOM     13  C   UNL     1       2.480   4.835  17.895  0.00  0.00    +0.000 A 
ATOM     14  C   UNL     1       2.992   6.011  18.425  0.00  0.00    +0.000 A 
ATOM     15  C   UNL     1       4.271   6.445  18.059  0.00  0.00    +0.000 A 
ATOM     16  C   UNL     1       5.080   5.714  17.151  0.00  0.00    +0.000 A 
ENDBRANCH   4   7
BRANCH   1  17
ATOM     17  C   UNL     1       8.966   9.614  18.870  0.00  0.00    +0.000 C 
BRANCH  17  21
ATOM     18  C   UNL     1      10.874  13.352  17.835  0.00  0.00    +0.000 A 
ATOM     19  C   UNL     1      11.566  12.360  18.529  0.00  0.00    +0.000 A 
ATOM     20  C   UNL     1      10.931  11.170  18.886  0.00  0.00    +0.000 A 
ATOM     21  C   UNL     1       9.580  10.959  18.576  0.00  0.00    +0.000 A 
ATOM     22  C   UNL     1       8.889  11.962  17.882  0.00  0.00    +0.000 A 
ATOM     23  C   UNL     1       9.530  13.155  17.521  0.00  0.00    +0.000 A 
BRANCH  18  25
ATOM     24  C   UNL     1      10.869  15.588  17.064  0.00  0.00    +0.000 C 
ATOM     25  O   UNL     1      11.606  14.468  17.537  0.00  0.00    +0.000 OA
ENDBRANCH  18  25
ENDBRANCH  17  21
ENDBRANCH   1  17
TORSDOF 4
ENDMDL
MODEL 2
REMARK VINA RESULT:      -8.5      0.408      1.080
REMARK  Name = 
REMARK  5 active torsions:
REMARK  status: ('A' for Active; 'I' for Inactive)
REMARK    1  A    between atoms: C_1  and  O_2
REMARK    2  A    between atoms: O_2  and  C_3
REMARK    3  A    between atoms: C_6  and  C_7
REMARK    4  A    between atoms: C_7  and  N_8
REMARK    5  A    between atoms: N_11  and  C_12
REMARK                            x       y       z     vdW  Elec       q    Type
REMARK                         _______ _______ _______ _____ _____    ______ ____
ROOT
ATOM      1  N   UNL     1       8.066   9.110  17.839  0.00  0.00    +0.000 N 
ATOM      2  C   UNL     1       7.713   7.777  17.877  0.00  0.00    +0.000 C 
ATOM      3  O   UNL     1       8.213   7.004  18.685  0.00  0.00    +0.000 OA
ATOM      4  N   UNL     1       6.814   7.449  16.881  0.00  0.00    +0.000 N 
ATOM      5  H   UNL     1       7.328   9.749  17.585  0.00  0.00    +0.000 HD
ATOM      6  H   UNL     1       6.823   8.082  16.099  0.00  0.00    +0.000 HD
ENDROOT
BRANCH   4   7
ATOM      7  C   UNL     1       6.337   6.125  16.640  0.00  0.00    +0.000 A 
ATOM      8  C   UNL     1       7.086   5.245  15.843  0.00  0.00    +0.000 A 
ATOM      9  C   UNL     1       6.580   4.006  15.465  0.00  0.00    +0.000 A 
ATOM     10  C   UNL     1       5.307   3.630  15.870  0.00  0.00    +0.000 A 
ATOM     11  C   UNL     1       4.544   4.463  16.699  0.00  0.00    +0.000 A 
ATOM     12  C   UNL     1       3.249   4.065  17.061  0.00  0.00    +0.000 A 
ATOM     13  C   UNL     1       2.467   4.848  17.904  0.00  0.00    +0.000 A 
ATOM     14  C   UNL     1       2.988   6.021  18.430  0.00  0.00    +0.000 A 
ATOM     15  C   UNL     1       4.271   6.445  18.061  0.00  0.00    +0.000 A 
ATOM     16  C   UNL     1       5.072   5.705  17.153  0.00  0.00    +0.000 A 
ENDBRANCH   4   7
BRANCH   1  17
ATOM     17  C   UNL     1       8.999   9.579  18.846  0.00  0.00    +0.000 C 
BRANCH  17  21
ATOM     18  C   UNL     1      10.475  13.598  18.244  0.00  0.00    +0.000 A 
ATOM     19  C   UNL     1       9.246  13.197  17.719  0.00  0.00    +0.000 A 
ATOM     20  C   UNL     1       8.795  11.888  17.892  0.00  0.00    +0.000 A 
ATOM     21  C   UNL     1       9.576  10.946  18.574  0.00  0.00    +0.000 A 
ATOM     22  C   UNL     1      10.811  11.354  19.097  0.00  0.00    +0.000 A 
ATOM     23  C   UNL     1      11.262  12.670  18.925  0.00  0.00    +0.000 A 
BRANCH  18  25
ATOM     24  C   UNL     1       9.717  15.777  17.723  0.00  0.00    +0.000 C 
ATOM     25  O   UNL     1      10.803  14.905  18.014  0.00  0.00    +0.000 OA
ENDBRANCH  18  25
ENDBRANCH  17  21
ENDBRANCH   1  17
TORSDOF 4
ENDMDL
MODEL 3
REMARK VINA RESULT:      -8.1      5.941      8.975
REMARK  Name = 
REMARK  5 active torsions:
REMARK  status: ('A' for Active; 'I' for Inactive)
REMARK    1  A    between atoms: C_1  and  O_2
REMARK    2  A    between atoms: O_2  and  C_3
REMARK    3  A    between atoms: C_6  and  C_7
REMARK    4  A    between atoms: C_7  and  N_8
REMARK    5  A    between atoms: N_11  and  C_12
REMARK                            x       y       z     vdW  Elec       q    Type
REMARK                         _______ _______ _______ _____ _____    ______ ____
ROOT
ATOM      1  N   UNL     1       1.105   9.484  19.249  0.00  0.00    +0.000 N 
ATOM      2  C   UNL     1       1.856   8.708  18.390  0.00  0.00    +0.000 C 
ATOM      3  O   UNL     1       1.998   9.010  17.211  0.00  0.00    +0.000 OA
ATOM      4  N   UNL     1       2.340   7.571  19.006  0.00  0.00    +0.000 N 
ATOM      5  H   UNL     1       1.431   9.517  20.204  0.00  0.00    +0.000 HD
ATOM      6  H   UNL     1       1.817   7.293  19.819  0.00  0.00    +0.000 HD
ENDROOT
BRANCH   4   7
ATOM      7  C   UNL     1       3.084   6.554  18.334  0.00  0.00    +0.000 A 
ATOM      8  C   UNL     1       4.189   6.903  17.541  0.00  0.00    +0.000 A 
ATOM      9  C   UNL     1       4.839   5.958  16.755  0.00  0.00    +0.000 A 
ATOM     10  C   UNL     1       4.386   4.646  16.740  0.00  0.00    +0.000 A 
ATOM     11  C   UNL     1       3.313   4.250  17.547  0.00  0.00    +0.000 A 
ATOM     12  C   UNL     1       2.861   2.924  17.481  0.00  0.00    +0.000 A 
ATOM     13  C   UNL     1       1.816   2.480  18.284  0.00  0.00    +0.000 A 
ATOM     14  C   UNL     1       1.235   3.350  19.196  0.00  0.00    +0.000 A 
ATOM     15  C   UNL     1       1.658   4.683  19.260  0.00  0.00    +0.000 A 
ATOM     16  C   UNL     1       2.677   5.187  18.411  0.00  0.00    +0.000 A 
ENDBRANCH   4   7
BRANCH   1  17
ATOM     17  C   UNL     1       0.550  10.715  18.719  0.00  0.00    +0.000 C 
BRANCH  17  21
ATOM     18  C   UNL     1      -3.665  10.789  17.757  0.00  0.00    +0.000 A 
ATOM     19  C   UNL     1      -3.135  11.633  18.733  0.00  0.00    +0.000 A 
ATOM     20  C   UNL     1      -1.779  11.578  19.058  0.00  0.00    +0.000 A 
ATOM     21  C   UNL     1      -0.929  10.658  18.429  0.00  0.00    +0.000 A 
ATOM     22  C   UNL     1      -1.468   9.810  17.451  0.00  0.00    +0.000 A 
ATOM     23  C   UNL     1      -2.830   9.869  17.124  0.00  0.00    +0.000 A 
BRANCH  18  25
ATOM     24  C   UNL     1      -5.421  12.243  17.130  0.00  0.00    +0.000 C 
ATOM     25  O   UNL     1      -5.003  10.942  17.525  0.00  0.00    +0.000 OA
ENDBRANCH  18  25
ENDBRANCH  17  21
ENDBRANCH   1  17
TORSDOF 4
ENDMDL
MODEL 4
REMARK VINA RESULT:      -8.1      6.089      8.862
REMARK  Name = 
REMARK  5 active torsions:
REMARK  status: ('A' for Active; 'I' for Inactive)
REMARK    1  A    between atoms: C_1  and  O_2
REMARK    2  A    between atoms: O_2  and  C_3
REMARK    3  A    between atoms: C_6  and  C_7
REMARK    4  A    between atoms: C_7  and  N_8
REMARK    5  A    between atoms: N_11  and  C_12
REMARK                            x       y       z     vdW  Elec       q    Type
REMARK                         _______ _______ _______ _____ _____    ______ ____
ROOT
ATOM      1  N   UNL     1       1.195   9.373  19.241  0.00  0.00    +0.000 N 
ATOM      2  C   UNL     1       1.951   8.552  18.431  0.00  0.00    +0.000 C 
ATOM      3  O   UNL     1       2.241   8.873  17.284  0.00  0.00    +0.000 OA
ATOM      4  N   UNL     1       2.257   7.353  19.045  0.00  0.00    +0.000 N 
ATOM      5  H   UNL     1       1.423   9.345  20.224  0.00  0.00    +0.000 HD
ATOM      6  H   UNL     1       1.629   7.106  19.791  0.00  0.00    +0.000 HD
ENDROOT
BRANCH   4   7
ATOM      7  C   UNL     1       2.964   6.288  18.410  0.00  0.00    +0.000 A 
ATOM      8  C   UNL     1       4.066   6.570  17.588  0.00  0.00    +0.000 A 
ATOM      9  C   UNL     1       4.679   5.573  16.837  0.00  0.00    +0.000 A 
ATOM     10  C   UNL     1       4.190   4.275  16.886  0.00  0.00    +0.000 A 
ATOM     11  C   UNL     1       3.118   3.946  17.724  0.00  0.00    +0.000 A 
ATOM     12  C   UNL     1       2.630   2.631  17.723  0.00  0.00    +0.000 A 
ATOM     13  C   UNL     1       1.584   2.253  18.560  0.00  0.00    +0.000 A 
ATOM     14  C   UNL     1       1.041   3.178  19.439  0.00  0.00    +0.000 A 
ATOM     15  C   UNL     1       1.501   4.500  19.437  0.00  0.00    +0.000 A 
ATOM     16  C   UNL     1       2.521   4.937  18.553  0.00  0.00    +0.000 A 
ENDBRANCH   4   7
BRANCH   1  17
ATOM     17  C   UNL     1       0.819  10.669  18.708  0.00  0.00    +0.000 C 
BRANCH  17  21
ATOM     18  C   UNL     1      -3.432  10.852  17.943  0.00  0.00    +0.000 A 
ATOM     19  C   UNL     1      -2.625   9.917  17.295  0.00  0.00    +0.000 A 
ATOM     20  C   UNL     1      -1.249   9.888  17.526  0.00  0.00    +0.000 A 
ATOM     21  C   UNL     1      -0.649  10.812  18.392  0.00  0.00    +0.000 A 
ATOM     22  C   UNL     1      -1.465  11.751  19.037  0.00  0.00    +0.000 A 
ATOM     23  C   UNL     1      -2.848  11.777  18.807  0.00  0.00    +0.000 A 
BRANCH  18  25
ATOM     24  C   UNL     1      -5.408  12.011  17.355  0.00  0.00    +0.000 C 
ATOM     25  O   UNL     1      -4.763  10.776  17.639  0.00  0.00    +0.000 OA
ENDBRANCH  18  25
ENDBRANCH  17  21
ENDBRANCH   1  17
TORSDOF 4
ENDMDL
MODEL 5
REMARK VINA RESULT:      -8.0      5.598      8.129
REMARK  Name = 
REMARK  5 active torsions:
REMARK  status: ('A' for Active; 'I' for Inactive)
REMARK    1  A    between atoms: C_1  and  O_2
REMARK    2  A    between atoms: O_2  and  C_3
REMARK    3  A    between atoms: C_6  and  C_7
REMARK    4  A    between atoms: C_7  and  N_8
REMARK    5  A    between atoms: N_11  and  C_12
REMARK                            x       y       z     vdW  Elec       q    Type
REMARK                         _______ _______ _______ _____ _____    ______ ____
ROOT
ATOM      1  N   UNL     1       3.559   5.444  20.027  0.00  0.00    +0.000 N 
ATOM      2  C   UNL     1       2.625   6.281  19.453  0.00  0.00    +0.000 C 
ATOM      3  O   UNL     1       2.149   6.048  18.348  0.00  0.00    +0.000 OA
ATOM      4  N   UNL     1       2.371   7.391  20.234  0.00  0.00    +0.000 N 
ATOM      5  H   UNL     1       3.513   5.363  21.032  0.00  0.00    +0.000 HD
ATOM      6  H   UNL     1       3.110   7.612  20.880  0.00  0.00    +0.000 HD
ENDROOT
BRANCH   4   7
ATOM      7  C   UNL     1       1.504   8.457  19.849  0.00  0.00    +0.000 A 
ATOM      8  C   UNL     1       1.486   8.898  18.516  0.00  0.00    +0.000 A 
ATOM      9  C   UNL     1       0.768  10.029  18.140  0.00  0.00    +0.000 A 
ATOM     10  C   UNL     1       0.065  10.747  19.097  0.00  0.00    +0.000 A 
ATOM     11  C   UNL     1       0.026  10.317  20.429  0.00  0.00    +0.000 A 
ATOM     12  C   UNL     1      -0.667  11.087  21.376  0.00  0.00    +0.000 A 
ATOM     13  C   UNL     1      -0.755  10.683  22.704  0.00  0.00    +0.000 A 
ATOM     14  C   UNL     1      -0.183   9.481  23.094  0.00  0.00    +0.000 A 
ATOM     15  C   UNL     1       0.532   8.712  22.169  0.00  0.00    +0.000 A 
ATOM     16  C   UNL     1       0.697   9.124  20.821  0.00  0.00    +0.000 A 
ENDBRANCH   4   7
BRANCH   1  17
ATOM     17  C   UNL     1       3.902   4.235  19.304  0.00  0.00    +0.000 C 
BRANCH  17  21
ATOM     18  C   UNL     1       6.807   4.976  16.188  0.00  0.00    +0.000 A 
ATOM     19  C   UNL     1       5.550   4.449  15.889  0.00  0.00    +0.000 A 
ATOM     20  C   UNL     1       4.632   4.184  16.906  0.00  0.00    +0.000 A 
ATOM     21  C   UNL     1       4.963   4.418  18.248  0.00  0.00    +0.000 A 
ATOM     22  C   UNL     1       6.229   4.944  18.542  0.00  0.00    +0.000 A 
ATOM     23  C   UNL     1       7.149   5.214  17.519  0.00  0.00    +0.000 A 
BRANCH  18  25
ATOM     24  C   UNL     1       7.097   4.776  13.849  0.00  0.00    +0.000 C 
ATOM     25  O   UNL     1       7.613   5.197  15.106  0.00  0.00    +0.000 OA
ENDBRANCH  18  25
ENDBRANCH  17  21
ENDBRANCH   1  17
TORSDOF 4
ENDMDL
MODEL 6
REMARK VINA RESULT:      -7.8      5.626      8.736
REMARK  Name = 
REMARK  5 active torsions:
REMARK  status: ('A' for Active; 'I' for Inactive)
REMARK    1  A    between atoms: C_1  and  O_2
REMARK    2  A    between atoms: O_2  and  C_3
REMARK    3  A    between atoms: C_6  and  C_7
REMARK    4  A    between atoms: C_7  and  N_8
REMARK    5  A    between atoms: N_11  and  C_12
REMARK                            x       y       z     vdW  Elec       q    Type
REMARK                         _______ _______ _______ _____ _____    ______ ____
ROOT
ATOM      1  N   UNL     1       1.389   9.288  18.029  0.00  0.00    +0.000 N 
ATOM      2  C   UNL     1       2.139   8.212  18.458  0.00  0.00    +0.000 C 
ATOM      3  O   UNL     1       2.193   7.900  19.642  0.00  0.00    +0.000 OA
ATOM      4  N   UNL     1       2.834   7.616  17.424  0.00  0.00    +0.000 N 
ATOM      5  H   UNL     1       0.966   9.188  17.118  0.00  0.00    +0.000 HD
ATOM      6  H   UNL     1       2.983   8.220  16.633  0.00  0.00    +0.000 HD
ENDROOT
BRANCH   4   7
ATOM      7  C   UNL     1       3.745   6.531  17.595  0.00  0.00    +0.000 A 
ATOM      8  C   UNL     1       5.128   6.764  17.554  0.00  0.00    +0.000 A 
ATOM      9  C   UNL     1       6.038   5.712  17.565  0.00  0.00    +0.000 A 
ATOM     10  C   UNL     1       5.576   4.404  17.604  0.00  0.00    +0.000 A 
ATOM     11  C   UNL     1       4.205   4.130  17.687  0.00  0.00    +0.000 A 
ATOM     12  C   UNL     1       3.773   2.796  17.691  0.00  0.00    +0.000 A 
ATOM     13  C   UNL     1       2.423   2.478  17.799  0.00  0.00    +0.000 A 
ATOM     14  C   UNL     1       1.489   3.494  17.944  0.00  0.00    +0.000 A 
ATOM     15  C   UNL     1       1.900   4.832  17.918  0.00  0.00    +0.000 A 
ATOM     16  C   UNL     1       3.261   5.195  17.746  0.00  0.00    +0.000 A 
ENDBRANCH   4   7
BRANCH   1  17
ATOM     17  C   UNL     1       0.605   9.991  19.026  0.00  0.00    +0.000 C 
BRANCH  17  21
ATOM     18  C   UNL     1      -3.293  11.278  17.669  0.00  0.00    +0.000 A 
ATOM     19  C   UNL     1      -2.730  11.798  18.834  0.00  0.00    +0.000 A 
ATOM     20  C   UNL     1      -1.485  11.352  19.280  0.00  0.00    +0.000 A 
ATOM     21  C   UNL     1      -0.789  10.357  18.580  0.00  0.00    +0.000 A 
ATOM     22  C   UNL     1      -1.362   9.836  17.412  0.00  0.00    +0.000 A 
ATOM     23  C   UNL     1      -2.611  10.288  16.963  0.00  0.00    +0.000 A 
BRANCH  18  25
ATOM     24  C   UNL     1      -5.642  11.168  17.923  0.00  0.00    +0.000 C 
ATOM     25  O   UNL     1      -4.512  11.799  17.334  0.00  0.00    +0.000 OA
ENDBRANCH  18  25
ENDBRANCH  17  21
ENDBRANCH   1  17
TORSDOF 4
ENDMDL
MODEL 7
REMARK VINA RESULT:      -7.7      5.627      8.749
REMARK  Name = 
REMARK  5 active torsions:
REMARK  status: ('A' for Active; 'I' for Inactive)
REMARK    1  A    between atoms: C_1  and  O_2
REMARK    2  A    between atoms: O_2  and  C_3
REMARK    3  A    between atoms: C_6  and  C_7
REMARK    4  A    between atoms: C_7  and  N_8
REMARK    5  A    between atoms: N_11  and  C_12
REMARK                            x       y       z     vdW  Elec       q    Type
REMARK                         _______ _______ _______ _____ _____    ______ ____
ROOT
ATOM      1  N   UNL     1       1.367   9.274  18.066  0.00  0.00    +0.000 N 
ATOM      2  C   UNL     1       2.126   8.200  18.483  0.00  0.00    +0.000 C 
ATOM      3  O   UNL     1       2.189   7.879  19.664  0.00  0.00    +0.000 OA
ATOM      4  N   UNL     1       2.818   7.616  17.440  0.00  0.00    +0.000 N 
ATOM      5  H   UNL     1       0.938   9.178  17.157  0.00  0.00    +0.000 HD
ATOM      6  H   UNL     1       2.959   8.226  16.652  0.00  0.00    +0.000 HD
ENDROOT
BRANCH   4   7
ATOM      7  C   UNL     1       3.737   6.535  17.597  0.00  0.00    +0.000 A 
ATOM      8  C   UNL     1       5.119   6.777  17.544  0.00  0.00    +0.000 A 
ATOM      9  C   UNL     1       6.034   5.730  17.541  0.00  0.00    +0.000 A 
ATOM     10  C   UNL     1       5.581   4.419  17.579  0.00  0.00    +0.000 A 
ATOM     11  C   UNL     1       4.212   4.138  17.673  0.00  0.00    +0.000 A 
ATOM     12  C   UNL     1       3.789   2.800  17.676  0.00  0.00    +0.000 A 
ATOM     13  C   UNL     1       2.442   2.474  17.794  0.00  0.00    +0.000 A 
ATOM     14  C   UNL     1       1.503   3.484  17.954  0.00  0.00    +0.000 A 
ATOM     15  C   UNL     1       1.906   4.824  17.930  0.00  0.00    +0.000 A 
ATOM     16  C   UNL     1       3.263   5.196  17.747  0.00  0.00    +0.000 A 
ENDBRANCH   4   7
BRANCH   1  17
ATOM     17  C   UNL     1       0.584   9.965  19.073  0.00  0.00    +0.000 C 
BRANCH  17  21
ATOM     18  C   UNL     1      -3.322  11.257  17.742  0.00  0.00    +0.000 A 
ATOM     19  C   UNL     1      -2.608  10.285  17.040  0.00  0.00    +0.000 A 
ATOM     20  C   UNL     1      -1.335   9.899  17.461  0.00  0.00    +0.000 A 
ATOM     21  C   UNL     1      -0.739  10.496  18.580  0.00  0.00    +0.000 A 
ATOM     22  C   UNL     1      -1.459  11.475  19.279  0.00  0.00    +0.000 A 
ATOM     23  C   UNL     1      -2.740  11.859  18.857  0.00  0.00    +0.000 A 
BRANCH  18  25
ATOM     24  C   UNL     1      -5.666  11.108  18.014  0.00  0.00    +0.000 C 
ATOM     25  O   UNL     1      -4.558  11.544  17.236  0.00  0.00    +0.000 OA
ENDBRANCH  18  25
ENDBRANCH  17  21
ENDBRANCH   1  17
TORSDOF 4
ENDMDL
MODEL 8
REMARK VINA RESULT:      -7.7      5.865      8.354
REMARK  Name = 
REMARK  5 active torsions:
REMARK  status: ('A' for Active; 'I' for Inactive)
REMARK    1  A    between atoms: C_1  and  O_2
REMARK    2  A    between atoms: O_2  and  C_3
REMARK    3  A    between atoms: C_6  and  C_7
REMARK    4  A    between atoms: C_7  and  N_8
REMARK    5  A    between atoms: N_11  and  C_12
REMARK                            x       y       z     vdW  Elec       q    Type
REMARK                         _______ _______ _______ _____ _____    ______ ____
ROOT
ATOM      1  N   UNL     1       3.128   5.342  20.409  0.00  0.00    +0.000 N 
ATOM      2  C   UNL     1       2.358   6.274  19.745  0.00  0.00    +0.000 C 
ATOM      3  O   UNL     1       2.032   6.119  18.574  0.00  0.00    +0.000 OA
ATOM      4  N   UNL     1       2.082   7.376  20.531  0.00  0.00    +0.000 N 
ATOM      5  H   UNL     1       2.929   5.232  21.392  0.00  0.00    +0.000 HD
ATOM      6  H   UNL     1       2.734   7.511  21.285  0.00  0.00    +0.000 HD
ENDROOT
BRANCH   4   7
ATOM      7  C   UNL     1       1.369   8.524  20.074  0.00  0.00    +0.000 A 
ATOM      8  C   UNL     1       1.502   8.947  18.742  0.00  0.00    +0.000 A 
ATOM      9  C   UNL     1       0.944  10.144  18.306  0.00  0.00    +0.000 A 
ATOM     10  C   UNL     1       0.251  10.947  19.202  0.00  0.00    +0.000 A 
ATOM     11  C   UNL     1       0.063  10.541  20.529  0.00  0.00    +0.000 A 
ATOM     12  C   UNL     1      -0.613  11.394  21.414  0.00  0.00    +0.000 A 
ATOM     13  C   UNL     1      -0.846  11.020  22.733  0.00  0.00    +0.000 A 
ATOM     14  C   UNL     1      -0.441   9.768  23.173  0.00  0.00    +0.000 A 
ATOM     15  C   UNL     1       0.255   8.914  22.310  0.00  0.00    +0.000 A 
ATOM     16  C   UNL     1       0.567   9.288  20.977  0.00  0.00    +0.000 A 
ENDBRANCH   4   7
BRANCH   1  17
ATOM     17  C   UNL     1       3.476   4.132  19.688  0.00  0.00    +0.000 C 
BRANCH  17  21
ATOM     18  C   UNL     1       6.480   4.513  16.603  0.00  0.00    +0.000 A 
ATOM     19  C   UNL     1       6.714   4.983  17.895  0.00  0.00    +0.000 A 
ATOM     20  C   UNL     1       5.725   4.884  18.875  0.00  0.00    +0.000 A 
ATOM     21  C   UNL     1       4.471   4.333  18.574  0.00  0.00    +0.000 A 
ATOM     22  C   UNL     1       4.242   3.867  17.272  0.00  0.00    +0.000 A 
ATOM     23  C   UNL     1       5.238   3.964  16.290  0.00  0.00    +0.000 A 
BRANCH  18  25
ATOM     24  C   UNL     1       7.182   4.839  14.368  0.00  0.00    +0.000 C 
ATOM     25  O   UNL     1       7.527   4.662  15.736  0.00  0.00    +0.000 OA
ENDBRANCH  18  25
ENDBRANCH  17  21
ENDBRANCH   1  17
TORSDOF 4
ENDMDL
MODEL 9
REMARK VINA RESULT:      -7.7      5.830      9.209
REMARK  Name = 
REMARK  5 active torsions:
REMARK  status: ('A' for Active; 'I' for Inactive)
REMARK    1  A    between atoms: C_1  and  O_2
REMARK    2  A    between atoms: O_2  and  C_3
REMARK    3  A    between atoms: C_6  and  C_7
REMARK    4  A    between atoms: C_7  and  N_8
REMARK    5  A    between atoms: N_11  and  C_12
REMARK                            x       y       z     vdW  Elec       q    Type
REMARK                         _______ _______ _______ _____ _____    ______ ____
ROOT
ATOM      1  N   UNL     1       2.381   8.118  17.783  0.00  0.00    +0.000 N 
ATOM      2  C   UNL     1       1.606   8.942  18.571  0.00  0.00    +0.000 C 
ATOM      3  O   UNL     1       1.418   8.704  19.759  0.00  0.00    +0.000 OA
ATOM      4  N   UNL     1       1.050   9.980  17.849  0.00  0.00    +0.000 N 
ATOM      5  H   UNL     1       2.911   8.579  17.059  0.00  0.00    +0.000 HD
ATOM      6  H   UNL     1       0.984   9.799  16.862  0.00  0.00    +0.000 HD
ENDROOT
BRANCH   4   7
ATOM      7  C   UNL     1       0.145  10.939  18.396  0.00  0.00    +0.000 A 
ATOM      8  C   UNL     1       0.615  11.918  19.284  0.00  0.00    +0.000 A 
ATOM      9  C   UNL     1      -0.261  12.769  19.950  0.00  0.00    +0.000 A 
ATOM     10  C   UNL     1      -1.629  12.644  19.748  0.00  0.00    +0.000 A 
ATOM     11  C   UNL     1      -2.135  11.706  18.840  0.00  0.00    +0.000 A 
ATOM     12  C   UNL     1      -3.524  11.584  18.685  0.00  0.00    +0.000 A 
ATOM     13  C   UNL     1      -4.069  10.685  17.775  0.00  0.00    +0.000 A 
ATOM     14  C   UNL     1      -3.229   9.923  16.977  0.00  0.00    +0.000 A 
ATOM     15  C   UNL     1      -1.841  10.014  17.134  0.00  0.00    +0.000 A 
ATOM     16  C   UNL     1      -1.251  10.873  18.097  0.00  0.00    +0.000 A 
ENDBRANCH   4   7
BRANCH   1  17
ATOM     17  C   UNL     1       3.029   6.994  18.433  0.00  0.00    +0.000 C 
BRANCH  17  21
ATOM     18  C   UNL     1       5.411   4.415  15.910  0.00  0.00    +0.000 A 
ATOM     19  C   UNL     1       5.588   5.798  15.895  0.00  0.00    +0.000 A 
ATOM     20  C   UNL     1       4.792   6.624  16.690  0.00  0.00    +0.000 A 
ATOM     21  C   UNL     1       3.784   6.082  17.499  0.00  0.00    +0.000 A 
ATOM     22  C   UNL     1       3.608   4.691  17.507  0.00  0.00    +0.000 A 
ATOM     23  C   UNL     1       4.411   3.863  16.710  0.00  0.00    +0.000 A 
BRANCH  18  25
ATOM     24  C   UNL     1       6.064   3.900  13.696  0.00  0.00    +0.000 C 
ATOM     25  O   UNL     1       6.254   3.715  15.094  0.00  0.00    +0.000 OA
ENDBRANCH  18  25
ENDBRANCH  17  21
ENDBRANCH   1  17
TORSDOF 4
ENDMDL
