MODEL 1
REMARK VINA RESULT:      -8.2      0.000      0.000
REMARK  Name = 
REMARK  6 active torsions:
REMARK  status: ('A' for Active; 'I' for Inactive)
REMARK    1  A    between atoms: C_1  and  O_2
REMARK    2  A    between atoms: O_2  and  C_3
REMARK    3  A    between atoms: C_6  and  C_7
REMARK    4  A    between atoms: C_7  and  C_8
REMARK    5  A    between atoms: C_8  and  N_9
REMARK    6  A    between atoms: C_24  and  O_25
REMARK                            x       y       z     vdW  Elec       q    Type
REMARK                         _______ _______ _______ _____ _____    ______ ____
ROOT
ATOM      1  N   UNL     1       6.676   5.959  18.137  0.00  0.00    +0.000 N 
ATOM      2  C   UNL     1       7.264   4.718  17.580  0.00  0.00    +0.000 C 
ATOM      3  C   UNL     1       6.131   4.224  16.711  0.00  0.00    +0.000 C 
ATOM      4  N   UNL     1       4.991   4.620  17.495  0.00  0.00    +0.000 N 
ATOM      5  C   UNL     1       5.354   5.591  18.458  0.00  0.00    +0.000 A 
ATOM      6  N   UNL     1       4.520   5.857  19.414  0.00  0.00    +0.000 NA
ATOM      7  C   UNL     1       3.323   5.036  19.495  0.00  0.00    +0.000 A 
ATOM      8  C   UNL     1       2.577   4.934  20.685  0.00  0.00    +0.000 A 
ATOM      9  C   UNL     1       1.461   4.066  20.805  0.00  0.00    +0.000 A 
ATOM     10  C   UNL     1       1.034   3.295  19.724  0.00  0.00    +0.000 A 
ATOM     11  C   UNL     1       1.745   3.363  18.541  0.00  0.00    +0.000 A 
ATOM     12  C   UNL     1       2.881   4.197  18.453  0.00  0.00    +0.000 A 
ATOM     13  C   UNL     1       3.774   4.027  17.315  0.00  0.00    +0.000 A 
ATOM     14  O   UNL     1       3.477   3.333  16.355  0.00  0.00    +0.000 OA
ENDROOT
BRANCH   1  15
ATOM     15  C   UNL     1       7.705   7.003  18.374  0.00  0.00    +0.000 C 
BRANCH  15  16
ATOM     16  C   UNL     1       7.848   8.287  17.528  0.00  0.00    +0.000 C 
BRANCH  16  20
ATOM     17  C   UNL     1       9.551  12.055  19.225  0.00  0.00    +0.000 A 
ATOM     18  C   UNL     1       9.672  10.845  19.925  0.00  0.00    +0.000 A 
ATOM     19  C   UNL     1       9.145   9.624  19.429  0.00  0.00    +0.000 A 
ATOM     20  C   UNL     1       8.460   9.561  18.199  0.00  0.00    +0.000 A 
ATOM     21  C   UNL     1       8.355  10.791  17.505  0.00  0.00    +0.000 A 
ATOM     22  C   UNL     1       8.876  12.011  18.001  0.00  0.00    +0.000 A 
BRANCH  17  24
ATOM     23  C   UNL     1      11.469  13.494  19.543  0.00  0.00    +0.000 C 
ATOM     24  O   UNL     1      10.122  13.138  19.849  0.00  0.00    +0.000 OA
ENDBRANCH  17  24
BRANCH  22  25
ATOM     25  O   UNL     1       8.710  13.146  17.265  0.00  0.00    +0.000 OA
ATOM     26  H   UNL     1       9.084  13.008  16.382  0.00  0.00    +0.000 HD
ENDBRANCH  22  25
ENDBRANCH  16  20
ENDBRANCH  15  16
ENDBRANCH   1  15
TORSDOF 5
ENDMDL
MODEL 2
REMARK VINA RESULT:      -8.0      5.030      7.409
REMARK  Name = 
REMARK  6 active torsions:
REMARK  status: ('A' for Active; 'I' for Inactive)
REMARK    1  A    between atoms: C_1  and  O_2
REMARK    2  A    between atoms: O_2  and  C_3
REMARK    3  A    between atoms: C_6  and  C_7
REMARK    4  A    between atoms: C_7  and  C_8
REMARK    5  A    between atoms: C_8  and  N_9
REMARK    6  A    between atoms: C_24  and  O_25
REMARK                            x       y       z     vdW  Elec       q    Type
REMARK                         _______ _______ _______ _____ _____    ______ ____
ROOT
ATOM      1  N   UNL     1       2.006   7.540  19.208  0.00  0.00    +0.000 N 
ATOM      2  C   UNL     1       1.539   8.002  17.880  0.00  0.00    +0.000 C 
ATOM      3  C   UNL     1       1.805   9.486  17.978  0.00  0.00    +0.000 C 
ATOM      4  N   UNL     1       1.515   9.726  19.366  0.00  0.00    +0.000 N 
ATOM      5  C   UNL     1       1.510   8.514  20.097  0.00  0.00    +0.000 A 
ATOM      6  N   UNL     1       1.007   8.514  21.292  0.00  0.00    +0.000 NA
ATOM      7  C   UNL     1       0.365   9.740  21.740  0.00  0.00    +0.000 A 
ATOM      8  C   UNL     1      -0.561   9.744  22.800  0.00  0.00    +0.000 A 
ATOM      9  C   UNL     1      -1.262  10.914  23.187  0.00  0.00    +0.000 A 
ATOM     10  C   UNL     1      -1.033  12.132  22.545  0.00  0.00    +0.000 A 
ATOM     11  C   UNL     1      -0.135  12.166  21.495  0.00  0.00    +0.000 A 
ATOM     12  C   UNL     1       0.519  10.982  21.093  0.00  0.00    +0.000 A 
ATOM     13  C   UNL     1       1.219  10.982  19.815  0.00  0.00    +0.000 A 
ATOM     14  O   UNL     1       1.418  12.007  19.183  0.00  0.00    +0.000 OA
ENDROOT
BRANCH   1  15
ATOM     15  C   UNL     1       2.575   6.170  19.151  0.00  0.00    +0.000 C 
BRANCH  15  16
ATOM     16  C   UNL     1       4.070   5.843  19.355  0.00  0.00    +0.000 C 
BRANCH  16  20
ATOM     17  C   UNL     1       6.854   5.289  15.902  0.00  0.00    +0.000 A 
ATOM     18  C   UNL     1       5.657   6.003  15.741  0.00  0.00    +0.000 A 
ATOM     19  C   UNL     1       4.740   6.203  16.805  0.00  0.00    +0.000 A 
ATOM     20  C   UNL     1       4.981   5.684  18.093  0.00  0.00    +0.000 A 
ATOM     21  C   UNL     1       6.196   4.972  18.238  0.00  0.00    +0.000 A 
ATOM     22  C   UNL     1       7.110   4.768  17.175  0.00  0.00    +0.000 A 
BRANCH  17  24
ATOM     23  C   UNL     1       7.055   4.664  13.575  0.00  0.00    +0.000 C 
ATOM     24  O   UNL     1       7.625   5.196  14.769  0.00  0.00    +0.000 OA
ENDBRANCH  17  24
BRANCH  22  25
ATOM     25  O   UNL     1       8.247   4.055  17.411  0.00  0.00    +0.000 OA
ATOM     26  H   UNL     1       8.017   3.119  17.516  0.00  0.00    +0.000 HD
ENDBRANCH  22  25
ENDBRANCH  16  20
ENDBRANCH  15  16
ENDBRANCH   1  15
TORSDOF 5
ENDMDL
MODEL 3
REMARK VINA RESULT:      -7.9      0.853      1.485
REMARK  Name = 
REMARK  6 active torsions:
REMARK  status: ('A' for Active; 'I' for Inactive)
REMARK    1  A    between atoms: C_1  and  O_2
REMARK    2  A    between atoms: O_2  and  C_3
REMARK    3  A    between atoms: C_6  and  C_7
REMARK    4  A    between atoms: C_7  and  C_8
REMARK    5  A    between atoms: C_8  and  N_9
REMARK    6  A    between atoms: C_24  and  O_25
REMARK                            x       y       z     vdW  Elec       q    Type
REMARK                         _______ _______ _______ _____ _____    ______ ____
ROOT
ATOM      1  N   UNL     1       6.382   6.572  17.635  0.00  0.00    +0.000 N 
ATOM      2  C   UNL     1       7.272   5.388  17.693  0.00  0.00    +0.000 C 
ATOM      3  C   UNL     1       6.405   4.339  17.038  0.00  0.00    +0.000 C 
ATOM      4  N   UNL     1       5.101   4.733  17.501  0.00  0.00    +0.000 N 
ATOM      5  C   UNL     1       5.118   6.060  17.989  0.00  0.00    +0.000 A 
ATOM      6  N   UNL     1       4.106   6.477  18.685  0.00  0.00    +0.000 NA
ATOM      7  C   UNL     1       3.086   5.498  19.022  0.00  0.00    +0.000 A 
ATOM      8  C   UNL     1       2.191   5.701  20.089  0.00  0.00    +0.000 A 
ATOM      9  C   UNL     1       1.252   4.716  20.487  0.00  0.00    +0.000 A 
ATOM     10  C   UNL     1       1.154   3.503  19.803  0.00  0.00    +0.000 A 
ATOM     11  C   UNL     1       2.020   3.264  18.753  0.00  0.00    +0.000 A 
ATOM     12  C   UNL     1       2.980   4.237  18.402  0.00  0.00    +0.000 A 
ATOM     13  C   UNL     1       4.060   3.847  17.505  0.00  0.00    +0.000 A 
ATOM     14  O   UNL     1       4.055   2.783  16.907  0.00  0.00    +0.000 OA
ENDROOT
BRANCH   1  15
ATOM     15  C   UNL     1       7.147   7.835  17.481  0.00  0.00    +0.000 C 
BRANCH  15  16
ATOM     16  C   UNL     1       8.370   8.218  18.341  0.00  0.00    +0.000 C 
BRANCH  16  20
ATOM     17  C   UNL     1       9.458  12.495  19.053  0.00  0.00    +0.000 A 
ATOM     18  C   UNL     1       8.785  12.120  17.880  0.00  0.00    +0.000 A 
ATOM     19  C   UNL     1       8.422  10.776  17.608  0.00  0.00    +0.000 A 
ATOM     20  C   UNL     1       8.726   9.732  18.506  0.00  0.00    +0.000 A 
ATOM     21  C   UNL     1       9.398  10.132  19.686  0.00  0.00    +0.000 A 
ATOM     22  C   UNL     1       9.766  11.472  19.957  0.00  0.00    +0.000 A 
BRANCH  17  24
ATOM     23  C   UNL     1      10.965  14.344  18.660  0.00  0.00    +0.000 C 
ATOM     24  O   UNL     1       9.728  13.837  19.156  0.00  0.00    +0.000 OA
ENDBRANCH  17  24
BRANCH  22  25
ATOM     25  O   UNL     1      10.426  11.754  21.116  0.00  0.00    +0.000 OA
ATOM     26  H   UNL     1      10.860  12.616  21.031  0.00  0.00    +0.000 HD
ENDBRANCH  22  25
ENDBRANCH  16  20
ENDBRANCH  15  16
ENDBRANCH   1  15
TORSDOF 5
ENDMDL
MODEL 4
REMARK VINA RESULT:      -7.8      1.262      1.509
REMARK  Name = 
REMARK  6 active torsions:
REMARK  status: ('A' for Active; 'I' for Inactive)
REMARK    1  A    between atoms: C_1  and  O_2
REMARK    2  A    between atoms: O_2  and  C_3
REMARK    3  A    between atoms: C_6  and  C_7
REMARK    4  A    between atoms: C_7  and  C_8
REMARK    5  A    between atoms: C_8  and  N_9
REMARK    6  A    between atoms: C_24  and  O_25
REMARK                            x       y       z     vdW  Elec       q    Type
REMARK                         _______ _______ _______ _____ _____    ______ ____
ROOT
ATOM      1  N   UNL     1       6.840   7.007  17.538  0.00  0.00    +0.000 N 
ATOM      2  C   UNL     1       7.818   5.943  17.867  0.00  0.00    +0.000 C 
ATOM      3  C   UNL     1       7.329   4.815  16.990  0.00  0.00    +0.000 C 
ATOM      4  N   UNL     1       5.907   5.026  17.040  0.00  0.00    +0.000 N 
ATOM      5  C   UNL     1       5.606   6.329  17.502  0.00  0.00    +0.000 A 
ATOM      6  N   UNL     1       4.388   6.593  17.861  0.00  0.00    +0.000 NA
ATOM      7  C   UNL     1       3.450   5.482  17.885  0.00  0.00    +0.000 A 
ATOM      8  C   UNL     1       2.260   5.537  18.635  0.00  0.00    +0.000 A 
ATOM      9  C   UNL     1       1.381   4.428  18.741  0.00  0.00    +0.000 A 
ATOM     10  C   UNL     1       1.649   3.236  18.067  0.00  0.00    +0.000 A 
ATOM     11  C   UNL     1       2.811   3.142  17.325  0.00  0.00    +0.000 A 
ATOM     12  C   UNL     1       3.697   4.239  17.270  0.00  0.00    +0.000 A 
ATOM     13  C   UNL     1       5.036   4.017  16.739  0.00  0.00    +0.000 A 
ATOM     14  O   UNL     1       5.347   2.980  16.174  0.00  0.00    +0.000 OA
ENDROOT
BRANCH   1  15
ATOM     15  C   UNL     1       7.446   8.360  17.611  0.00  0.00    +0.000 C 
BRANCH  15  16
ATOM     16  C   UNL     1       8.587   8.749  18.575  0.00  0.00    +0.000 C 
BRANCH  16  20
ATOM     17  C   UNL     1       9.624  13.096  18.666  0.00  0.00    +0.000 A 
ATOM     18  C   UNL     1      10.282  12.192  19.514  0.00  0.00    +0.000 A 
ATOM     19  C   UNL     1       9.986  10.805  19.524  0.00  0.00    +0.000 A 
ATOM     20  C   UNL     1       9.000  10.254  18.679  0.00  0.00    +0.000 A 
ATOM     21  C   UNL     1       8.353  11.180  17.827  0.00  0.00    +0.000 A 
ATOM     22  C   UNL     1       8.644  12.567  17.819  0.00  0.00    +0.000 A 
BRANCH  17  24
ATOM     23  C   UNL     1      10.930  14.944  17.816  0.00  0.00    +0.000 C 
ATOM     24  O   UNL     1      10.038  14.400  18.785  0.00  0.00    +0.000 OA
ENDBRANCH  17  24
BRANCH  22  25
ATOM     25  O   UNL     1       7.953  13.381  16.972  0.00  0.00    +0.000 OA
ATOM     26  H   UNL     1       8.450  13.471  16.145  0.00  0.00    +0.000 HD
ENDBRANCH  22  25
ENDBRANCH  16  20
ENDBRANCH  15  16
ENDBRANCH   1  15
TORSDOF 5
ENDMDL
MODEL 5
REMARK VINA RESULT:      -7.8      1.344      1.928
REMARK  Name = 
REMARK  6 active torsions:
REMARK  status: ('A' for Active; 'I' for Inactive)
REMARK    1  A    between atoms: C_1  and  O_2
REMARK    2  A    between atoms: O_2  and  C_3
REMARK    3  A    between atoms: C_6  and  C_7
REMARK    4  A    between atoms: C_7  and  C_8
REMARK    5  A    between atoms: C_8  and  N_9
REMARK    6  A    between atoms: C_24  and  O_25
REMARK                            x       y       z     vdW  Elec       q    Type
REMARK                         _______ _______ _______ _____ _____    ______ ____
ROOT
ATOM      1  N   UNL     1       6.810   6.954  17.510  0.00  0.00    +0.000 N 
ATOM      2  C   UNL     1       7.793   5.890  17.823  0.00  0.00    +0.000 C 
ATOM      3  C   UNL     1       7.295   4.766  16.945  0.00  0.00    +0.000 C 
ATOM      4  N   UNL     1       5.873   4.975  17.011  0.00  0.00    +0.000 N 
ATOM      5  C   UNL     1       5.576   6.275  17.483  0.00  0.00    +0.000 A 
ATOM      6  N   UNL     1       4.362   6.536  17.856  0.00  0.00    +0.000 NA
ATOM      7  C   UNL     1       3.425   5.424  17.883  0.00  0.00    +0.000 A 
ATOM      8  C   UNL     1       2.242   5.473  18.646  0.00  0.00    +0.000 A 
ATOM      9  C   UNL     1       1.366   4.363  18.754  0.00  0.00    +0.000 A 
ATOM     10  C   UNL     1       1.628   3.174  18.072  0.00  0.00    +0.000 A 
ATOM     11  C   UNL     1       2.783   3.086  17.318  0.00  0.00    +0.000 A 
ATOM     12  C   UNL     1       3.667   4.185  17.259  0.00  0.00    +0.000 A 
ATOM     13  C   UNL     1       5.001   3.967  16.713  0.00  0.00    +0.000 A 
ATOM     14  O   UNL     1       5.307   2.933  16.140  0.00  0.00    +0.000 OA
ENDROOT
BRANCH   1  15
ATOM     15  C   UNL     1       7.415   8.308  17.584  0.00  0.00    +0.000 C 
BRANCH  15  16
ATOM     16  C   UNL     1       8.624   8.670  18.473  0.00  0.00    +0.000 C 
BRANCH  16  20
ATOM     17  C   UNL     1       9.537  12.927  19.486  0.00  0.00    +0.000 A 
ATOM     18  C   UNL     1       9.057  12.588  18.211  0.00  0.00    +0.000 A 
ATOM     19  C   UNL     1       8.757  11.252  17.841  0.00  0.00    +0.000 A 
ATOM     20  C   UNL     1       8.931  10.180  18.741  0.00  0.00    +0.000 A 
ATOM     21  C   UNL     1       9.409  10.543  20.023  0.00  0.00    +0.000 A 
ATOM     22  C   UNL     1       9.715  11.876  20.392  0.00  0.00    +0.000 A 
BRANCH  17  24
ATOM     23  C   UNL     1      10.911  14.872  19.066  0.00  0.00    +0.000 C 
ATOM     24  O   UNL     1       9.772  14.267  19.673  0.00  0.00    +0.000 OA
ENDBRANCH  17  24
BRANCH  22  25
ATOM     25  O   UNL     1      10.185  12.121  21.647  0.00  0.00    +0.000 OA
ATOM     26  H   UNL     1       9.439  12.324  22.231  0.00  0.00    +0.000 HD
ENDBRANCH  22  25
ENDBRANCH  16  20
ENDBRANCH  15  16
ENDBRANCH   1  15
TORSDOF 5
ENDMDL
MODEL 6
REMARK VINA RESULT:      -7.7      5.319      7.821
REMARK  Name = 
REMARK  6 active torsions:
REMARK  status: ('A' for Active; 'I' for Inactive)
REMARK    1  A    between atoms: C_1  and  O_2
REMARK    2  A    between atoms: O_2  and  C_3
REMARK    3  A    between atoms: C_6  and  C_7
REMARK    4  A    between atoms: C_7  and  C_8
REMARK    5  A    between atoms: C_8  and  N_9
REMARK    6  A    between atoms: C_24  and  O_25
REMARK                            x       y       z     vdW  Elec       q    Type
REMARK                         _______ _______ _______ _____ _____    ______ ____
ROOT
ATOM      1  N   UNL     1       2.470   6.890  19.623  0.00  0.00    +0.000 N 
ATOM      2  C   UNL     1       1.879   5.606  20.068  0.00  0.00    +0.000 C 
ATOM      3  C   UNL     1       3.121   4.777  20.294  0.00  0.00    +0.000 C 
ATOM      4  N   UNL     1       3.972   5.265  19.242  0.00  0.00    +0.000 N 
ATOM      5  C   UNL     1       3.497   6.499  18.741  0.00  0.00    +0.000 A 
ATOM      6  N   UNL     1       3.982   6.942  17.623  0.00  0.00    +0.000 NA
ATOM      7  C   UNL     1       4.888   6.063  16.901  0.00  0.00    +0.000 A 
ATOM      8  C   UNL     1       5.139   6.229  15.525  0.00  0.00    +0.000 A 
ATOM      9  C   UNL     1       5.948   5.326  14.790  0.00  0.00    +0.000 A 
ATOM     10  C   UNL     1       6.563   4.241  15.417  0.00  0.00    +0.000 A 
ATOM     11  C   UNL     1       6.335   4.042  16.765  0.00  0.00    +0.000 A 
ATOM     12  C   UNL     1       5.490   4.924  17.472  0.00  0.00    +0.000 A 
ATOM     13  C   UNL     1       5.033   4.527  18.797  0.00  0.00    +0.000 A 
ATOM     14  O   UNL     1       5.501   3.564  19.384  0.00  0.00    +0.000 OA
ENDROOT
BRANCH   1  15
ATOM     15  C   UNL     1       1.652   8.054  20.045  0.00  0.00    +0.000 C 
BRANCH  15  16
ATOM     16  C   UNL     1       1.241   8.341  21.505  0.00  0.00    +0.000 C 
BRANCH  16  20
ATOM     17  C   UNL     1      -1.515  11.813  22.084  0.00  0.00    +0.000 A 
ATOM     18  C   UNL     1      -1.266  10.922  23.139  0.00  0.00    +0.000 A 
ATOM     19  C   UNL     1      -0.403   9.804  23.003  0.00  0.00    +0.000 A 
ATOM     20  C   UNL     1       0.253   9.522  21.787  0.00  0.00    +0.000 A 
ATOM     21  C   UNL     1      -0.005  10.436  20.738  0.00  0.00    +0.000 A 
ATOM     22  C   UNL     1      -0.870  11.550  20.871  0.00  0.00    +0.000 A 
BRANCH  17  24
ATOM     23  C   UNL     1      -3.553  12.569  23.144  0.00  0.00    +0.000 C 
ATOM     24  O   UNL     1      -2.373  12.841  22.392  0.00  0.00    +0.000 OA
ENDBRANCH  17  24
BRANCH  22  25
ATOM     25  O   UNL     1      -1.067  12.364  19.796  0.00  0.00    +0.000 OA
ATOM     26  H   UNL     1      -0.568  12.018  19.041  0.00  0.00    +0.000 HD
ENDBRANCH  22  25
ENDBRANCH  16  20
ENDBRANCH  15  16
ENDBRANCH   1  15
TORSDOF 5
ENDMDL
MODEL 7
REMARK VINA RESULT:      -7.6      5.129      7.603
REMARK  Name = 
REMARK  6 active torsions:
REMARK  status: ('A' for Active; 'I' for Inactive)
REMARK    1  A    between atoms: C_1  and  O_2
REMARK    2  A    between atoms: O_2  and  C_3
REMARK    3  A    between atoms: C_6  and  C_7
REMARK    4  A    between atoms: C_7  and  C_8
REMARK    5  A    between atoms: C_8  and  N_9
REMARK    6  A    between atoms: C_24  and  O_25
REMARK                            x       y       z     vdW  Elec       q    Type
REMARK                         _______ _______ _______ _____ _____    ______ ____
ROOT
ATOM      1  N   UNL     1       1.944   8.010  19.506  0.00  0.00    +0.000 N 
ATOM      2  C   UNL     1       1.508   8.410  18.147  0.00  0.00    +0.000 C 
ATOM      3  C   UNL     1       1.703   9.907  18.208  0.00  0.00    +0.000 C 
ATOM      4  N   UNL     1       1.350  10.174  19.577  0.00  0.00    +0.000 N 
ATOM      5  C   UNL     1       1.371   8.986  20.344  0.00  0.00    +0.000 A 
ATOM      6  N   UNL     1       0.823   8.999  21.520  0.00  0.00    +0.000 NA
ATOM      7  C   UNL     1       0.111  10.207  21.905  0.00  0.00    +0.000 A 
ATOM      8  C   UNL     1      -0.854  10.200  22.930  0.00  0.00    +0.000 A 
ATOM      9  C   UNL     1      -1.622  11.348  23.254  0.00  0.00    +0.000 A 
ATOM     10  C   UNL     1      -1.423  12.555  22.582  0.00  0.00    +0.000 A 
ATOM     11  C   UNL     1      -0.488  12.599  21.565  0.00  0.00    +0.000 A 
ATOM     12  C   UNL     1       0.233  11.435  21.225  0.00  0.00    +0.000 A 
ATOM     13  C   UNL     1       0.981  11.428  19.974  0.00  0.00    +0.000 A 
ATOM     14  O   UNL     1       1.157  12.443  19.318  0.00  0.00    +0.000 OA
ENDROOT
BRANCH   1  15
ATOM     15  C   UNL     1       2.575   6.667  19.513  0.00  0.00    +0.000 C 
BRANCH  15  16
ATOM     16  C   UNL     1       2.562   5.696  18.313  0.00  0.00    +0.000 C 
BRANCH  16  20
ATOM     17  C   UNL     1       6.345   5.498  15.939  0.00  0.00    +0.000 A 
ATOM     18  C   UNL     1       5.392   4.473  15.841  0.00  0.00    +0.000 A 
ATOM     19  C   UNL     1       4.178   4.489  16.576  0.00  0.00    +0.000 A 
ATOM     20  C   UNL     1       3.864   5.543  17.459  0.00  0.00    +0.000 A 
ATOM     21  C   UNL     1       4.835   6.569  17.539  0.00  0.00    +0.000 A 
ATOM     22  C   UNL     1       6.050   6.552  16.810  0.00  0.00    +0.000 A 
BRANCH  17  24
ATOM     23  C   UNL     1       7.315   4.789  13.841  0.00  0.00    +0.000 C 
ATOM     24  O   UNL     1       7.459   5.323  15.155  0.00  0.00    +0.000 OA
ENDBRANCH  17  24
BRANCH  22  25
ATOM     25  O   UNL     1       6.929   7.581  16.968  0.00  0.00    +0.000 OA
ATOM     26  H   UNL     1       6.500   8.289  17.472  0.00  0.00    +0.000 HD
ENDBRANCH  22  25
ENDBRANCH  16  20
ENDBRANCH  15  16
ENDBRANCH   1  15
TORSDOF 5
ENDMDL
MODEL 8
REMARK VINA RESULT:      -7.6      4.366      6.931
REMARK  Name = 
REMARK  6 active torsions:
REMARK  status: ('A' for Active; 'I' for Inactive)
REMARK    1  A    between atoms: C_1  and  O_2
REMARK    2  A    between atoms: O_2  and  C_3
REMARK    3  A    between atoms: C_6  and  C_7
REMARK    4  A    between atoms: C_7  and  C_8
REMARK    5  A    between atoms: C_8  and  N_9
REMARK    6  A    between atoms: C_24  and  O_25
REMARK                            x       y       z     vdW  Elec       q    Type
REMARK                         _______ _______ _______ _____ _____    ______ ____
ROOT
ATOM      1  N   UNL     1       4.218   4.750  18.328  0.00  0.00    +0.000 N 
ATOM      2  C   UNL     1       5.423   4.613  19.179  0.00  0.00    +0.000 C 
ATOM      3  C   UNL     1       6.357   5.603  18.522  0.00  0.00    +0.000 C 
ATOM      4  N   UNL     1       5.990   5.451  17.140  0.00  0.00    +0.000 N 
ATOM      5  C   UNL     1       4.735   4.809  17.018  0.00  0.00    +0.000 A 
ATOM      6  N   UNL     1       4.381   4.355  15.856  0.00  0.00    +0.000 NA
ATOM      7  C   UNL     1       5.367   4.427  14.790  0.00  0.00    +0.000 A 
ATOM      8  C   UNL     1       5.276   3.615  13.643  0.00  0.00    +0.000 A 
ATOM      9  C   UNL     1       6.278   3.609  12.639  0.00  0.00    +0.000 A 
ATOM     10  C   UNL     1       7.391   4.444  12.734  0.00  0.00    +0.000 A 
ATOM     11  C   UNL     1       7.519   5.252  13.848  0.00  0.00    +0.000 A 
ATOM     12  C   UNL     1       6.536   5.211  14.860  0.00  0.00    +0.000 A 
ATOM     13  C   UNL     1       6.840   5.835  16.141  0.00  0.00    +0.000 A 
ATOM     14  O   UNL     1       7.820   6.545  16.302  0.00  0.00    +0.000 OA
ENDROOT
BRANCH   1  15
ATOM     15  C   UNL     1       2.967   4.533  19.097  0.00  0.00    +0.000 C 
BRANCH  15  16
ATOM     16  C   UNL     1       2.550   5.369  20.326  0.00  0.00    +0.000 C 
BRANCH  16  20
ATOM     17  C   UNL     1       1.160   9.528  19.456  0.00  0.00    +0.000 A 
ATOM     18  C   UNL     1       0.901   8.940  20.704  0.00  0.00    +0.000 A 
ATOM     19  C   UNL     1       1.319   7.623  21.026  0.00  0.00    +0.000 A 
ATOM     20  C   UNL     1       2.017   6.823  20.099  0.00  0.00    +0.000 A 
ATOM     21  C   UNL     1       2.274   7.435  18.849  0.00  0.00    +0.000 A 
ATOM     22  C   UNL     1       1.854   8.749  18.524  0.00  0.00    +0.000 A 
BRANCH  17  24
ATOM     23  C   UNL     1      -0.570  11.030  18.683  0.00  0.00    +0.000 C 
ATOM     24  O   UNL     1       0.688  10.810  19.317  0.00  0.00    +0.000 OA
ENDBRANCH  17  24
BRANCH  22  25
ATOM     25  O   UNL     1       2.136   9.244  17.287  0.00  0.00    +0.000 OA
ATOM     26  H   UNL     1       1.682   8.708  16.620  0.00  0.00    +0.000 HD
ENDBRANCH  22  25
ENDBRANCH  16  20
ENDBRANCH  15  16
ENDBRANCH   1  15
TORSDOF 5
ENDMDL
MODEL 9
REMARK VINA RESULT:      -7.6      4.402      7.049
REMARK  Name = 
REMARK  6 active torsions:
REMARK  status: ('A' for Active; 'I' for Inactive)
REMARK    1  A    between atoms: C_1  and  O_2
REMARK    2  A    between atoms: O_2  and  C_3
REMARK    3  A    between atoms: C_6  and  C_7
REMARK    4  A    between atoms: C_7  and  C_8
REMARK    5  A    between atoms: C_8  and  N_9
REMARK    6  A    between atoms: C_24  and  O_25
REMARK                            x       y       z     vdW  Elec       q    Type
REMARK                         _______ _______ _______ _____ _____    ______ ____
ROOT
ATOM      1  N   UNL     1       4.336   4.524  18.340  0.00  0.00    +0.000 N 
ATOM      2  C   UNL     1       5.566   4.405  19.158  0.00  0.00    +0.000 C 
ATOM      3  C   UNL     1       6.448   5.447  18.512  0.00  0.00    +0.000 C 
ATOM      4  N   UNL     1       6.053   5.324  17.134  0.00  0.00    +0.000 N 
ATOM      5  C   UNL     1       4.820   4.641  17.022  0.00  0.00    +0.000 A 
ATOM      6  N   UNL     1       4.455   4.210  15.854  0.00  0.00    +0.000 NA
ATOM      7  C   UNL     1       5.412   4.349  14.769  0.00  0.00    +0.000 A 
ATOM      8  C   UNL     1       5.322   3.569  13.600  0.00  0.00    +0.000 A 
ATOM      9  C   UNL     1       6.299   3.629  12.574  0.00  0.00    +0.000 A 
ATOM     10  C   UNL     1       7.384   4.501  12.669  0.00  0.00    +0.000 A 
ATOM     11  C   UNL     1       7.510   5.279  13.804  0.00  0.00    +0.000 A 
ATOM     12  C   UNL     1       6.553   5.172  14.836  0.00  0.00    +0.000 A 
ATOM     13  C   UNL     1       6.865   5.768  16.129  0.00  0.00    +0.000 A 
ATOM     14  O   UNL     1       7.823   6.508  16.289  0.00  0.00    +0.000 OA
ENDROOT
BRANCH   1  15
ATOM     15  C   UNL     1       3.113   4.239  19.130  0.00  0.00    +0.000 C 
BRANCH  15  16
ATOM     16  C   UNL     1       2.551   5.172  20.225  0.00  0.00    +0.000 C 
BRANCH  16  20
ATOM     17  C   UNL     1       1.309   9.373  19.332  0.00  0.00    +0.000 A 
ATOM     18  C   UNL     1       1.925   8.590  18.343  0.00  0.00    +0.000 A 
ATOM     19  C   UNL     1       2.340   7.253  18.579  0.00  0.00    +0.000 A 
ATOM     20  C   UNL     1       2.160   6.636  19.834  0.00  0.00    +0.000 A 
ATOM     21  C   UNL     1       1.532   7.439  20.816  0.00  0.00    +0.000 A 
ATOM     22  C   UNL     1       1.122   8.775  20.583  0.00  0.00    +0.000 A 
BRANCH  17  24
ATOM     23  C   UNL     1      -0.365  10.910  18.507  0.00  0.00    +0.000 C 
ATOM     24  O   UNL     1       0.970  10.641  18.930  0.00  0.00    +0.000 OA
ENDBRANCH  17  24
BRANCH  22  25
ATOM     25  O   UNL     1       0.539   9.473  21.598  0.00  0.00    +0.000 OA
ATOM     26  H   UNL     1       1.202   9.645  22.284  0.00  0.00    +0.000 HD
ENDBRANCH  22  25
ENDBRANCH  16  20
ENDBRANCH  15  16
ENDBRANCH   1  15
TORSDOF 5
ENDMDL
