MODEL 1
REMARK VINA RESULT:      -8.9      0.000      0.000
REMARK  Name = 
REMARK  11 active torsions:
REMARK  status: ('A' for Active; 'I' for Inactive)
REMARK    1  A    between atoms: C_1  and  C_2
REMARK    2  A    between atoms: C_2  and  C_3
REMARK    3  A    between atoms: C_6  and  C_7
REMARK    4  A    between atoms: C_7  and  C_8
REMARK    5  A    between atoms: C_14  and  N_15
REMARK    6  A    between atoms: N_15  and  S_16
REMARK    7  A    between atoms: S_16  and  N_17
REMARK    8  A    between atoms: C_25  and  O_26
REMARK    9  A    between atoms: O_26  and  C_27
REMARK   10  A    between atoms: C_28  and  O_29
REMARK   11  A    between atoms: O_29  and  C_30
REMARK                            x       y       z     vdW  Elec       q    Type
REMARK                         _______ _______ _______ _____ _____    ______ ____
ROOT
ATOM      1  C   UNL     1       1.950   9.043  18.497  0.00  0.00    +0.000 A 
ATOM      2  C   UNL     1       1.566   8.419  19.678  0.00  0.00    +0.000 A 
ATOM      3  N   UNL     1       2.008   7.204  20.084  0.00  0.00    +0.000 NA
ATOM      4  C   UNL     1       2.883   6.555  19.298  0.00  0.00    +0.000 A 
ATOM      5  C   UNL     1       3.421   5.341  19.710  0.00  0.00    +0.000 A 
ATOM      6  C   UNL     1       4.343   4.635  18.926  0.00  0.00    +0.000 A 
ATOM      7  C   UNL     1       4.705   5.132  17.678  0.00  0.00    +0.000 A 
ATOM      8  C   UNL     1       4.178   6.347  17.243  0.00  0.00    +0.000 A 
ATOM      9  C   UNL     1       3.295   7.071  18.055  0.00  0.00    +0.000 A 
ATOM     10  C   UNL     1       2.810   8.328  17.665  0.00  0.00    +0.000 A 
ENDROOT
BRANCH   7  11
ATOM     11  N   UNL     1       5.637   4.440  16.847  0.00  0.00    +0.000 N 
ATOM     12  H   UNL     1       5.773   3.472  17.146  0.00  0.00    +0.000 HD
BRANCH  11  13
ATOM     13  S   UNL     1       7.179   5.092  16.671  0.00  0.00    +0.000 S 
ATOM     14  O   UNL     1       7.611   4.897  15.312  0.00  0.00    +0.000 OA
ATOM     15  O   UNL     1       7.158   6.383  17.306  0.00  0.00    +0.000 OA
BRANCH  13  16
ATOM     16  N   UNL     1       8.056   4.075  17.641  0.00  0.00    +0.000 NA
ATOM     17  H   UNL     1       8.694   3.478  17.122  0.00  0.00    +0.000 HD
ATOM     18  H   UNL     1       7.504   3.660  18.385  0.00  0.00    +0.000 HD
ENDBRANCH  13  16
ENDBRANCH  11  13
ENDBRANCH   7  11
BRANCH   1  19
ATOM     19  C   UNL     1       1.526  10.456  18.175  0.00  0.00    +0.000 C 
BRANCH  19  23
ATOM     20  C   UNL     1      -1.500  12.048  20.727  0.00  0.00    +0.000 A 
ATOM     21  N   UNL     1      -0.211  11.991  21.135  0.00  0.00    +0.000 NA
ATOM     22  C   UNL     1       0.681  11.456  20.287  0.00  0.00    +0.000 A 
ATOM     23  C   UNL     1       0.370  10.924  19.037  0.00  0.00    +0.000 A 
ATOM     24  C   UNL     1      -0.993  10.940  18.622  0.00  0.00    +0.000 A 
ATOM     25  C   UNL     1      -1.489  10.347  17.421  0.00  0.00    +0.000 A 
ATOM     26  C   UNL     1      -2.846  10.407  17.023  0.00  0.00    +0.000 A 
ATOM     27  C   UNL     1      -3.747  11.103  17.822  0.00  0.00    +0.000 A 
ATOM     28  C   UNL     1      -3.273  11.659  19.023  0.00  0.00    +0.000 A 
ATOM     29  C   UNL     1      -1.935  11.563  19.469  0.00  0.00    +0.000 A 
BRANCH  20  31
ATOM     30  C   UNL     1      -2.373  11.983  23.076  0.00  0.00    +0.000 C 
ATOM     31  C   UNL     1      -2.429  12.692  21.732  0.00  0.00    +0.000 C 
ENDBRANCH  20  31
BRANCH  26  32
ATOM     32  O   UNL     1      -3.191   9.547  16.013  0.00  0.00    +0.000 OA
ATOM     33  C   UNL     1      -3.316  10.113  14.713  0.00  0.00    +0.000 C 
ENDBRANCH  26  32
BRANCH  27  34
ATOM     34  O   UNL     1      -5.090  11.310  17.718  0.00  0.00    +0.000 OA
ATOM     35  C   UNL     1      -5.625  12.417  17.032  0.00  0.00    +0.000 C 
ENDBRANCH  27  34
ENDBRANCH  19  23
ENDBRANCH   1  19
TORSDOF 8
ENDMDL
MODEL 2
REMARK VINA RESULT:      -8.5      0.933      1.085
REMARK  Name = 
REMARK  11 active torsions:
REMARK  status: ('A' for Active; 'I' for Inactive)
REMARK    1  A    between atoms: C_1  and  C_2
REMARK    2  A    between atoms: C_2  and  C_3
REMARK    3  A    between atoms: C_6  and  C_7
REMARK    4  A    between atoms: C_7  and  C_8
REMARK    5  A    between atoms: C_14  and  N_15
REMARK    6  A    between atoms: N_15  and  S_16
REMARK    7  A    between atoms: S_16  and  N_17
REMARK    8  A    between atoms: C_25  and  O_26
REMARK    9  A    between atoms: O_26  and  C_27
REMARK   10  A    between atoms: C_28  and  O_29
REMARK   11  A    between atoms: O_29  and  C_30
REMARK                            x       y       z     vdW  Elec       q    Type
REMARK                         _______ _______ _______ _____ _____    ______ ____
ROOT
ATOM      1  C   UNL     1       1.434   9.857  18.779  0.00  0.00    +0.000 A 
ATOM      2  C   UNL     1       1.083   9.173  19.936  0.00  0.00    +0.000 A 
ATOM      3  N   UNL     1       1.531   7.937  20.263  0.00  0.00    +0.000 NA
ATOM      4  C   UNL     1       2.380   7.329  19.419  0.00  0.00    +0.000 A 
ATOM      5  C   UNL     1       2.926   6.093  19.750  0.00  0.00    +0.000 A 
ATOM      6  C   UNL     1       3.822   5.428  18.903  0.00  0.00    +0.000 A 
ATOM      7  C   UNL     1       4.150   5.989  17.674  0.00  0.00    +0.000 A 
ATOM      8  C   UNL     1       3.615   7.227  17.319  0.00  0.00    +0.000 A 
ATOM      9  C   UNL     1       2.759   7.909  18.193  0.00  0.00    +0.000 A 
ATOM     10  C   UNL     1       2.268   9.186  17.885  0.00  0.00    +0.000 A 
ENDROOT
BRANCH   7  11
ATOM     11  N   UNL     1       5.055   5.341  16.780  0.00  0.00    +0.000 N 
ATOM     12  H   UNL     1       4.941   4.325  16.789  0.00  0.00    +0.000 HD
BRANCH  11  13
ATOM     13  S   UNL     1       6.703   5.624  16.976  0.00  0.00    +0.000 S 
ATOM     14  O   UNL     1       7.334   5.591  15.683  0.00  0.00    +0.000 OA
ATOM     15  O   UNL     1       6.827   6.738  17.878  0.00  0.00    +0.000 OA
BRANCH  13  16
ATOM     16  N   UNL     1       7.153   4.261  17.804  0.00  0.00    +0.000 NA
ATOM     17  H   UNL     1       6.642   4.134  18.673  0.00  0.00    +0.000 HD
ATOM     18  H   UNL     1       8.158   4.110  17.806  0.00  0.00    +0.000 HD
ENDBRANCH  13  16
ENDBRANCH  11  13
ENDBRANCH   7  11
BRANCH   1  19
ATOM     19  C   UNL     1       1.006  11.286  18.544  0.00  0.00    +0.000 C 
BRANCH  19  23
ATOM     20  C   UNL     1      -2.513  12.527  20.613  0.00  0.00    +0.000 A 
ATOM     21  N   UNL     1      -1.292  12.664  21.181  0.00  0.00    +0.000 NA
ATOM     22  C   UNL     1      -0.234  12.231  20.480  0.00  0.00    +0.000 A 
ATOM     23  C   UNL     1      -0.305  11.618  19.230  0.00  0.00    +0.000 A 
ATOM     24  C   UNL     1      -1.591  11.430  18.647  0.00  0.00    +0.000 A 
ATOM     25  C   UNL     1      -1.842  10.733  17.426  0.00  0.00    +0.000 A 
ATOM     26  C   UNL     1      -3.131  10.589  16.860  0.00  0.00    +0.000 A 
ATOM     27  C   UNL     1      -4.214  11.180  17.503  0.00  0.00    +0.000 A 
ATOM     28  C   UNL     1      -3.980  11.837  18.723  0.00  0.00    +0.000 A 
ATOM     29  C   UNL     1      -2.711  11.943  19.337  0.00  0.00    +0.000 A 
BRANCH  20  31
ATOM     30  C   UNL     1      -3.752  14.581  21.343  0.00  0.00    +0.000 C 
ATOM     31  C   UNL     1      -3.644  13.069  21.459  0.00  0.00    +0.000 C 
ENDBRANCH  20  31
BRANCH  26  32
ATOM     32  O   UNL     1      -3.223   9.656  15.860  0.00  0.00    +0.000 OA
ATOM     33  C   UNL     1      -3.042  10.131  14.530  0.00  0.00    +0.000 C 
ENDBRANCH  26  32
BRANCH  27  34
ATOM     34  O   UNL     1      -5.547  11.194  17.222  0.00  0.00    +0.000 OA
ATOM     35  C   UNL     1      -6.409  12.181  17.738  0.00  0.00    +0.000 C 
ENDBRANCH  27  34
ENDBRANCH  19  23
ENDBRANCH   1  19
TORSDOF 8
ENDMDL
MODEL 3
REMARK VINA RESULT:      -8.3      1.226      1.457
REMARK  Name = 
REMARK  11 active torsions:
REMARK  status: ('A' for Active; 'I' for Inactive)
REMARK    1  A    between atoms: C_1  and  C_2
REMARK    2  A    between atoms: C_2  and  C_3
REMARK    3  A    between atoms: C_6  and  C_7
REMARK    4  A    between atoms: C_7  and  C_8
REMARK    5  A    between atoms: C_14  and  N_15
REMARK    6  A    between atoms: N_15  and  S_16
REMARK    7  A    between atoms: S_16  and  N_17
REMARK    8  A    between atoms: C_25  and  O_26
REMARK    9  A    between atoms: O_26  and  C_27
REMARK   10  A    between atoms: C_28  and  O_29
REMARK   11  A    between atoms: O_29  and  C_30
REMARK                            x       y       z     vdW  Elec       q    Type
REMARK                         _______ _______ _______ _____ _____    ______ ____
ROOT
ATOM      1  C   UNL     1       1.638   9.359  18.672  0.00  0.00    +0.000 A 
ATOM      2  C   UNL     1       1.374   8.649  19.836  0.00  0.00    +0.000 A 
ATOM      3  N   UNL     1       1.907   7.440  20.136  0.00  0.00    +0.000 NA
ATOM      4  C   UNL     1       2.757   6.888  19.255  0.00  0.00    +0.000 A 
ATOM      5  C   UNL     1       3.388   5.685  19.555  0.00  0.00    +0.000 A 
ATOM      6  C   UNL     1       4.288   5.079  18.669  0.00  0.00    +0.000 A 
ATOM      7  C   UNL     1       4.533   5.666  17.432  0.00  0.00    +0.000 A 
ATOM      8  C   UNL     1       3.912   6.871  17.108  0.00  0.00    +0.000 A 
ATOM      9  C   UNL     1       3.052   7.496  18.020  0.00  0.00    +0.000 A 
ATOM     10  C   UNL     1       2.474   8.744  17.741  0.00  0.00    +0.000 A 
ENDROOT
BRANCH   7  11
ATOM     11  N   UNL     1       5.440   5.077  16.499  0.00  0.00    +0.000 N 
ATOM     12  H   UNL     1       5.442   4.057  16.558  0.00  0.00    +0.000 HD
BRANCH  11  13
ATOM     13  S   UNL     1       7.054   5.550  16.556  0.00  0.00    +0.000 S 
ATOM     14  O   UNL     1       7.113   6.962  16.828  0.00  0.00    +0.000 OA
ATOM     15  O   UNL     1       7.744   4.571  17.353  0.00  0.00    +0.000 OA
BRANCH  13  16
ATOM     16  N   UNL     1       7.500   5.310  14.978  0.00  0.00    +0.000 NA
ATOM     17  H   UNL     1       8.178   5.990  14.646  0.00  0.00    +0.000 HD
ATOM     18  H   UNL     1       6.718   5.073  14.375  0.00  0.00    +0.000 HD
ENDBRANCH  13  16
ENDBRANCH  11  13
ENDBRANCH   7  11
BRANCH   1  19
ATOM     19  C   UNL     1       1.117  10.761  18.465  0.00  0.00    +0.000 C 
BRANCH  19  23
ATOM     20  C   UNL     1      -1.101  12.269  21.783  0.00  0.00    +0.000 A 
ATOM     21  N   UNL     1       0.211  11.963  21.910  0.00  0.00    +0.000 NA
ATOM     22  C   UNL     1       0.838  11.472  20.830  0.00  0.00    +0.000 A 
ATOM     23  C   UNL     1       0.226  11.221  19.602  0.00  0.00    +0.000 A 
ATOM     24  C   UNL     1      -1.166  11.499  19.477  0.00  0.00    +0.000 A 
ATOM     25  C   UNL     1      -1.958  11.204  18.325  0.00  0.00    +0.000 A 
ATOM     26  C   UNL     1      -3.333  11.520  18.222  0.00  0.00    +0.000 A 
ATOM     27  C   UNL     1      -3.949  12.178  19.281  0.00  0.00    +0.000 A 
ATOM     28  C   UNL     1      -3.186  12.439  20.432  0.00  0.00    +0.000 A 
ATOM     29  C   UNL     1      -1.826  12.082  20.580  0.00  0.00    +0.000 A 
BRANCH  20  31
ATOM     30  C   UNL     1      -1.083  14.173  23.414  0.00  0.00    +0.000 C 
ATOM     31  C   UNL     1      -1.718  12.843  23.039  0.00  0.00    +0.000 C 
ENDBRANCH  20  31
BRANCH  26  32
ATOM     32  O   UNL     1      -3.990  10.911  17.185  0.00  0.00    +0.000 OA
ATOM     33  C   UNL     1      -3.176  10.368  16.151  0.00  0.00    +0.000 C 
ENDBRANCH  26  32
BRANCH  27  34
ATOM     34  O   UNL     1      -5.235  12.583  19.482  0.00  0.00    +0.000 OA
ATOM     35  C   UNL     1      -6.225  11.710  19.974  0.00  0.00    +0.000 C 
ENDBRANCH  27  34
ENDBRANCH  19  23
ENDBRANCH   1  19
TORSDOF 8
ENDMDL
MODEL 4
REMARK VINA RESULT:      -8.1      1.888      3.531
REMARK  Name = 
REMARK  11 active torsions:
REMARK  status: ('A' for Active; 'I' for Inactive)
REMARK    1  A    between atoms: C_1  and  C_2
REMARK    2  A    between atoms: C_2  and  C_3
REMARK    3  A    between atoms: C_6  and  C_7
REMARK    4  A    between atoms: C_7  and  C_8
REMARK    5  A    between atoms: C_14  and  N_15
REMARK    6  A    between atoms: N_15  and  S_16
REMARK    7  A    between atoms: S_16  and  N_17
REMARK    8  A    between atoms: C_25  and  O_26
REMARK    9  A    between atoms: O_26  and  C_27
REMARK   10  A    between atoms: C_28  and  O_29
REMARK   11  A    between atoms: O_29  and  C_30
REMARK                            x       y       z     vdW  Elec       q    Type
REMARK                         _______ _______ _______ _____ _____    ______ ____
ROOT
ATOM      1  C   UNL     1       1.451   8.825  19.743  0.00  0.00    +0.000 A 
ATOM      2  C   UNL     1       1.238   7.828  20.687  0.00  0.00    +0.000 A 
ATOM      3  N   UNL     1       1.791   6.592  20.636  0.00  0.00    +0.000 NA
ATOM      4  C   UNL     1       2.608   6.307  19.609  0.00  0.00    +0.000 A 
ATOM      5  C   UNL     1       3.259   5.078  19.557  0.00  0.00    +0.000 A 
ATOM      6  C   UNL     1       4.125   4.743  18.510  0.00  0.00    +0.000 A 
ATOM      7  C   UNL     1       4.317   5.640  17.464  0.00  0.00    +0.000 A 
ATOM      8  C   UNL     1       3.677   6.877  17.493  0.00  0.00    +0.000 A 
ATOM      9  C   UNL     1       2.849   7.225  18.570  0.00  0.00    +0.000 A 
ATOM     10  C   UNL     1       2.253   8.492  18.652  0.00  0.00    +0.000 A 
ENDROOT
BRANCH   7  11
ATOM     11  N   UNL     1       5.190   5.334  16.375  0.00  0.00    +0.000 N 
ATOM     12  H   UNL     1       5.095   4.363  16.069  0.00  0.00    +0.000 HD
BRANCH  11  13
ATOM     13  S   UNL     1       6.839   5.596  16.583  0.00  0.00    +0.000 S 
ATOM     14  O   UNL     1       7.050   6.985  16.895  0.00  0.00    +0.000 OA
ATOM     15  O   UNL     1       7.328   4.526  17.411  0.00  0.00    +0.000 OA
BRANCH  13  16
ATOM     16  N   UNL     1       7.389   5.326  15.044  0.00  0.00    +0.000 NA
ATOM     17  H   UNL     1       7.004   5.973  14.361  0.00  0.00    +0.000 HD
ATOM     18  H   UNL     1       7.433   4.340  14.804  0.00  0.00    +0.000 HD
ENDBRANCH  13  16
ENDBRANCH  11  13
ENDBRANCH   7  11
BRANCH   1  19
ATOM     19  C   UNL     1       0.913  10.223  19.934  0.00  0.00    +0.000 C 
BRANCH  19  23
ATOM     20  C   UNL     1      -2.537  10.610  17.454  0.00  0.00    +0.000 A 
ATOM     21  N   UNL     1      -1.475   9.875  17.051  0.00  0.00    +0.000 NA
ATOM     22  C   UNL     1      -0.417   9.818  17.873  0.00  0.00    +0.000 A 
ATOM     23  C   UNL     1      -0.319  10.489  19.092  0.00  0.00    +0.000 A 
ATOM     24  C   UNL     1      -1.417  11.301  19.499  0.00  0.00    +0.000 A 
ATOM     25  C   UNL     1      -1.434  12.129  20.663  0.00  0.00    +0.000 A 
ATOM     26  C   UNL     1      -2.553  12.902  21.056  0.00  0.00    +0.000 A 
ATOM     27  C   UNL     1      -3.712  12.836  20.291  0.00  0.00    +0.000 A 
ATOM     28  C   UNL     1      -3.691  12.052  19.124  0.00  0.00    +0.000 A 
ATOM     29  C   UNL     1      -2.567  11.318  18.681  0.00  0.00    +0.000 A 
BRANCH  20  31
ATOM     30  C   UNL     1      -3.238  10.220  15.079  0.00  0.00    +0.000 C 
ATOM     31  C   UNL     1      -3.695  10.594  16.480  0.00  0.00    +0.000 C 
ENDBRANCH  20  31
BRANCH  26  32
ATOM     32  O   UNL     1      -2.295  13.845  22.016  0.00  0.00    +0.000 OA
ATOM     33  C   UNL     1      -2.808  13.582  23.318  0.00  0.00    +0.000 C 
ENDBRANCH  26  32
BRANCH  27  34
ATOM     34  O   UNL     1      -4.915  13.468  20.397  0.00  0.00    +0.000 OA
ATOM     35  C   UNL     1      -5.986  12.918  21.126  0.00  0.00    +0.000 C 
ENDBRANCH  27  34
ENDBRANCH  19  23
ENDBRANCH   1  19
TORSDOF 8
ENDMDL
MODEL 5
REMARK VINA RESULT:      -7.9      1.237      1.667
REMARK  Name = 
REMARK  11 active torsions:
REMARK  status: ('A' for Active; 'I' for Inactive)
REMARK    1  A    between atoms: C_1  and  C_2
REMARK    2  A    between atoms: C_2  and  C_3
REMARK    3  A    between atoms: C_6  and  C_7
REMARK    4  A    between atoms: C_7  and  C_8
REMARK    5  A    between atoms: C_14  and  N_15
REMARK    6  A    between atoms: N_15  and  S_16
REMARK    7  A    between atoms: S_16  and  N_17
REMARK    8  A    between atoms: C_25  and  O_26
REMARK    9  A    between atoms: O_26  and  C_27
REMARK   10  A    between atoms: C_28  and  O_29
REMARK   11  A    between atoms: O_29  and  C_30
REMARK                            x       y       z     vdW  Elec       q    Type
REMARK                         _______ _______ _______ _____ _____    ______ ____
ROOT
ATOM      1  C   UNL     1       1.458   9.126  18.747  0.00  0.00    +0.000 A 
ATOM      2  C   UNL     1       1.140   8.457  19.923  0.00  0.00    +0.000 A 
ATOM      3  N   UNL     1       1.697   7.286  20.315  0.00  0.00    +0.000 NA
ATOM      4  C   UNL     1       2.628   6.732  19.521  0.00  0.00    +0.000 A 
ATOM      5  C   UNL     1       3.282   5.571  19.920  0.00  0.00    +0.000 A 
ATOM      6  C   UNL     1       4.263   4.964  19.127  0.00  0.00    +0.000 A 
ATOM      7  C   UNL     1       4.572   5.504  17.883  0.00  0.00    +0.000 A 
ATOM      8  C   UNL     1       3.930   6.667  17.461  0.00  0.00    +0.000 A 
ATOM      9  C   UNL     1       2.985   7.296  18.282  0.00  0.00    +0.000 A 
ATOM     10  C   UNL     1       2.380   8.505  17.905  0.00  0.00    +0.000 A 
ENDROOT
BRANCH   7  11
ATOM     11  N   UNL     1       5.564   4.913  17.043  0.00  0.00    +0.000 N 
ATOM     12  H   UNL     1       5.651   3.907  17.202  0.00  0.00    +0.000 HD
BRANCH  11  13
ATOM     13  S   UNL     1       7.129   5.530  17.106  0.00  0.00    +0.000 S 
ATOM     14  O   UNL     1       7.532   5.905  15.776  0.00  0.00    +0.000 OA
ATOM     15  O   UNL     1       7.170   6.440  18.220  0.00  0.00    +0.000 OA
BRANCH  13  16
ATOM     16  N   UNL     1       7.977   4.175  17.539  0.00  0.00    +0.000 NA
ATOM     17  H   UNL     1       8.687   4.354  18.243  0.00  0.00    +0.000 HD
ATOM     18  H   UNL     1       8.220   3.587  16.746  0.00  0.00    +0.000 HD
ENDBRANCH  13  16
ENDBRANCH  11  13
ENDBRANCH   7  11
BRANCH   1  19
ATOM     19  C   UNL     1       0.900  10.494  18.439  0.00  0.00    +0.000 C 
BRANCH  19  23
ATOM     20  C   UNL     1      -0.797  12.406  21.855  0.00  0.00    +0.000 A 
ATOM     21  N   UNL     1       0.483  11.967  21.873  0.00  0.00    +0.000 NA
ATOM     22  C   UNL     1       0.941  11.355  20.771  0.00  0.00    +0.000 A 
ATOM     23  C   UNL     1       0.183  11.107  19.626  0.00  0.00    +0.000 A 
ATOM     24  C   UNL     1      -1.179  11.527  19.620  0.00  0.00    +0.000 A 
ATOM     25  C   UNL     1      -2.112  11.259  18.572  0.00  0.00    +0.000 A 
ATOM     26  C   UNL     1      -3.451  11.716  18.584  0.00  0.00    +0.000 A 
ATOM     27  C   UNL     1      -3.884  12.492  19.654  0.00  0.00    +0.000 A 
ATOM     28  C   UNL     1      -2.982  12.729  20.706  0.00  0.00    +0.000 A 
ATOM     29  C   UNL     1      -1.658  12.235  20.743  0.00  0.00    +0.000 A 
BRANCH  20  31
ATOM     30  C   UNL     1      -0.788  14.567  23.126  0.00  0.00    +0.000 C 
ATOM     31  C   UNL     1      -1.219  13.109  23.127  0.00  0.00    +0.000 C 
ENDBRANCH  20  31
BRANCH  26  32
ATOM     32  O   UNL     1      -4.271  11.128  17.656  0.00  0.00    +0.000 OA
ATOM     33  C   UNL     1      -5.464  10.529  18.152  0.00  0.00    +0.000 C 
ENDBRANCH  26  32
BRANCH  27  34
ATOM     34  O   UNL     1      -5.094  13.043  19.953  0.00  0.00    +0.000 OA
ATOM     35  C   UNL     1      -5.209  14.300  20.578  0.00  0.00    +0.000 C 
ENDBRANCH  27  34
ENDBRANCH  19  23
ENDBRANCH   1  19
TORSDOF 8
ENDMDL
MODEL 6
REMARK VINA RESULT:      -7.9      2.112      3.622
REMARK  Name = 
REMARK  11 active torsions:
REMARK  status: ('A' for Active; 'I' for Inactive)
REMARK    1  A    between atoms: C_1  and  C_2
REMARK    2  A    between atoms: C_2  and  C_3
REMARK    3  A    between atoms: C_6  and  C_7
REMARK    4  A    between atoms: C_7  and  C_8
REMARK    5  A    between atoms: C_14  and  N_15
REMARK    6  A    between atoms: N_15  and  S_16
REMARK    7  A    between atoms: S_16  and  N_17
REMARK    8  A    between atoms: C_25  and  O_26
REMARK    9  A    between atoms: O_26  and  C_27
REMARK   10  A    between atoms: C_28  and  O_29
REMARK   11  A    between atoms: O_29  and  C_30
REMARK                            x       y       z     vdW  Elec       q    Type
REMARK                         _______ _______ _______ _____ _____    ______ ____
ROOT
ATOM      1  C   UNL     1       1.335   9.770  18.851  0.00  0.00    +0.000 A 
ATOM      2  C   UNL     1       1.011   9.076  20.010  0.00  0.00    +0.000 A 
ATOM      3  N   UNL     1       1.490   7.850  20.332  0.00  0.00    +0.000 NA
ATOM      4  C   UNL     1       2.346   7.263  19.479  0.00  0.00    +0.000 A 
ATOM      5  C   UNL     1       2.923   6.039  19.803  0.00  0.00    +0.000 A 
ATOM      6  C   UNL     1       3.826   5.396  18.947  0.00  0.00    +0.000 A 
ATOM      7  C   UNL     1       4.130   5.967  17.716  0.00  0.00    +0.000 A 
ATOM      8  C   UNL     1       3.564   7.192  17.368  0.00  0.00    +0.000 A 
ATOM      9  C   UNL     1       2.700   7.853  18.251  0.00  0.00    +0.000 A 
ATOM     10  C   UNL     1       2.176   9.119  17.949  0.00  0.00    +0.000 A 
ENDROOT
BRANCH   7  11
ATOM     11  N   UNL     1       5.042   5.341  16.813  0.00  0.00    +0.000 N 
ATOM     12  H   UNL     1       4.942   4.324  16.811  0.00  0.00    +0.000 HD
BRANCH  11  13
ATOM     13  S   UNL     1       6.687   5.644  17.009  0.00  0.00    +0.000 S 
ATOM     14  O   UNL     1       7.325   5.576  15.721  0.00  0.00    +0.000 OA
ATOM     15  O   UNL     1       6.796   6.788  17.875  0.00  0.00    +0.000 OA
BRANCH  13  16
ATOM     16  N   UNL     1       7.143   4.313  17.882  0.00  0.00    +0.000 NA
ATOM     17  H   UNL     1       6.757   4.299  18.822  0.00  0.00    +0.000 HD
ATOM     18  H   UNL     1       8.122   4.071  17.757  0.00  0.00    +0.000 HD
ENDBRANCH  13  16
ENDBRANCH  11  13
ENDBRANCH   7  11
BRANCH   1  19
ATOM     19  C   UNL     1       0.873  11.188  18.623  0.00  0.00    +0.000 C 
BRANCH  19  23
ATOM     20  C   UNL     1      -3.378  11.125  18.258  0.00  0.00    +0.000 A 
ATOM     21  N   UNL     1      -2.599  10.442  17.388  0.00  0.00    +0.000 NA
ATOM     22  C   UNL     1      -1.270  10.527  17.551  0.00  0.00    +0.000 A 
ATOM     23  C   UNL     1      -0.636  11.296  18.526  0.00  0.00    +0.000 A 
ATOM     24  C   UNL     1      -1.451  12.054  19.417  0.00  0.00    +0.000 A 
ATOM     25  C   UNL     1      -0.959  12.966  20.400  0.00  0.00    +0.000 A 
ATOM     26  C   UNL     1      -1.796  13.681  21.289  0.00  0.00    +0.000 A 
ATOM     27  C   UNL     1      -3.169  13.471  21.231  0.00  0.00    +0.000 A 
ATOM     28  C   UNL     1      -3.664  12.603  20.242  0.00  0.00    +0.000 A 
ATOM     29  C   UNL     1      -2.852  11.921  19.306  0.00  0.00    +0.000 A 
BRANCH  20  31
ATOM     30  C   UNL     1      -5.413  12.040  17.116  0.00  0.00    +0.000 C 
ATOM     31  C   UNL     1      -4.861  10.948  18.018  0.00  0.00    +0.000 C 
ENDBRANCH  20  31
BRANCH  26  32
ATOM     32  O   UNL     1      -1.185  14.713  21.953  0.00  0.00    +0.000 OA
ATOM     33  C   UNL     1      -1.042  14.564  23.362  0.00  0.00    +0.000 C 
ENDBRANCH  26  32
BRANCH  27  34
ATOM     34  O   UNL     1      -4.208  14.019  21.922  0.00  0.00    +0.000 OA
ATOM     35  C   UNL     1      -4.668  15.325  21.669  0.00  0.00    +0.000 C 
ENDBRANCH  27  34
ENDBRANCH  19  23
ENDBRANCH   1  19
TORSDOF 8
ENDMDL
MODEL 7
REMARK VINA RESULT:      -7.9      2.996      4.529
REMARK  Name = 
REMARK  11 active torsions:
REMARK  status: ('A' for Active; 'I' for Inactive)
REMARK    1  A    between atoms: C_1  and  C_2
REMARK    2  A    between atoms: C_2  and  C_3
REMARK    3  A    between atoms: C_6  and  C_7
REMARK    4  A    between atoms: C_7  and  C_8
REMARK    5  A    between atoms: C_14  and  N_15
REMARK    6  A    between atoms: N_15  and  S_16
REMARK    7  A    between atoms: S_16  and  N_17
REMARK    8  A    between atoms: C_25  and  O_26
REMARK    9  A    between atoms: O_26  and  C_27
REMARK   10  A    between atoms: C_28  and  O_29
REMARK   11  A    between atoms: O_29  and  C_30
REMARK                            x       y       z     vdW  Elec       q    Type
REMARK                         _______ _______ _______ _____ _____    ______ ____
ROOT
ATOM      1  C   UNL     1       1.209   9.421  18.686  0.00  0.00    +0.000 A 
ATOM      2  C   UNL     1       1.060   8.834  19.936  0.00  0.00    +0.000 A 
ATOM      3  N   UNL     1       1.713   7.719  20.344  0.00  0.00    +0.000 NA
ATOM      4  C   UNL     1       2.571   7.140  19.487  0.00  0.00    +0.000 A 
ATOM      5  C   UNL     1       3.320   6.039  19.889  0.00  0.00    +0.000 A 
ATOM      6  C   UNL     1       4.231   5.410  19.031  0.00  0.00    +0.000 A 
ATOM      7  C   UNL     1       4.368   5.865  17.724  0.00  0.00    +0.000 A 
ATOM      8  C   UNL     1       3.628   6.966  17.297  0.00  0.00    +0.000 A 
ATOM      9  C   UNL     1       2.755   7.620  18.177  0.00  0.00    +0.000 A 
ATOM     10  C   UNL     1       2.056   8.772  17.788  0.00  0.00    +0.000 A 
ENDROOT
BRANCH   7  11
ATOM     11  N   UNL     1       5.283   5.248  16.817  0.00  0.00    +0.000 N 
ATOM     12  H   UNL     1       5.238   4.228  16.861  0.00  0.00    +0.000 HD
BRANCH  11  13
ATOM     13  S   UNL     1       6.914   5.647  16.941  0.00  0.00    +0.000 S 
ATOM     14  O   UNL     1       7.497   5.621  15.625  0.00  0.00    +0.000 OA
ATOM     15  O   UNL     1       6.995   6.791  17.809  0.00  0.00    +0.000 OA
BRANCH  13  16
ATOM     16  N   UNL     1       7.486   4.340  17.784  0.00  0.00    +0.000 NA
ATOM     17  H   UNL     1       6.775   3.638  17.964  0.00  0.00    +0.000 HD
ATOM     18  H   UNL     1       8.114   4.598  18.539  0.00  0.00    +0.000 HD
ENDBRANCH  13  16
ENDBRANCH  11  13
ENDBRANCH   7  11
BRANCH   1  19
ATOM     19  C   UNL     1       0.556  10.740  18.348  0.00  0.00    +0.000 C 
BRANCH  19  23
ATOM     20  C   UNL     1       2.786  14.182  19.527  0.00  0.00    +0.000 A 
ATOM     21  N   UNL     1       3.158  13.452  18.450  0.00  0.00    +0.000 NA
ATOM     22  C   UNL     1       2.422  12.370  18.153  0.00  0.00    +0.000 A 
ATOM     23  C   UNL     1       1.328  11.925  18.895  0.00  0.00    +0.000 A 
ATOM     24  C   UNL     1       0.960  12.664  20.056  0.00  0.00    +0.000 A 
ATOM     25  C   UNL     1      -0.066  12.286  20.974  0.00  0.00    +0.000 A 
ATOM     26  C   UNL     1      -0.427  13.059  22.103  0.00  0.00    +0.000 A 
ATOM     27  C   UNL     1       0.226  14.267  22.323  0.00  0.00    +0.000 A 
ATOM     28  C   UNL     1       1.262  14.628  21.445  0.00  0.00    +0.000 A 
ATOM     29  C   UNL     1       1.678  13.845  20.344  0.00  0.00    +0.000 A 
BRANCH  20  31
ATOM     30  C   UNL     1       5.116  15.016  19.927  0.00  0.00    +0.000 C 
ATOM     31  C   UNL     1       3.653  15.397  19.769  0.00  0.00    +0.000 C 
ENDBRANCH  20  31
BRANCH  26  32
ATOM     32  O   UNL     1      -1.214  12.411  23.020  0.00  0.00    +0.000 OA
ATOM     33  C   UNL     1      -1.186  10.987  22.986  0.00  0.00    +0.000 C 
ENDBRANCH  26  32
BRANCH  27  34
ATOM     34  O   UNL     1       0.119  15.196  23.314  0.00  0.00    +0.000 OA
ATOM     35  C   UNL     1       0.592  16.514  23.157  0.00  0.00    +0.000 C 
ENDBRANCH  27  34
ENDBRANCH  19  23
ENDBRANCH   1  19
TORSDOF 8
ENDMDL
MODEL 8
REMARK VINA RESULT:      -7.9      2.966      4.283
REMARK  Name = 
REMARK  11 active torsions:
REMARK  status: ('A' for Active; 'I' for Inactive)
REMARK    1  A    between atoms: C_1  and  C_2
REMARK    2  A    between atoms: C_2  and  C_3
REMARK    3  A    between atoms: C_6  and  C_7
REMARK    4  A    between atoms: C_7  and  C_8
REMARK    5  A    between atoms: C_14  and  N_15
REMARK    6  A    between atoms: N_15  and  S_16
REMARK    7  A    between atoms: S_16  and  N_17
REMARK    8  A    between atoms: C_25  and  O_26
REMARK    9  A    between atoms: O_26  and  C_27
REMARK   10  A    between atoms: C_28  and  O_29
REMARK   11  A    between atoms: O_29  and  C_30
REMARK                            x       y       z     vdW  Elec       q    Type
REMARK                         _______ _______ _______ _____ _____    ______ ____
ROOT
ATOM      1  C   UNL     1       1.450   8.669  18.573  0.00  0.00    +0.000 A 
ATOM      2  C   UNL     1       1.516   8.157  19.863  0.00  0.00    +0.000 A 
ATOM      3  N   UNL     1       2.312   7.127  20.241  0.00  0.00    +0.000 NA
ATOM      4  C   UNL     1       3.100   6.563  19.311  0.00  0.00    +0.000 A 
ATOM      5  C   UNL     1       3.989   5.555  19.669  0.00  0.00    +0.000 A 
ATOM      6  C   UNL     1       4.834   4.945  18.734  0.00  0.00    +0.000 A 
ATOM      7  C   UNL     1       4.761   5.321  17.396  0.00  0.00    +0.000 A 
ATOM      8  C   UNL     1       3.878   6.329  17.012  0.00  0.00    +0.000 A 
ATOM      9  C   UNL     1       3.072   6.968  17.963  0.00  0.00    +0.000 A 
ATOM     10  C   UNL     1       2.229   8.031  17.607  0.00  0.00    +0.000 A 
ENDROOT
BRANCH   7  11
ATOM     11  N   UNL     1       5.603   4.720  16.411  0.00  0.00    +0.000 N 
ATOM     12  H   UNL     1       5.623   3.701  16.493  0.00  0.00    +0.000 HD
BRANCH  11  13
ATOM     13  S   UNL     1       7.211   5.212  16.335  0.00  0.00    +0.000 S 
ATOM     14  O   UNL     1       7.982   4.413  17.251  0.00  0.00    +0.000 OA
ATOM     15  O   UNL     1       7.540   5.336  14.939  0.00  0.00    +0.000 OA
BRANCH  13  16
ATOM     16  N   UNL     1       7.095   6.742  16.957  0.00  0.00    +0.000 NA
ATOM     17  H   UNL     1       6.302   6.861  17.581  0.00  0.00    +0.000 HD
ATOM     18  H   UNL     1       7.283   7.467  16.271  0.00  0.00    +0.000 HD
ENDBRANCH  13  16
ENDBRANCH  11  13
ENDBRANCH   7  11
BRANCH   1  19
ATOM     19  C   UNL     1       0.645   9.905  18.253  0.00  0.00    +0.000 C 
BRANCH  19  23
ATOM     20  C   UNL     1       2.559  13.574  19.295  0.00  0.00    +0.000 A 
ATOM     21  N   UNL     1       2.991  12.844  18.240  0.00  0.00    +0.000 NA
ATOM     22  C   UNL     1       2.355  11.690  17.986  0.00  0.00    +0.000 A 
ATOM     23  C   UNL     1       1.310  11.174  18.752  0.00  0.00    +0.000 A 
ATOM     24  C   UNL     1       0.882  11.916  19.890  0.00  0.00    +0.000 A 
ATOM     25  C   UNL     1      -0.100  11.478  20.830  0.00  0.00    +0.000 A 
ATOM     26  C   UNL     1      -0.523  12.253  21.936  0.00  0.00    +0.000 A 
ATOM     27  C   UNL     1       0.018  13.522  22.109  0.00  0.00    +0.000 A 
ATOM     28  C   UNL     1       1.012  13.945  21.210  0.00  0.00    +0.000 A 
ATOM     29  C   UNL     1       1.491  13.166  20.132  0.00  0.00    +0.000 A 
BRANCH  20  31
ATOM     30  C   UNL     1       4.335  15.091  18.384  0.00  0.00    +0.000 C 
ATOM     31  C   UNL     1       3.313  14.871  19.488  0.00  0.00    +0.000 C 
ENDBRANCH  20  31
BRANCH  26  32
ATOM     32  O   UNL     1      -1.242  11.568  22.881  0.00  0.00    +0.000 OA
ATOM     33  C   UNL     1      -0.798  10.248  23.182  0.00  0.00    +0.000 C 
ENDBRANCH  26  32
BRANCH  27  34
ATOM     34  O   UNL     1      -0.167  14.471  23.069  0.00  0.00    +0.000 OA
ATOM     35  C   UNL     1      -1.404  15.119  23.252  0.00  0.00    +0.000 C 
ENDBRANCH  27  34
ENDBRANCH  19  23
ENDBRANCH   1  19
TORSDOF 8
ENDMDL
MODEL 9
REMARK VINA RESULT:      -7.9      2.128      3.736
REMARK  Name = 
REMARK  11 active torsions:
REMARK  status: ('A' for Active; 'I' for Inactive)
REMARK    1  A    between atoms: C_1  and  C_2
REMARK    2  A    between atoms: C_2  and  C_3
REMARK    3  A    between atoms: C_6  and  C_7
REMARK    4  A    between atoms: C_7  and  C_8
REMARK    5  A    between atoms: C_14  and  N_15
REMARK    6  A    between atoms: N_15  and  S_16
REMARK    7  A    between atoms: S_16  and  N_17
REMARK    8  A    between atoms: C_25  and  O_26
REMARK    9  A    between atoms: O_26  and  C_27
REMARK   10  A    between atoms: C_28  and  O_29
REMARK   11  A    between atoms: O_29  and  C_30
REMARK                            x       y       z     vdW  Elec       q    Type
REMARK                         _______ _______ _______ _____ _____    ______ ____
ROOT
ATOM      1  C   UNL     1       1.794   7.668  20.204  0.00  0.00    +0.000 A 
ATOM      2  C   UNL     1       1.446   6.447  20.769  0.00  0.00    +0.000 A 
ATOM      3  N   UNL     1       1.887   5.244  20.329  0.00  0.00    +0.000 NA
ATOM      4  C   UNL     1       2.726   5.223  19.280  0.00  0.00    +0.000 A 
ATOM      5  C   UNL     1       3.264   4.017  18.843  0.00  0.00    +0.000 A 
ATOM      6  C   UNL     1       4.149   3.951  17.759  0.00  0.00    +0.000 A 
ATOM      7  C   UNL     1       4.472   5.112  17.065  0.00  0.00    +0.000 A 
ATOM      8  C   UNL     1       3.945   6.333  17.484  0.00  0.00    +0.000 A 
ATOM      9  C   UNL     1       3.100   6.397  18.600  0.00  0.00    +0.000 A 
ATOM     10  C   UNL     1       2.617   7.624  19.079  0.00  0.00    +0.000 A 
ENDROOT
BRANCH   7  11
ATOM     11  N   UNL     1       5.367   5.086  15.952  0.00  0.00    +0.000 N 
ATOM     12  H   UNL     1       5.379   4.174  15.491  0.00  0.00    +0.000 HD
BRANCH  11  13
ATOM     13  S   UNL     1       6.978   5.493  16.219  0.00  0.00    +0.000 S 
ATOM     14  O   UNL     1       7.046   6.877  16.609  0.00  0.00    +0.000 OA
ATOM     15  O   UNL     1       7.548   4.432  17.005  0.00  0.00    +0.000 OA
BRANCH  13  16
ATOM     16  N   UNL     1       7.587   5.360  14.684  0.00  0.00    +0.000 NA
ATOM     17  H   UNL     1       8.269   6.079  14.461  0.00  0.00    +0.000 HD
ATOM     18  H   UNL     1       6.878   5.134  13.993  0.00  0.00    +0.000 HD
ENDBRANCH  13  16
ENDBRANCH  11  13
ENDBRANCH   7  11
BRANCH   1  19
ATOM     19  C   UNL     1       1.376   8.977  20.830  0.00  0.00    +0.000 C 
BRANCH  19  23
ATOM     20  C   UNL     1      -1.386  10.846  18.169  0.00  0.00    +0.000 A 
ATOM     21  N   UNL     1      -0.466   9.968  17.706  0.00  0.00    +0.000 NA
ATOM     22  C   UNL     1       0.384   9.437  18.598  0.00  0.00    +0.000 A 
ATOM     23  C   UNL     1       0.411   9.754  19.956  0.00  0.00    +0.000 A 
ATOM     24  C   UNL     1      -0.525  10.712  20.440  0.00  0.00    +0.000 A 
ATOM     25  C   UNL     1      -0.561  11.219  21.775  0.00  0.00    +0.000 A 
ATOM     26  C   UNL     1      -1.525  12.150  22.231  0.00  0.00    +0.000 A 
ATOM     27  C   UNL     1      -2.510  12.579  21.349  0.00  0.00    +0.000 A 
ATOM     28  C   UNL     1      -2.459  12.113  20.023  0.00  0.00    +0.000 A 
ATOM     29  C   UNL     1      -1.474  11.228  19.530  0.00  0.00    +0.000 A 
BRANCH  20  31
ATOM     30  C   UNL     1      -3.279  10.292  16.622  0.00  0.00    +0.000 C 
ATOM     31  C   UNL     1      -2.320  11.370  17.100  0.00  0.00    +0.000 C 
ENDBRANCH  20  31
BRANCH  26  32
ATOM     32  O   UNL     1      -1.235  12.738  23.435  0.00  0.00    +0.000 OA
ATOM     33  C   UNL     1      -0.998  14.142  23.414  0.00  0.00    +0.000 C 
ENDBRANCH  26  32
BRANCH  27  34
ATOM     34  O   UNL     1      -3.534  13.468  21.484  0.00  0.00    +0.000 OA
ATOM     35  C   UNL     1      -4.729  13.136  22.150  0.00  0.00    +0.000 C 
ENDBRANCH  27  34
ENDBRANCH  19  23
ENDBRANCH   1  19
TORSDOF 8
ENDMDL
