MODEL 1
REMARK VINA RESULT:      -8.5      0.000      0.000
REMARK  Name = 
REMARK  6 active torsions:
REMARK  status: ('A' for Active; 'I' for Inactive)
REMARK    1  A    between atoms: C_1  and  C_2
REMARK    2  A    between atoms: C_2  and  C_3
REMARK    3  A    between atoms: C_4  and  C_5
REMARK    4  A    between atoms: C_11  and  C_12
REMARK    5  A    between atoms: C_14  and  N_15
REMARK    6  A    between atoms: N_18  and  C_19
REMARK                            x       y       z     vdW  Elec       q    Type
REMARK                         _______ _______ _______ _____ _____    ______ ____
ROOT
ATOM      1  C   UNL     1       4.147   4.107  17.299  0.00  0.00    +0.000 A 
ATOM      2  C   UNL     1       4.081   2.987  18.134  0.00  0.00    +0.000 A 
ATOM      3  C   UNL     1       3.402   3.023  19.356  0.00  0.00    +0.000 A 
ATOM      4  C   UNL     1       2.807   4.234  19.715  0.00  0.00    +0.000 A 
ATOM      5  N   UNL     1       2.071   4.586  20.811  0.00  0.00    +0.000 N 
ATOM      6  N   UNL     1       1.687   5.866  20.823  0.00  0.00    +0.000 NA
ATOM      7  C   UNL     1       2.176   6.379  19.673  0.00  0.00    +0.000 A 
ATOM      8  C   UNL     1       2.879   5.380  18.933  0.00  0.00    +0.000 A 
ATOM      9  C   UNL     1       3.558   5.314  17.697  0.00  0.00    +0.000 A 
ATOM     10  H   UNL     1       1.797   3.994  21.587  0.00  0.00    +0.000 HD
ENDROOT
BRANCH   7  11
ATOM     11  C   UNL     1       1.951   7.774  19.308  0.00  0.00    +0.000 A 
ATOM     12  C   UNL     1       1.562   8.675  20.283  0.00  0.00    +0.000 A 
ATOM     13  C   UNL     1       1.264   9.957  19.895  0.00  0.00    +0.000 A 
ATOM     14  N   UNL     1       1.363  10.335  18.612  0.00  0.00    +0.000 NA
ATOM     15  C   UNL     1       1.799   9.413  17.740  0.00  0.00    +0.000 A 
ATOM     16  N   UNL     1       2.095   8.139  18.021  0.00  0.00    +0.000 NA
BRANCH  13  17
ATOM     17  N   UNL     1       0.788  10.840  20.835  0.00  0.00    +0.000 N 
ATOM     18  C   UNL     1       1.129  12.253  20.781  0.00  0.00    +0.000 C 
ATOM     19  C   UNL     1      -0.159  13.015  21.133  0.00  0.00    +0.000 C 
ATOM     20  N   UNL     1      -0.707  12.565  22.418  0.00  0.00    +0.000 N 
ATOM     21  C   UNL     1      -1.365  13.496  23.299  0.00  0.00    +0.000 C 
ATOM     22  C   UNL     1      -0.853  11.197  22.660  0.00  0.00    +0.000 C 
ATOM     23  O   UNL     1      -1.722  10.731  23.395  0.00  0.00    +0.000 OA
ATOM     24  C   UNL     1       0.294  10.338  22.119  0.00  0.00    +0.000 C 
ENDBRANCH  13  17
ENDBRANCH   7  11
BRANCH   1  28
ATOM     25  C   UNL     1       6.656   4.134  14.363  0.00  0.00    +0.000 C 
ATOM     26  C   UNL     1       6.114   4.248  15.762  0.00  0.00    +0.000 C 
ATOM     27  C   UNL     1       7.094   4.615  16.841  0.00  0.00    +0.000 C 
ATOM     28  C   UNL     1       4.807   4.016  15.992  0.00  0.00    +0.000 C 
ENDBRANCH   1  28
TORSDOF 3
ENDMDL
MODEL 2
REMARK VINA RESULT:      -8.4      3.164      4.896
REMARK  Name = 
REMARK  6 active torsions:
REMARK  status: ('A' for Active; 'I' for Inactive)
REMARK    1  A    between atoms: C_1  and  C_2
REMARK    2  A    between atoms: C_2  and  C_3
REMARK    3  A    between atoms: C_4  and  C_5
REMARK    4  A    between atoms: C_11  and  C_12
REMARK    5  A    between atoms: C_14  and  N_15
REMARK    6  A    between atoms: N_18  and  C_19
REMARK                            x       y       z     vdW  Elec       q    Type
REMARK                         _______ _______ _______ _____ _____    ______ ____
ROOT
ATOM      1  C   UNL     1       2.626   5.441  19.937  0.00  0.00    +0.000 A 
ATOM      2  C   UNL     1       3.494   5.201  18.867  0.00  0.00    +0.000 A 
ATOM      3  C   UNL     1       3.737   6.171  17.889  0.00  0.00    +0.000 A 
ATOM      4  C   UNL     1       3.061   7.386  18.019  0.00  0.00    +0.000 A 
ATOM      5  N   UNL     1       3.092   8.520  17.259  0.00  0.00    +0.000 N 
ATOM      6  N   UNL     1       2.272   9.486  17.684  0.00  0.00    +0.000 NA
ATOM      7  C   UNL     1       1.685   8.972  18.786  0.00  0.00    +0.000 A 
ATOM      8  C   UNL     1       2.163   7.652  19.046  0.00  0.00    +0.000 A 
ATOM      9  C   UNL     1       1.945   6.662  20.028  0.00  0.00    +0.000 A 
ATOM     10  H   UNL     1       3.656   8.696  16.434  0.00  0.00    +0.000 HD
ENDROOT
BRANCH   7  11
ATOM     11  C   UNL     1       0.715   9.744  19.559  0.00  0.00    +0.000 A 
ATOM     12  C   UNL     1      -0.440  10.190  18.943  0.00  0.00    +0.000 A 
ATOM     13  C   UNL     1      -1.286  10.994  19.665  0.00  0.00    +0.000 A 
ATOM     14  N   UNL     1      -1.015  11.324  20.936  0.00  0.00    +0.000 NA
ATOM     15  C   UNL     1       0.100  10.804  21.473  0.00  0.00    +0.000 A 
ATOM     16  N   UNL     1       0.991  10.029  20.844  0.00  0.00    +0.000 NA
BRANCH  13  17
ATOM     17  N   UNL     1      -2.391  11.522  19.041  0.00  0.00    +0.000 N 
ATOM     18  C   UNL     1      -2.486  11.567  17.590  0.00  0.00    +0.000 C 
ATOM     19  C   UNL     1      -3.936  11.187  17.247  0.00  0.00    +0.000 C 
ATOM     20  N   UNL     1      -4.891  12.051  17.951  0.00  0.00    +0.000 N 
ATOM     21  C   UNL     1      -6.130  12.436  17.324  0.00  0.00    +0.000 C 
ATOM     22  C   UNL     1      -4.741  12.265  19.323  0.00  0.00    +0.000 C 
ATOM     23  O   UNL     1      -5.685  12.494  20.078  0.00  0.00    +0.000 OA
ATOM     24  C   UNL     1      -3.286  12.415  19.779  0.00  0.00    +0.000 C 
ENDBRANCH  13  17
ENDBRANCH   7  11
BRANCH   1  28
ATOM     25  C   UNL     1       1.516   2.418  22.068  0.00  0.00    +0.000 C 
ATOM     26  C   UNL     1       1.613   3.372  20.909  0.00  0.00    +0.000 C 
ATOM     27  C   UNL     1       0.757   3.072  19.710  0.00  0.00    +0.000 C 
ATOM     28  C   UNL     1       2.446   4.428  20.983  0.00  0.00    +0.000 C 
ENDBRANCH   1  28
TORSDOF 3
ENDMDL
MODEL 3
REMARK VINA RESULT:      -8.3      2.627      4.566
REMARK  Name = 
REMARK  6 active torsions:
REMARK  status: ('A' for Active; 'I' for Inactive)
REMARK    1  A    between atoms: C_1  and  C_2
REMARK    2  A    between atoms: C_2  and  C_3
REMARK    3  A    between atoms: C_4  and  C_5
REMARK    4  A    between atoms: C_11  and  C_12
REMARK    5  A    between atoms: C_14  and  N_15
REMARK    6  A    between atoms: N_18  and  C_19
REMARK                            x       y       z     vdW  Elec       q    Type
REMARK                         _______ _______ _______ _____ _____    ______ ____
ROOT
ATOM      1  C   UNL     1       2.809   6.212  19.391  0.00  0.00    +0.000 A 
ATOM      2  C   UNL     1       3.208   6.456  18.073  0.00  0.00    +0.000 A 
ATOM      3  C   UNL     1       2.906   7.659  17.427  0.00  0.00    +0.000 A 
ATOM      4  C   UNL     1       2.172   8.600  18.150  0.00  0.00    +0.000 A 
ATOM      5  N   UNL     1       1.740   9.853  17.819  0.00  0.00    +0.000 N 
ATOM      6  N   UNL     1       1.026  10.456  18.776  0.00  0.00    +0.000 NA
ATOM      7  C   UNL     1       1.001   9.567  19.792  0.00  0.00    +0.000 A 
ATOM      8  C   UNL     1       1.724   8.384  19.448  0.00  0.00    +0.000 A 
ATOM      9  C   UNL     1       2.054   7.168  20.083  0.00  0.00    +0.000 A 
ATOM     10  H   UNL     1       1.901  10.354  16.952  0.00  0.00    +0.000 HD
ENDROOT
BRANCH   7  11
ATOM     11  C   UNL     1       0.317   9.867  21.047  0.00  0.00    +0.000 A 
ATOM     12  C   UNL     1      -0.651  10.855  21.070  0.00  0.00    +0.000 A 
ATOM     13  C   UNL     1      -1.208  11.183  22.281  0.00  0.00    +0.000 A 
ATOM     14  N   UNL     1      -0.842  10.555  23.407  0.00  0.00    +0.000 NA
ATOM     15  C   UNL     1       0.065   9.573  23.286  0.00  0.00    +0.000 A 
ATOM     16  N   UNL     1       0.674   9.196  22.156  0.00  0.00    +0.000 NA
BRANCH  13  17
ATOM     17  N   UNL     1      -2.104  12.224  22.337  0.00  0.00    +0.000 N 
ATOM     18  C   UNL     1      -1.841  13.481  21.654  0.00  0.00    +0.000 C 
ATOM     19  C   UNL     1      -3.179  13.916  21.033  0.00  0.00    +0.000 C 
ATOM     20  N   UNL     1      -4.238  13.979  22.047  0.00  0.00    +0.000 N 
ATOM     21  C   UNL     1      -5.269  14.982  21.966  0.00  0.00    +0.000 C 
ATOM     22  C   UNL     1      -4.417  12.904  22.920  0.00  0.00    +0.000 C 
ATOM     23  O   UNL     1      -5.506  12.606  23.410  0.00  0.00    +0.000 OA
ATOM     24  C   UNL     1      -3.112  12.259  23.398  0.00  0.00    +0.000 C 
ENDBRANCH  13  17
ENDBRANCH   7  11
BRANCH   1  28
ATOM     25  C   UNL     1       2.920   2.713  21.022  0.00  0.00    +0.000 C 
ATOM     26  C   UNL     1       2.387   3.923  20.304  0.00  0.00    +0.000 C 
ATOM     27  C   UNL     1       0.943   3.882  19.886  0.00  0.00    +0.000 C 
ATOM     28  C   UNL     1       3.202   4.969  20.063  0.00  0.00    +0.000 C 
ENDBRANCH   1  28
TORSDOF 3
ENDMDL
MODEL 4
REMARK VINA RESULT:      -8.2      3.156      5.708
REMARK  Name = 
REMARK  6 active torsions:
REMARK  status: ('A' for Active; 'I' for Inactive)
REMARK    1  A    between atoms: C_1  and  C_2
REMARK    2  A    between atoms: C_2  and  C_3
REMARK    3  A    between atoms: C_4  and  C_5
REMARK    4  A    between atoms: C_11  and  C_12
REMARK    5  A    between atoms: C_14  and  N_15
REMARK    6  A    between atoms: N_18  and  C_19
REMARK                            x       y       z     vdW  Elec       q    Type
REMARK                         _______ _______ _______ _____ _____    ______ ____
ROOT
ATOM      1  C   UNL     1       5.393   3.417  12.248  0.00  0.00    +0.000 A 
ATOM      2  C   UNL     1       6.646   3.812  11.769  0.00  0.00    +0.000 A 
ATOM      3  C   UNL     1       7.535   4.544  12.562  0.00  0.00    +0.000 A 
ATOM      4  C   UNL     1       7.110   4.880  13.849  0.00  0.00    +0.000 A 
ATOM      5  N   UNL     1       7.735   5.559  14.856  0.00  0.00    +0.000 N 
ATOM      6  N   UNL     1       6.989   5.715  15.954  0.00  0.00    +0.000 NA
ATOM      7  C   UNL     1       5.824   5.095  15.666  0.00  0.00    +0.000 A 
ATOM      8  C   UNL     1       5.860   4.539  14.351  0.00  0.00    +0.000 A 
ATOM      9  C   UNL     1       4.985   3.788  13.536  0.00  0.00    +0.000 A 
ATOM     10  H   UNL     1       8.673   5.941  14.854  0.00  0.00    +0.000 HD
ENDROOT
BRANCH   7  11
ATOM     11  C   UNL     1       4.736   5.033  16.637  0.00  0.00    +0.000 A 
ATOM     12  C   UNL     1       4.149   6.209  17.071  0.00  0.00    +0.000 A 
ATOM     13  C   UNL     1       3.195   6.129  18.055  0.00  0.00    +0.000 A 
ATOM     14  N   UNL     1       2.827   4.947  18.570  0.00  0.00    +0.000 NA
ATOM     15  C   UNL     1       3.409   3.853  18.054  0.00  0.00    +0.000 A 
ATOM     16  N   UNL     1       4.357   3.834  17.111  0.00  0.00    +0.000 NA
BRANCH  13  17
ATOM     17  N   UNL     1       2.668   7.292  18.562  0.00  0.00    +0.000 N 
ATOM     18  C   UNL     1       2.743   8.539  17.818  0.00  0.00    +0.000 C 
ATOM     19  C   UNL     1       1.381   9.229  18.008  0.00  0.00    +0.000 C 
ATOM     20  N   UNL     1       1.059   9.383  19.431  0.00  0.00    +0.000 N 
ATOM     21  C   UNL     1       0.340  10.541  19.898  0.00  0.00    +0.000 C 
ATOM     22  C   UNL     1       1.188   8.286  20.286  0.00  0.00    +0.000 C 
ATOM     23  O   UNL     1       0.497   8.130  21.293  0.00  0.00    +0.000 OA
ATOM     24  C   UNL     1       2.408   7.406  19.999  0.00  0.00    +0.000 C 
ENDBRANCH  13  17
ENDBRANCH   7  11
BRANCH   1  28
ATOM     25  C   UNL     1       2.733   2.093   9.781  0.00  0.00    +0.000 C 
ATOM     26  C   UNL     1       3.582   3.059  10.561  0.00  0.00    +0.000 C 
ATOM     27  C   UNL     1       3.337   4.523  10.323  0.00  0.00    +0.000 C 
ATOM     28  C   UNL     1       4.512   2.590  11.416  0.00  0.00    +0.000 C 
ENDBRANCH   1  28
TORSDOF 3
ENDMDL
MODEL 5
REMARK VINA RESULT:      -8.2      1.087      1.395
REMARK  Name = 
REMARK  6 active torsions:
REMARK  status: ('A' for Active; 'I' for Inactive)
REMARK    1  A    between atoms: C_1  and  C_2
REMARK    2  A    between atoms: C_2  and  C_3
REMARK    3  A    between atoms: C_4  and  C_5
REMARK    4  A    between atoms: C_11  and  C_12
REMARK    5  A    between atoms: C_14  and  N_15
REMARK    6  A    between atoms: N_18  and  C_19
REMARK                            x       y       z     vdW  Elec       q    Type
REMARK                         _______ _______ _______ _____ _____    ______ ____
ROOT
ATOM      1  C   UNL     1       4.283   4.289  17.276  0.00  0.00    +0.000 A 
ATOM      2  C   UNL     1       4.314   3.177  18.122  0.00  0.00    +0.000 A 
ATOM      3  C   UNL     1       3.682   3.188  19.370  0.00  0.00    +0.000 A 
ATOM      4  C   UNL     1       3.033   4.367  19.742  0.00  0.00    +0.000 A 
ATOM      5  N   UNL     1       2.321   4.689  20.862  0.00  0.00    +0.000 N 
ATOM      6  N   UNL     1       1.865   5.945  20.878  0.00  0.00    +0.000 NA
ATOM      7  C   UNL     1       2.278   6.472  19.705  0.00  0.00    +0.000 A 
ATOM      8  C   UNL     1       3.009   5.506  18.947  0.00  0.00    +0.000 A 
ATOM      9  C   UNL     1       3.641   5.465  17.686  0.00  0.00    +0.000 A 
ATOM     10  H   UNL     1       2.112   4.092  21.654  0.00  0.00    +0.000 HD
ENDROOT
BRANCH   7  11
ATOM     11  C   UNL     1       1.959   7.848  19.335  0.00  0.00    +0.000 A 
ATOM     12  C   UNL     1       1.119   8.589  20.147  0.00  0.00    +0.000 A 
ATOM     13  C   UNL     1       0.759   9.845  19.727  0.00  0.00    +0.000 A 
ATOM     14  N   UNL     1       1.220  10.350  18.574  0.00  0.00    +0.000 NA
ATOM     15  C   UNL     1       2.073   9.585  17.875  0.00  0.00    +0.000 A 
ATOM     16  N   UNL     1       2.465   8.347  18.194  0.00  0.00    +0.000 NA
BRANCH  13  17
ATOM     17  N   UNL     1      -0.147  10.559  20.474  0.00  0.00    +0.000 N 
ATOM     18  C   UNL     1      -0.614  10.067  21.762  0.00  0.00    +0.000 C 
ATOM     19  C   UNL     1      -0.667  11.292  22.690  0.00  0.00    +0.000 C 
ATOM     20  N   UNL     1      -1.486  12.362  22.109  0.00  0.00    +0.000 N 
ATOM     21  C   UNL     1      -2.288  13.211  22.953  0.00  0.00    +0.000 C 
ATOM     22  C   UNL     1      -1.272  12.748  20.783  0.00  0.00    +0.000 C 
ATOM     23  O   UNL     1      -1.480  13.888  20.370  0.00  0.00    +0.000 OA
ATOM     24  C   UNL     1      -0.971  11.585  19.832  0.00  0.00    +0.000 C 
ENDBRANCH  13  17
ENDBRANCH   7  11
BRANCH   1  28
ATOM     25  C   UNL     1       6.694   4.332  14.259  0.00  0.00    +0.000 C 
ATOM     26  C   UNL     1       6.203   4.415  15.678  0.00  0.00    +0.000 C 
ATOM     27  C   UNL     1       7.231   4.709  16.735  0.00  0.00    +0.000 C 
ATOM     28  C   UNL     1       4.896   4.221  15.944  0.00  0.00    +0.000 C 
ENDBRANCH   1  28
TORSDOF 3
ENDMDL
MODEL 6
REMARK VINA RESULT:      -8.0      2.730      4.664
REMARK  Name = 
REMARK  6 active torsions:
REMARK  status: ('A' for Active; 'I' for Inactive)
REMARK    1  A    between atoms: C_1  and  C_2
REMARK    2  A    between atoms: C_2  and  C_3
REMARK    3  A    between atoms: C_4  and  C_5
REMARK    4  A    between atoms: C_11  and  C_12
REMARK    5  A    between atoms: C_14  and  N_15
REMARK    6  A    between atoms: N_18  and  C_19
REMARK                            x       y       z     vdW  Elec       q    Type
REMARK                         _______ _______ _______ _____ _____    ______ ____
ROOT
ATOM      1  C   UNL     1       2.831   6.244  19.388  0.00  0.00    +0.000 A 
ATOM      2  C   UNL     1       3.249   6.489  18.076  0.00  0.00    +0.000 A 
ATOM      3  C   UNL     1       2.958   7.693  17.427  0.00  0.00    +0.000 A 
ATOM      4  C   UNL     1       2.217   8.636  18.142  0.00  0.00    +0.000 A 
ATOM      5  N   UNL     1       1.792   9.890  17.807  0.00  0.00    +0.000 N 
ATOM      6  N   UNL     1       1.067  10.493  18.755  0.00  0.00    +0.000 NA
ATOM      7  C   UNL     1       1.027   9.603  19.769  0.00  0.00    +0.000 A 
ATOM      8  C   UNL     1       1.752   8.419  19.433  0.00  0.00    +0.000 A 
ATOM      9  C   UNL     1       2.070   7.202  20.072  0.00  0.00    +0.000 A 
ATOM     10  H   UNL     1       1.966  10.392  16.943  0.00  0.00    +0.000 HD
ENDROOT
BRANCH   7  11
ATOM     11  C   UNL     1       0.327   9.903  21.016  0.00  0.00    +0.000 A 
ATOM     12  C   UNL     1      -0.640  10.892  21.027  0.00  0.00    +0.000 A 
ATOM     13  C   UNL     1      -1.213  11.220  22.231  0.00  0.00    +0.000 A 
ATOM     14  N   UNL     1      -0.861  10.591  23.361  0.00  0.00    +0.000 NA
ATOM     15  C   UNL     1       0.046   9.608  23.251  0.00  0.00    +0.000 A 
ATOM     16  N   UNL     1       0.669   9.232  22.129  0.00  0.00    +0.000 NA
BRANCH  13  17
ATOM     17  N   UNL     1      -2.108  12.262  22.276  0.00  0.00    +0.000 N 
ATOM     18  C   UNL     1      -3.122  12.338  23.316  0.00  0.00    +0.000 C 
ATOM     19  C   UNL     1      -3.187  13.815  23.738  0.00  0.00    +0.000 C 
ATOM     20  N   UNL     1      -3.428  14.687  22.582  0.00  0.00    +0.000 N 
ATOM     21  C   UNL     1      -4.230  15.877  22.717  0.00  0.00    +0.000 C 
ATOM     22  C   UNL     1      -2.653  14.529  21.431  0.00  0.00    +0.000 C 
ATOM     23  O   UNL     1      -2.390  15.454  20.662  0.00  0.00    +0.000 OA
ATOM     24  C   UNL     1      -2.342  13.071  21.078  0.00  0.00    +0.000 C 
ENDBRANCH  13  17
ENDBRANCH   7  11
BRANCH   1  28
ATOM     25  C   UNL     1       2.910   2.749  21.028  0.00  0.00    +0.000 C 
ATOM     26  C   UNL     1       2.388   3.961  20.306  0.00  0.00    +0.000 C 
ATOM     27  C   UNL     1       0.945   3.932  19.887  0.00  0.00    +0.000 C 
ATOM     28  C   UNL     1       3.213   4.999  20.064  0.00  0.00    +0.000 C 
ENDBRANCH   1  28
TORSDOF 3
ENDMDL
MODEL 7
REMARK VINA RESULT:      -8.0      2.181      4.017
REMARK  Name = 
REMARK  6 active torsions:
REMARK  status: ('A' for Active; 'I' for Inactive)
REMARK    1  A    between atoms: C_1  and  C_2
REMARK    2  A    between atoms: C_2  and  C_3
REMARK    3  A    between atoms: C_4  and  C_5
REMARK    4  A    between atoms: C_11  and  C_12
REMARK    5  A    between atoms: C_14  and  N_15
REMARK    6  A    between atoms: N_18  and  C_19
REMARK                            x       y       z     vdW  Elec       q    Type
REMARK                         _______ _______ _______ _____ _____    ______ ____
ROOT
ATOM      1  C   UNL     1       5.482   4.320  14.836  0.00  0.00    +0.000 A 
ATOM      2  C   UNL     1       6.879   4.274  14.769  0.00  0.00    +0.000 A 
ATOM      3  C   UNL     1       7.673   4.461  15.905  0.00  0.00    +0.000 A 
ATOM      4  C   UNL     1       7.010   4.714  17.108  0.00  0.00    +0.000 A 
ATOM      5  N   UNL     1       7.485   4.919  18.372  0.00  0.00    +0.000 N 
ATOM      6  N   UNL     1       6.534   5.165  19.279  0.00  0.00    +0.000 NA
ATOM      7  C   UNL     1       5.377   5.101  18.586  0.00  0.00    +0.000 A 
ATOM      8  C   UNL     1       5.627   4.805  17.211  0.00  0.00    +0.000 A 
ATOM      9  C   UNL     1       4.847   4.598  16.054  0.00  0.00    +0.000 A 
ATOM     10  H   UNL     1       8.450   4.903  18.680  0.00  0.00    +0.000 HD
ENDROOT
BRANCH   7  11
ATOM     11  C   UNL     1       4.088   5.304  19.240  0.00  0.00    +0.000 A 
ATOM     12  C   UNL     1       3.470   6.538  19.149  0.00  0.00    +0.000 A 
ATOM     13  C   UNL     1       2.307   6.731  19.853  0.00  0.00    +0.000 A 
ATOM     14  N   UNL     1       1.773   5.748  20.593  0.00  0.00    +0.000 NA
ATOM     15  C   UNL     1       2.409   4.567  20.582  0.00  0.00    +0.000 A 
ATOM     16  N   UNL     1       3.552   4.292  19.944  0.00  0.00    +0.000 NA
BRANCH  13  17
ATOM     17  N   UNL     1       1.729   7.978  19.849  0.00  0.00    +0.000 N 
ATOM     18  C   UNL     1       1.853   8.860  18.700  0.00  0.00    +0.000 C 
ATOM     19  C   UNL     1       0.474   9.517  18.518  0.00  0.00    +0.000 C 
ATOM     20  N   UNL     1       0.033  10.176  19.752  0.00  0.00    +0.000 N 
ATOM     21  C   UNL     1      -0.733  11.395  19.698  0.00  0.00    +0.000 C 
ATOM     22  C   UNL     1       0.101   9.482  20.963  0.00  0.00    +0.000 C 
ATOM     23  O   UNL     1      -0.669   9.684  21.901  0.00  0.00    +0.000 OA
ATOM     24  C   UNL     1       1.350   8.607  21.115  0.00  0.00    +0.000 C 
ENDBRANCH  13  17
ENDBRANCH   7  11
BRANCH   1  28
ATOM     25  C   UNL     1       4.217   3.392  11.308  0.00  0.00    +0.000 C 
ATOM     26  C   UNL     1       5.158   3.611  12.461  0.00  0.00    +0.000 C 
ATOM     27  C   UNL     1       6.611   3.310  12.217  0.00  0.00    +0.000 C 
ATOM     28  C   UNL     1       4.677   4.051  13.640  0.00  0.00    +0.000 C 
ENDBRANCH   1  28
TORSDOF 3
ENDMDL
MODEL 8
REMARK VINA RESULT:      -8.0      2.308      4.046
REMARK  Name = 
REMARK  6 active torsions:
REMARK  status: ('A' for Active; 'I' for Inactive)
REMARK    1  A    between atoms: C_1  and  C_2
REMARK    2  A    between atoms: C_2  and  C_3
REMARK    3  A    between atoms: C_4  and  C_5
REMARK    4  A    between atoms: C_11  and  C_12
REMARK    5  A    between atoms: C_14  and  N_15
REMARK    6  A    between atoms: N_18  and  C_19
REMARK                            x       y       z     vdW  Elec       q    Type
REMARK                         _______ _______ _______ _____ _____    ______ ____
ROOT
ATOM      1  C   UNL     1       5.545   4.261  15.194  0.00  0.00    +0.000 A 
ATOM      2  C   UNL     1       6.943   4.266  15.201  0.00  0.00    +0.000 A 
ATOM      3  C   UNL     1       7.669   4.530  16.367  0.00  0.00    +0.000 A 
ATOM      4  C   UNL     1       6.936   4.806  17.522  0.00  0.00    +0.000 A 
ATOM      5  N   UNL     1       7.336   5.080  18.799  0.00  0.00    +0.000 N 
ATOM      6  N   UNL     1       6.331   5.325  19.646  0.00  0.00    +0.000 NA
ATOM      7  C   UNL     1       5.215   5.188  18.897  0.00  0.00    +0.000 A 
ATOM      8  C   UNL     1       5.547   4.846  17.551  0.00  0.00    +0.000 A 
ATOM      9  C   UNL     1       4.837   4.562  16.365  0.00  0.00    +0.000 A 
ATOM     10  H   UNL     1       8.284   5.114  19.156  0.00  0.00    +0.000 HD
ENDROOT
BRANCH   7  11
ATOM     11  C   UNL     1       3.886   5.367  19.476  0.00  0.00    +0.000 A 
ATOM     12  C   UNL     1       3.284   6.611  19.417  0.00  0.00    +0.000 A 
ATOM     13  C   UNL     1       2.078   6.774  20.053  0.00  0.00    +0.000 A 
ATOM     14  N   UNL     1       1.490   5.757  20.698  0.00  0.00    +0.000 NA
ATOM     15  C   UNL     1       2.117   4.571  20.660  0.00  0.00    +0.000 A 
ATOM     16  N   UNL     1       3.298   4.321  20.084  0.00  0.00    +0.000 NA
BRANCH  13  17
ATOM     17  N   UNL     1       1.510   8.026  20.083  0.00  0.00    +0.000 N 
ATOM     18  C   UNL     1       0.661   8.440  21.189  0.00  0.00    +0.000 C 
ATOM     19  C   UNL     1       1.043   9.898  21.494  0.00  0.00    +0.000 C 
ATOM     20  N   UNL     1       0.939  10.736  20.294  0.00  0.00    +0.000 N 
ATOM     21  C   UNL     1       0.509  12.108  20.393  0.00  0.00    +0.000 C 
ATOM     22  C   UNL     1       1.525  10.303  19.102  0.00  0.00    +0.000 C 
ATOM     23  O   UNL     1       1.954  11.073  18.243  0.00  0.00    +0.000 OA
ATOM     24  C   UNL     1       1.391   8.799  18.845  0.00  0.00    +0.000 C 
ENDBRANCH  13  17
ENDBRANCH   7  11
BRANCH   1  28
ATOM     25  C   UNL     1       4.495   3.389  11.582  0.00  0.00    +0.000 C 
ATOM     26  C   UNL     1       5.370   3.729  12.757  0.00  0.00    +0.000 C 
ATOM     27  C   UNL     1       6.846   3.839  12.495  0.00  0.00    +0.000 C 
ATOM     28  C   UNL     1       4.814   3.911  13.971  0.00  0.00    +0.000 C 
ENDBRANCH   1  28
TORSDOF 3
ENDMDL
MODEL 9
REMARK VINA RESULT:      -8.0      3.378      8.314
REMARK  Name = 
REMARK  6 active torsions:
REMARK  status: ('A' for Active; 'I' for Inactive)
REMARK    1  A    between atoms: C_1  and  C_2
REMARK    2  A    between atoms: C_2  and  C_3
REMARK    3  A    between atoms: C_4  and  C_5
REMARK    4  A    between atoms: C_11  and  C_12
REMARK    5  A    between atoms: C_14  and  N_15
REMARK    6  A    between atoms: N_18  and  C_19
REMARK                            x       y       z     vdW  Elec       q    Type
REMARK                         _______ _______ _______ _____ _____    ______ ____
ROOT
ATOM      1  C   UNL     1      -0.784  10.392  18.430  0.00  0.00    +0.000 A 
ATOM      2  C   UNL     1      -0.951  11.453  19.326  0.00  0.00    +0.000 A 
ATOM      3  C   UNL     1      -0.368  11.437  20.597  0.00  0.00    +0.000 A 
ATOM      4  C   UNL     1       0.375  10.306  20.940  0.00  0.00    +0.000 A 
ATOM      5  N   UNL     1       1.071   9.995  22.074  0.00  0.00    +0.000 N 
ATOM      6  N   UNL     1       1.642   8.787  22.050  0.00  0.00    +0.000 NA
ATOM      7  C   UNL     1       1.324   8.284  20.837  0.00  0.00    +0.000 A 
ATOM      8  C   UNL     1       0.536   9.215  20.095  0.00  0.00    +0.000 A 
ATOM      9  C   UNL     1      -0.051   9.261  18.812  0.00  0.00    +0.000 A 
ATOM     10  H   UNL     1       1.193  10.568  22.901  0.00  0.00    +0.000 HD
ENDROOT
BRANCH   7  11
ATOM     11  C   UNL     1       1.785   6.963  20.418  0.00  0.00    +0.000 A 
ATOM     12  C   UNL     1       2.873   6.864  19.570  0.00  0.00    +0.000 A 
ATOM     13  C   UNL     1       3.224   5.617  19.115  0.00  0.00    +0.000 A 
ATOM     14  N   UNL     1       2.547   4.524  19.493  0.00  0.00    +0.000 NA
ATOM     15  C   UNL     1       1.539   4.705  20.360  0.00  0.00    +0.000 A 
ATOM     16  N   UNL     1       1.114   5.878  20.842  0.00  0.00    +0.000 NA
BRANCH  13  17
ATOM     17  N   UNL     1       4.244   5.510  18.200  0.00  0.00    +0.000 N 
ATOM     18  C   UNL     1       5.195   4.411  18.259  0.00  0.00    +0.000 C 
ATOM     19  C   UNL     1       5.428   3.972  16.803  0.00  0.00    +0.000 C 
ATOM     20  N   UNL     1       5.850   5.103  15.969  0.00  0.00    +0.000 N 
ATOM     21  C   UNL     1       6.791   4.910  14.896  0.00  0.00    +0.000 C 
ATOM     22  C   UNL     1       5.132   6.300  16.023  0.00  0.00    +0.000 C 
ATOM     23  O   UNL     1       5.039   7.075  15.071  0.00  0.00    +0.000 OA
ATOM     24  C   UNL     1       4.654   6.684  17.427  0.00  0.00    +0.000 C 
ENDBRANCH  13  17
ENDBRANCH   7  11
BRANCH   1  28
ATOM     25  C   UNL     1      -3.038  10.202  15.300  0.00  0.00    +0.000 C 
ATOM     26  C   UNL     1      -2.593  10.080  16.732  0.00  0.00    +0.000 C 
ATOM     27  C   UNL     1      -3.591   9.524  17.708  0.00  0.00    +0.000 C 
ATOM     28  C   UNL     1      -1.350  10.470  17.079  0.00  0.00    +0.000 C 
ENDBRANCH   1  28
TORSDOF 3
ENDMDL
