MODEL 1
REMARK VINA RESULT:      -9.2      0.000      0.000
REMARK  Name = 
REMARK  4 active torsions:
REMARK  status: ('A' for Active; 'I' for Inactive)
REMARK    1  A    between atoms: C_2  and  C_16
REMARK    2  A    between atoms: N_3  and  N_4
REMARK    3  A    between atoms: C_5  and  C_6
REMARK    4  A    between atoms: C_19  and  N_20
REMARK                            x       y       z     vdW  Elec       q    Type
REMARK                         _______ _______ _______ _____ _____    ______ ____
ROOT
ATOM      1  C   UNL     1       0.100  10.371  20.164  0.00  0.00    +0.000 A 
ATOM      2  C   UNL     1      -0.739  11.361  19.635  0.00  0.00    +0.000 A 
ATOM      3  C   UNL     1      -1.565  12.124  20.472  0.00  0.00    +0.000 A 
ATOM      4  C   UNL     1      -1.584  11.921  21.862  0.00  0.00    +0.000 A 
ATOM      5  C   UNL     1      -0.759  10.911  22.376  0.00  0.00    +0.000 A 
ATOM      6  C   UNL     1       0.084  10.148  21.549  0.00  0.00    +0.000 A 
ENDROOT
BRANCH   4   7
ATOM      7  N   UNL     1      -2.349  12.766  22.724  0.00  0.00    +0.000 N 
ATOM      8  C   UNL     1      -3.721  12.886  22.667  0.00  0.00    +0.000 C 
ATOM      9  O   UNL     1      -4.585  12.189  22.167  0.00  0.00    +0.000 OA
ATOM     10  C   UNL     1      -4.059  14.097  23.402  0.00  0.00    +0.000 A 
ATOM     11  C   UNL     1      -5.132  14.954  23.281  0.00  0.00    +0.000 A 
ATOM     12  C   UNL     1      -5.124  16.104  24.078  0.00  0.00    +0.000 A 
ATOM     13  C   UNL     1      -4.106  16.315  25.029  0.00  0.00    +0.000 A 
ATOM     14  C   UNL     1      -2.994  15.471  25.075  0.00  0.00    +0.000 A 
ATOM     15  C   UNL     1      -2.968  14.428  24.169  0.00  0.00    +0.000 A 
ATOM     16  C   UNL     1      -1.834  13.700  23.603  0.00  0.00    +0.000 C 
ATOM     17  O   UNL     1      -0.690  14.050  23.834  0.00  0.00    +0.000 OA
ENDBRANCH   4   7
BRANCH   1  19
ATOM     18  O   UNL     1       1.220  10.149  18.119  0.00  0.00    +0.000 OA
ATOM     19  C   UNL     1       1.042   9.667  19.237  0.00  0.00    +0.000 C 
ATOM     20  N   UNL     1       1.650   8.506  19.705  0.00  0.00    +0.000 N 
ATOM     21  H   UNL     1       1.377   8.096  20.580  0.00  0.00    +0.000 HD
BRANCH  20  22
ATOM     22  N   UNL     1       2.583   7.884  18.913  0.00  0.00    +0.000 NA
ATOM     23  C   UNL     1       2.488   6.591  18.830  0.00  0.00    +0.000 C 
BRANCH  23  24
ATOM     24  C   UNL     1       3.451   5.792  18.026  0.00  0.00    +0.000 A 
ATOM     25  C   UNL     1       3.105   4.470  17.600  0.00  0.00    +0.000 A 
ATOM     26  C   UNL     1       3.962   3.648  16.827  0.00  0.00    +0.000 A 
ATOM     27  C   UNL     1       5.197   4.243  16.493  0.00  0.00    +0.000 A 
ATOM     28  N   UNL     1       6.214   3.744  15.787  0.00  0.00    +0.000 NA
ATOM     29  O   UNL     1       7.203   4.722  15.752  0.00  0.00    +0.000 OA
ATOM     30  N   UNL     1       6.732   5.861  16.482  0.00  0.00    +0.000 N 
ATOM     31  O   UNL     1       7.502   6.843  16.562  0.00  0.00    +0.000 OA
ATOM     32  C   UNL     1       5.507   5.583  16.942  0.00  0.00    +0.000 A 
ATOM     33  C   UNL     1       4.679   6.410  17.709  0.00  0.00    +0.000 A 
ENDBRANCH  23  24
ENDBRANCH  20  22
ENDBRANCH   1  19
TORSDOF 4
ENDMDL
MODEL 2
REMARK VINA RESULT:      -8.9      8.780     10.642
REMARK  Name = 
REMARK  4 active torsions:
REMARK  status: ('A' for Active; 'I' for Inactive)
REMARK    1  A    between atoms: C_2  and  C_16
REMARK    2  A    between atoms: N_3  and  N_4
REMARK    3  A    between atoms: C_5  and  C_6
REMARK    4  A    between atoms: C_19  and  N_20
REMARK                            x       y       z     vdW  Elec       q    Type
REMARK                         _______ _______ _______ _____ _____    ______ ____
ROOT
ATOM      1  C   UNL     1       8.623   9.895  18.393  0.00  0.00    +0.000 A 
ATOM      2  C   UNL     1       8.192  10.908  17.527  0.00  0.00    +0.000 A 
ATOM      3  C   UNL     1       8.723  12.203  17.616  0.00  0.00    +0.000 A 
ATOM      4  C   UNL     1       9.697  12.528  18.574  0.00  0.00    +0.000 A 
ATOM      5  C   UNL     1      10.102  11.513  19.451  0.00  0.00    +0.000 A 
ATOM      6  C   UNL     1       9.587  10.207  19.363  0.00  0.00    +0.000 A 
ENDROOT
BRANCH   4   7
ATOM      7  N   UNL     1      10.310  13.819  18.599  0.00  0.00    +0.000 N 
ATOM      8  C   UNL     1       9.905  14.850  19.419  0.00  0.00    +0.000 C 
ATOM      9  O   UNL     1       9.227  14.875  20.431  0.00  0.00    +0.000 OA
ATOM     10  C   UNL     1      10.491  16.066  18.873  0.00  0.00    +0.000 A 
ATOM     11  C   UNL     1      10.075  17.378  18.948  0.00  0.00    +0.000 A 
ATOM     12  C   UNL     1      10.809  18.323  18.223  0.00  0.00    +0.000 A 
ATOM     13  C   UNL     1      11.979  17.951  17.531  0.00  0.00    +0.000 A 
ATOM     14  C   UNL     1      12.331  16.605  17.409  0.00  0.00    +0.000 A 
ATOM     15  C   UNL     1      11.496  15.686  18.017  0.00  0.00    +0.000 A 
ATOM     16  C   UNL     1      11.259  14.279  17.704  0.00  0.00    +0.000 C 
ATOM     17  O   UNL     1      11.759  13.765  16.720  0.00  0.00    +0.000 OA
ENDBRANCH   4   7
BRANCH   1  19
ATOM     18  O   UNL     1       8.593   7.598  18.848  0.00  0.00    +0.000 OA
ATOM     19  C   UNL     1       8.106   8.506  18.177  0.00  0.00    +0.000 C 
ATOM     20  N   UNL     1       7.109   8.339  17.221  0.00  0.00    +0.000 N 
ATOM     21  H   UNL     1       6.834   9.095  16.621  0.00  0.00    +0.000 HD
BRANCH  20  22
ATOM     22  N   UNL     1       6.553   7.094  17.058  0.00  0.00    +0.000 NA
ATOM     23  C   UNL     1       5.536   6.820  17.818  0.00  0.00    +0.000 C 
BRANCH  23  24
ATOM     24  C   UNL     1       4.857   5.498  17.759  0.00  0.00    +0.000 A 
ATOM     25  C   UNL     1       4.828   4.762  16.532  0.00  0.00    +0.000 A 
ATOM     26  C   UNL     1       4.209   3.495  16.394  0.00  0.00    +0.000 A 
ATOM     27  C   UNL     1       3.623   3.000  17.578  0.00  0.00    +0.000 A 
ATOM     28  N   UNL     1       2.969   1.854  17.786  0.00  0.00    +0.000 NA
ATOM     29  O   UNL     1       2.581   1.844  19.122  0.00  0.00    +0.000 OA
ATOM     30  N   UNL     1       3.038   3.057  19.730  0.00  0.00    +0.000 N 
ATOM     31  O   UNL     1       2.768   3.223  20.940  0.00  0.00    +0.000 OA
ATOM     32  C   UNL     1       3.676   3.775  18.799  0.00  0.00    +0.000 A 
ATOM     33  C   UNL     1       4.278   5.029  18.957  0.00  0.00    +0.000 A 
ENDBRANCH  23  24
ENDBRANCH  20  22
ENDBRANCH   1  19
TORSDOF 4
ENDMDL
MODEL 3
REMARK VINA RESULT:      -8.9      1.128      1.921
REMARK  Name = 
REMARK  4 active torsions:
REMARK  status: ('A' for Active; 'I' for Inactive)
REMARK    1  A    between atoms: C_2  and  C_16
REMARK    2  A    between atoms: N_3  and  N_4
REMARK    3  A    between atoms: C_5  and  C_6
REMARK    4  A    between atoms: C_19  and  N_20
REMARK                            x       y       z     vdW  Elec       q    Type
REMARK                         _______ _______ _______ _____ _____    ______ ____
ROOT
ATOM      1  C   UNL     1      -0.002  10.006  21.552  0.00  0.00    +0.000 A 
ATOM      2  C   UNL     1      -0.461  10.835  20.520  0.00  0.00    +0.000 A 
ATOM      3  C   UNL     1      -1.360  11.878  20.784  0.00  0.00    +0.000 A 
ATOM      4  C   UNL     1      -1.833  12.123  22.084  0.00  0.00    +0.000 A 
ATOM      5  C   UNL     1      -1.386  11.271  23.103  0.00  0.00    +0.000 A 
ATOM      6  C   UNL     1      -0.474  10.230  22.853  0.00  0.00    +0.000 A 
ENDROOT
BRANCH   4   7
ATOM      7  N   UNL     1      -2.669  13.246  22.368  0.00  0.00    +0.000 N 
ATOM      8  C   UNL     1      -2.203  14.458  22.829  0.00  0.00    +0.000 C 
ATOM      9  O   UNL     1      -1.095  14.964  22.829  0.00  0.00    +0.000 OA
ATOM     10  C   UNL     1      -3.357  15.169  23.361  0.00  0.00    +0.000 A 
ATOM     11  C   UNL     1      -3.447  16.137  24.339  0.00  0.00    +0.000 A 
ATOM     12  C   UNL     1      -4.730  16.561  24.702  0.00  0.00    +0.000 A 
ATOM     13  C   UNL     1      -5.867  16.081  24.022  0.00  0.00    +0.000 A 
ATOM     14  C   UNL     1      -5.751  15.046  23.091  0.00  0.00    +0.000 A 
ATOM     15  C   UNL     1      -4.481  14.551  22.867  0.00  0.00    +0.000 A 
ATOM     16  C   UNL     1      -4.052  13.236  22.396  0.00  0.00    +0.000 C 
ATOM     17  O   UNL     1      -4.858  12.338  22.234  0.00  0.00    +0.000 OA
ENDBRANCH   4   7
BRANCH   1  19
ATOM     18  O   UNL     1       1.620   8.432  22.167  0.00  0.00    +0.000 OA
ATOM     19  C   UNL     1       1.044   8.983  21.230  0.00  0.00    +0.000 C 
ATOM     20  N   UNL     1       1.298   8.731  19.886  0.00  0.00    +0.000 N 
ATOM     21  H   UNL     1       0.883   9.295  19.166  0.00  0.00    +0.000 HD
BRANCH  20  22
ATOM     22  N   UNL     1       2.189   7.740  19.556  0.00  0.00    +0.000 NA
ATOM     23  C   UNL     1       2.400   7.563  18.286  0.00  0.00    +0.000 C 
BRANCH  23  24
ATOM     24  C   UNL     1       3.323   6.506  17.793  0.00  0.00    +0.000 A 
ATOM     25  C   UNL     1       2.870   5.151  17.689  0.00  0.00    +0.000 A 
ATOM     26  C   UNL     1       3.683   4.088  17.224  0.00  0.00    +0.000 A 
ATOM     27  C   UNL     1       4.989   4.472  16.852  0.00  0.00    +0.000 A 
ATOM     28  N   UNL     1       5.990   3.725  16.382  0.00  0.00    +0.000 NA
ATOM     29  O   UNL     1       7.073   4.574  16.181  0.00  0.00    +0.000 OA
ATOM     30  N   UNL     1       6.677   5.899  16.557  0.00  0.00    +0.000 N 
ATOM     31  O   UNL     1       7.537   6.801  16.448  0.00  0.00    +0.000 OA
ATOM     32  C   UNL     1       5.406   5.852  16.971  0.00  0.00    +0.000 A 
ATOM     33  C   UNL     1       4.623   6.916  17.431  0.00  0.00    +0.000 A 
ENDBRANCH  23  24
ENDBRANCH  20  22
ENDBRANCH   1  19
TORSDOF 4
ENDMDL
MODEL 4
REMARK VINA RESULT:      -8.8      1.543      2.437
REMARK  Name = 
REMARK  4 active torsions:
REMARK  status: ('A' for Active; 'I' for Inactive)
REMARK    1  A    between atoms: C_2  and  C_16
REMARK    2  A    between atoms: N_3  and  N_4
REMARK    3  A    between atoms: C_5  and  C_6
REMARK    4  A    between atoms: C_19  and  N_20
REMARK                            x       y       z     vdW  Elec       q    Type
REMARK                         _______ _______ _______ _____ _____    ______ ____
ROOT
ATOM      1  C   UNL     1       0.347  11.023  19.286  0.00  0.00    +0.000 A 
ATOM      2  C   UNL     1      -0.049  10.563  20.549  0.00  0.00    +0.000 A 
ATOM      3  C   UNL     1      -1.157  11.121  21.202  0.00  0.00    +0.000 A 
ATOM      4  C   UNL     1      -1.903  12.158  20.617  0.00  0.00    +0.000 A 
ATOM      5  C   UNL     1      -1.482  12.627  19.364  0.00  0.00    +0.000 A 
ATOM      6  C   UNL     1      -0.381  12.066  18.694  0.00  0.00    +0.000 A 
ENDROOT
BRANCH   4   7
ATOM      7  N   UNL     1      -3.091  12.657  21.236  0.00  0.00    +0.000 N 
ATOM      8  C   UNL     1      -3.172  13.031  22.559  0.00  0.00    +0.000 C 
ATOM      9  O   UNL     1      -2.322  13.309  23.387  0.00  0.00    +0.000 OA
ATOM     10  C   UNL     1      -4.590  13.090  22.884  0.00  0.00    +0.000 A 
ATOM     11  C   UNL     1      -5.246  12.926  24.086  0.00  0.00    +0.000 A 
ATOM     12  C   UNL     1      -6.645  12.944  24.057  0.00  0.00    +0.000 A 
ATOM     13  C   UNL     1      -7.338  13.216  22.861  0.00  0.00    +0.000 A 
ATOM     14  C   UNL     1      -6.651  13.302  21.648  0.00  0.00    +0.000 A 
ATOM     15  C   UNL     1      -5.281  13.131  21.697  0.00  0.00    +0.000 A 
ATOM     16  C   UNL     1      -4.351  12.673  20.667  0.00  0.00    +0.000 C 
ATOM     17  O   UNL     1      -4.759  12.269  19.593  0.00  0.00    +0.000 OA
ENDBRANCH   4   7
BRANCH   1  19
ATOM     18  O   UNL     1       2.275  10.991  17.957  0.00  0.00    +0.000 OA
ATOM     19  C   UNL     1       1.466  10.313  18.589  0.00  0.00    +0.000 C 
ATOM     20  N   UNL     1       1.510   8.927  18.700  0.00  0.00    +0.000 N 
ATOM     21  H   UNL     1       0.758   8.418  19.128  0.00  0.00    +0.000 HD
BRANCH  20  22
ATOM     22  N   UNL     1       2.569   8.253  18.145  0.00  0.00    +0.000 NA
ATOM     23  C   UNL     1       2.516   6.957  18.209  0.00  0.00    +0.000 C 
BRANCH  23  24
ATOM     24  C   UNL     1       3.611   6.107  17.668  0.00  0.00    +0.000 A 
ATOM     25  C   UNL     1       3.378   4.718  17.410  0.00  0.00    +0.000 A 
ATOM     26  C   UNL     1       4.364   3.844  16.890  0.00  0.00    +0.000 A 
ATOM     27  C   UNL     1       5.609   4.456  16.630  0.00  0.00    +0.000 A 
ATOM     28  N   UNL     1       6.732   3.921  16.145  0.00  0.00    +0.000 NA
ATOM     29  O   UNL     1       7.677   4.941  16.088  0.00  0.00    +0.000 OA
ATOM     30  N   UNL     1       7.066   6.144  16.566  0.00  0.00    +0.000 N 
ATOM     31  O   UNL     1       7.778   7.172  16.593  0.00  0.00    +0.000 OA
ATOM     32  C   UNL     1       5.802   5.864  16.903  0.00  0.00    +0.000 A 
ATOM     33  C   UNL     1       4.844   6.744  17.420  0.00  0.00    +0.000 A 
ENDBRANCH  23  24
ENDBRANCH  20  22
ENDBRANCH   1  19
TORSDOF 4
ENDMDL
MODEL 5
REMARK VINA RESULT:      -8.8      1.064      1.357
REMARK  Name = 
REMARK  4 active torsions:
REMARK  status: ('A' for Active; 'I' for Inactive)
REMARK    1  A    between atoms: C_2  and  C_16
REMARK    2  A    between atoms: N_3  and  N_4
REMARK    3  A    between atoms: C_5  and  C_6
REMARK    4  A    between atoms: C_19  and  N_20
REMARK                            x       y       z     vdW  Elec       q    Type
REMARK                         _______ _______ _______ _____ _____    ______ ____
ROOT
ATOM      1  C   UNL     1       0.255   9.914  21.211  0.00  0.00    +0.000 A 
ATOM      2  C   UNL     1      -0.161   9.680  22.528  0.00  0.00    +0.000 A 
ATOM      3  C   UNL     1      -0.836  10.672  23.254  0.00  0.00    +0.000 A 
ATOM      4  C   UNL     1      -1.112  11.929  22.690  0.00  0.00    +0.000 A 
ATOM      5  C   UNL     1      -0.668  12.159  21.380  0.00  0.00    +0.000 A 
ATOM      6  C   UNL     1      -0.003  11.167  20.638  0.00  0.00    +0.000 A 
ENDROOT
BRANCH   4   7
ATOM      7  N   UNL     1      -1.887  12.902  23.393  0.00  0.00    +0.000 N 
ATOM      8  C   UNL     1      -3.245  12.802  23.603  0.00  0.00    +0.000 C 
ATOM      9  O   UNL     1      -4.017  11.861  23.546  0.00  0.00    +0.000 OA
ATOM     10  C   UNL     1      -3.703  14.131  23.981  0.00  0.00    +0.000 A 
ATOM     11  C   UNL     1      -4.935  14.734  23.839  0.00  0.00    +0.000 A 
ATOM     12  C   UNL     1      -5.037  16.077  24.217  0.00  0.00    +0.000 A 
ATOM     13  C   UNL     1      -3.945  16.744  24.809  0.00  0.00    +0.000 A 
ATOM     14  C   UNL     1      -2.691  16.132  24.870  0.00  0.00    +0.000 A 
ATOM     15  C   UNL     1      -2.595  14.856  24.350  0.00  0.00    +0.000 A 
ATOM     16  C   UNL     1      -1.441  14.145  23.803  0.00  0.00    +0.000 C 
ATOM     17  O   UNL     1      -0.372  14.710  23.658  0.00  0.00    +0.000 OA
ENDBRANCH   4   7
BRANCH   1  19
ATOM     18  O   UNL     1       0.921   7.679  20.993  0.00  0.00    +0.000 OA
ATOM     19  C   UNL     1       0.869   8.780  20.448  0.00  0.00    +0.000 C 
ATOM     20  N   UNL     1       1.346   9.056  19.170  0.00  0.00    +0.000 N 
ATOM     21  H   UNL     1       1.384   9.997  18.823  0.00  0.00    +0.000 HD
BRANCH  20  22
ATOM     22  N   UNL     1       1.836   8.022  18.411  0.00  0.00    +0.000 NA
ATOM     23  C   UNL     1       2.982   7.536  18.783  0.00  0.00    +0.000 C 
BRANCH  23  24
ATOM     24  C   UNL     1       3.636   6.430  18.032  0.00  0.00    +0.000 A 
ATOM     25  C   UNL     1       2.968   5.173  17.882  0.00  0.00    +0.000 A 
ATOM     26  C   UNL     1       3.518   4.074  17.178  0.00  0.00    +0.000 A 
ATOM     27  C   UNL     1       4.789   4.318  16.616  0.00  0.00    +0.000 A 
ATOM     28  N   UNL     1       5.572   3.505  15.904  0.00  0.00    +0.000 NA
ATOM     29  O   UNL     1       6.726   4.217  15.594  0.00  0.00    +0.000 OA
ATOM     30  N   UNL     1       6.608   5.527  16.160  0.00  0.00    +0.000 N 
ATOM     31  O   UNL     1       7.568   6.311  15.986  0.00  0.00    +0.000 OA
ATOM     32  C   UNL     1       5.430   5.604  16.790  0.00  0.00    +0.000 A 
ATOM     33  C   UNL     1       4.907   6.701  17.484  0.00  0.00    +0.000 A 
ENDBRANCH  23  24
ENDBRANCH  20  22
ENDBRANCH   1  19
TORSDOF 4
ENDMDL
MODEL 6
REMARK VINA RESULT:      -8.7      8.185     10.331
REMARK  Name = 
REMARK  4 active torsions:
REMARK  status: ('A' for Active; 'I' for Inactive)
REMARK    1  A    between atoms: C_2  and  C_16
REMARK    2  A    between atoms: N_3  and  N_4
REMARK    3  A    between atoms: C_5  and  C_6
REMARK    4  A    between atoms: C_19  and  N_20
REMARK                            x       y       z     vdW  Elec       q    Type
REMARK                         _______ _______ _______ _____ _____    ______ ____
ROOT
ATOM      1  C   UNL     1       8.694   9.917  18.241  0.00  0.00    +0.000 A 
ATOM      2  C   UNL     1       9.673  10.150  19.215  0.00  0.00    +0.000 A 
ATOM      3  C   UNL     1      10.156  11.444  19.452  0.00  0.00    +0.000 A 
ATOM      4  C   UNL     1       9.681  12.547  18.722  0.00  0.00    +0.000 A 
ATOM      5  C   UNL     1       8.719  12.298  17.733  0.00  0.00    +0.000 A 
ATOM      6  C   UNL     1       8.217  11.006  17.495  0.00  0.00    +0.000 A 
ENDROOT
BRANCH   4   7
ATOM      7  N   UNL     1      10.099  13.877  19.033  0.00  0.00    +0.000 N 
ATOM      8  C   UNL     1       9.456  14.697  19.935  0.00  0.00    +0.000 C 
ATOM      9  O   UNL     1       8.663  14.468  20.831  0.00  0.00    +0.000 OA
ATOM     10  C   UNL     1       9.928  16.049  19.673  0.00  0.00    +0.000 A 
ATOM     11  C   UNL     1       9.326  17.271  19.888  0.00  0.00    +0.000 A 
ATOM     12  C   UNL     1      10.004  18.406  19.431  0.00  0.00    +0.000 A 
ATOM     13  C   UNL     1      11.290  18.299  18.865  0.00  0.00    +0.000 A 
ATOM     14  C   UNL     1      11.840  17.045  18.590  0.00  0.00    +0.000 A 
ATOM     15  C   UNL     1      11.074  15.944  18.922  0.00  0.00    +0.000 A 
ATOM     16  C   UNL     1      11.076  14.592  18.366  0.00  0.00    +0.000 C 
ATOM     17  O   UNL     1      11.760  14.317  17.396  0.00  0.00    +0.000 OA
ENDBRANCH   4   7
BRANCH   1  19
ATOM     18  O   UNL     1       8.563   7.664  18.868  0.00  0.00    +0.000 OA
ATOM     19  C   UNL     1       8.134   8.534  18.111  0.00  0.00    +0.000 C 
ATOM     20  N   UNL     1       7.168   8.327  17.132  0.00  0.00    +0.000 N 
ATOM     21  H   UNL     1       6.942   9.043  16.466  0.00  0.00    +0.000 HD
BRANCH  20  22
ATOM     22  N   UNL     1       6.573   7.092  17.042  0.00  0.00    +0.000 NA
ATOM     23  C   UNL     1       5.354   7.014  17.484  0.00  0.00    +0.000 C 
BRANCH  23  24
ATOM     24  C   UNL     1       4.604   5.729  17.468  0.00  0.00    +0.000 A 
ATOM     25  C   UNL     1       4.990   4.686  16.567  0.00  0.00    +0.000 A 
ATOM     26  C   UNL     1       4.333   3.433  16.493  0.00  0.00    +0.000 A 
ATOM     27  C   UNL     1       3.260   3.283  17.398  0.00  0.00    +0.000 A 
ATOM     28  N   UNL     1       2.445   2.241  17.581  0.00  0.00    +0.000 NA
ATOM     29  O   UNL     1       1.548   2.597  18.582  0.00  0.00    +0.000 OA
ATOM     30  N   UNL     1       1.860   3.928  19.010  0.00  0.00    +0.000 N 
ATOM     31  O   UNL     1       1.142   4.419  19.909  0.00  0.00    +0.000 OA
ATOM     32  C   UNL     1       2.903   4.361  18.294  0.00  0.00    +0.000 A 
ATOM     33  C   UNL     1       3.535   5.607  18.380  0.00  0.00    +0.000 A 
ENDBRANCH  23  24
ENDBRANCH  20  22
ENDBRANCH   1  19
TORSDOF 4
ENDMDL
MODEL 7
REMARK VINA RESULT:      -8.6      1.118      1.166
REMARK  Name = 
REMARK  4 active torsions:
REMARK  status: ('A' for Active; 'I' for Inactive)
REMARK    1  A    between atoms: C_2  and  C_16
REMARK    2  A    between atoms: N_3  and  N_4
REMARK    3  A    between atoms: C_5  and  C_6
REMARK    4  A    between atoms: C_19  and  N_20
REMARK                            x       y       z     vdW  Elec       q    Type
REMARK                         _______ _______ _______ _____ _____    ______ ____
ROOT
ATOM      1  C   UNL     1       0.128  10.589  19.774  0.00  0.00    +0.000 A 
ATOM      2  C   UNL     1      -1.063  11.086  19.231  0.00  0.00    +0.000 A 
ATOM      3  C   UNL     1      -1.926  11.880  19.999  0.00  0.00    +0.000 A 
ATOM      4  C   UNL     1      -1.629  12.201  21.334  0.00  0.00    +0.000 A 
ATOM      5  C   UNL     1      -0.446  11.678  21.874  0.00  0.00    +0.000 A 
ATOM      6  C   UNL     1       0.434  10.891  21.110  0.00  0.00    +0.000 A 
ENDROOT
BRANCH   4   7
ATOM      7  N   UNL     1      -2.457  13.093  22.083  0.00  0.00    +0.000 N 
ATOM      8  C   UNL     1      -3.329  12.689  23.071  0.00  0.00    +0.000 C 
ATOM      9  O   UNL     1      -3.414  11.662  23.721  0.00  0.00    +0.000 OA
ATOM     10  C   UNL     1      -4.241  13.801  23.295  0.00  0.00    +0.000 A 
ATOM     11  C   UNL     1      -5.540  13.822  23.760  0.00  0.00    +0.000 A 
ATOM     12  C   UNL     1      -6.195  15.058  23.770  0.00  0.00    +0.000 A 
ATOM     13  C   UNL     1      -5.513  16.238  23.411  0.00  0.00    +0.000 A 
ATOM     14  C   UNL     1      -4.226  16.177  22.872  0.00  0.00    +0.000 A 
ATOM     15  C   UNL     1      -3.667  14.920  22.740  0.00  0.00    +0.000 A 
ATOM     16  C   UNL     1      -2.638  14.438  21.821  0.00  0.00    +0.000 C 
ATOM     17  O   UNL     1      -2.207  15.155  20.936  0.00  0.00    +0.000 OA
ENDBRANCH   4   7
BRANCH   1  19
ATOM     18  O   UNL     1       1.272  10.300  17.751  0.00  0.00    +0.000 OA
ATOM     19  C   UNL     1       1.064   9.842  18.874  0.00  0.00    +0.000 C 
ATOM     20  N   UNL     1       1.630   8.673  19.371  0.00  0.00    +0.000 N 
ATOM     21  H   UNL     1       1.333   8.285  20.248  0.00  0.00    +0.000 HD
BRANCH  20  22
ATOM     22  N   UNL     1       2.557   8.010  18.604  0.00  0.00    +0.000 NA
ATOM     23  C   UNL     1       2.560   6.715  18.708  0.00  0.00    +0.000 C 
BRANCH  23  24
ATOM     24  C   UNL     1       3.530   5.879  17.951  0.00  0.00    +0.000 A 
ATOM     25  C   UNL     1       3.179   4.544  17.569  0.00  0.00    +0.000 A 
ATOM     26  C   UNL     1       4.042   3.687  16.843  0.00  0.00    +0.000 A 
ATOM     27  C   UNL     1       5.287   4.259  16.508  0.00  0.00    +0.000 A 
ATOM     28  N   UNL     1       6.312   3.726  15.838  0.00  0.00    +0.000 NA
ATOM     29  O   UNL     1       7.310   4.693  15.783  0.00  0.00    +0.000 OA
ATOM     30  N   UNL     1       6.836   5.863  16.461  0.00  0.00    +0.000 N 
ATOM     31  O   UNL     1       7.614   6.841  16.517  0.00  0.00    +0.000 OA
ATOM     32  C   UNL     1       5.602   5.612  16.911  0.00  0.00    +0.000 A 
ATOM     33  C   UNL     1       4.768   6.475  17.632  0.00  0.00    +0.000 A 
ENDBRANCH  23  24
ENDBRANCH  20  22
ENDBRANCH   1  19
TORSDOF 4
ENDMDL
MODEL 8
REMARK VINA RESULT:      -8.4      1.459      2.051
REMARK  Name = 
REMARK  4 active torsions:
REMARK  status: ('A' for Active; 'I' for Inactive)
REMARK    1  A    between atoms: C_2  and  C_16
REMARK    2  A    between atoms: N_3  and  N_4
REMARK    3  A    between atoms: C_5  and  C_6
REMARK    4  A    between atoms: C_19  and  N_20
REMARK                            x       y       z     vdW  Elec       q    Type
REMARK                         _______ _______ _______ _____ _____    ______ ____
ROOT
ATOM      1  C   UNL     1      -0.356  10.753  21.810  0.00  0.00    +0.000 A 
ATOM      2  C   UNL     1      -0.973  10.678  23.065  0.00  0.00    +0.000 A 
ATOM      3  C   UNL     1      -2.049  11.517  23.387  0.00  0.00    +0.000 A 
ATOM      4  C   UNL     1      -2.541  12.459  22.469  0.00  0.00    +0.000 A 
ATOM      5  C   UNL     1      -1.899  12.542  21.225  0.00  0.00    +0.000 A 
ATOM      6  C   UNL     1      -0.828  11.696  20.886  0.00  0.00    +0.000 A 
ENDROOT
BRANCH   4   7
ATOM      7  N   UNL     1      -3.700  13.243  22.759  0.00  0.00    +0.000 N 
ATOM      8  C   UNL     1      -4.932  13.045  22.175  0.00  0.00    +0.000 C 
ATOM      9  O   UNL     1      -5.412  12.099  21.575  0.00  0.00    +0.000 OA
ATOM     10  C   UNL     1      -5.704  14.254  22.421  0.00  0.00    +0.000 A 
ATOM     11  C   UNL     1      -6.744  14.818  21.712  0.00  0.00    +0.000 A 
ATOM     12  C   UNL     1      -7.221  16.057  22.156  0.00  0.00    +0.000 A 
ATOM     13  C   UNL     1      -6.718  16.643  23.334  0.00  0.00    +0.000 A 
ATOM     14  C   UNL     1      -5.615  16.087  23.987  0.00  0.00    +0.000 A 
ATOM     15  C   UNL     1      -5.077  14.941  23.432  0.00  0.00    +0.000 A 
ATOM     16  C   UNL     1      -3.722  14.401  23.515  0.00  0.00    +0.000 C 
ATOM     17  O   UNL     1      -2.832  15.029  24.059  0.00  0.00    +0.000 OA
ENDBRANCH   4   7
BRANCH   1  19
ATOM     18  O   UNL     1       1.482   9.418  22.380  0.00  0.00    +0.000 OA
ATOM     19  C   UNL     1       0.712   9.755  21.482  0.00  0.00    +0.000 C 
ATOM     20  N   UNL     1       0.763   9.282  20.175  0.00  0.00    +0.000 N 
ATOM     21  H   UNL     1       0.186   9.680  19.456  0.00  0.00    +0.000 HD
BRANCH  20  22
ATOM     22  N   UNL     1       1.675   8.304  19.861  0.00  0.00    +0.000 NA
ATOM     23  C   UNL     1       1.809   8.034  18.598  0.00  0.00    +0.000 C 
BRANCH  23  24
ATOM     24  C   UNL     1       2.744   6.979  18.125  0.00  0.00    +0.000 A 
ATOM     25  C   UNL     1       2.326   5.610  18.102  0.00  0.00    +0.000 A 
ATOM     26  C   UNL     1       3.153   4.547  17.660  0.00  0.00    +0.000 A 
ATOM     27  C   UNL     1       4.435   4.947  17.226  0.00  0.00    +0.000 A 
ATOM     28  N   UNL     1       5.441   4.204  16.758  0.00  0.00    +0.000 NA
ATOM     29  O   UNL     1       6.492   5.072  16.480  0.00  0.00    +0.000 OA
ATOM     30  N   UNL     1       6.072   6.402  16.805  0.00  0.00    +0.000 N 
ATOM     31  O   UNL     1       6.902   7.320  16.623  0.00  0.00    +0.000 OA
ATOM     32  C   UNL     1       4.817   6.342  17.264  0.00  0.00    +0.000 A 
ATOM     33  C   UNL     1       4.020   7.406  17.699  0.00  0.00    +0.000 A 
ENDBRANCH  23  24
ENDBRANCH  20  22
ENDBRANCH   1  19
TORSDOF 4
ENDMDL
MODEL 9
REMARK VINA RESULT:      -8.4      8.442     10.317
REMARK  Name = 
REMARK  4 active torsions:
REMARK  status: ('A' for Active; 'I' for Inactive)
REMARK    1  A    between atoms: C_2  and  C_16
REMARK    2  A    between atoms: N_3  and  N_4
REMARK    3  A    between atoms: C_5  and  C_6
REMARK    4  A    between atoms: C_19  and  N_20
REMARK                            x       y       z     vdW  Elec       q    Type
REMARK                         _______ _______ _______ _____ _____    ______ ____
ROOT
ATOM      1  C   UNL     1       8.596   9.740  18.307  0.00  0.00    +0.000 A 
ATOM      2  C   UNL     1       9.441  10.018  19.390  0.00  0.00    +0.000 A 
ATOM      3  C   UNL     1       9.876  11.327  19.643  0.00  0.00    +0.000 A 
ATOM      4  C   UNL     1       9.486  12.398  18.822  0.00  0.00    +0.000 A 
ATOM      5  C   UNL     1       8.661  12.103  17.727  0.00  0.00    +0.000 A 
ATOM      6  C   UNL     1       8.207  10.797  17.471  0.00  0.00    +0.000 A 
ENDROOT
BRANCH   4   7
ATOM      7  N   UNL     1       9.846  13.744  19.138  0.00  0.00    +0.000 N 
ATOM      8  C   UNL     1      11.001  14.356  18.701  0.00  0.00    +0.000 C 
ATOM      9  O   UNL     1      11.779  14.093  17.802  0.00  0.00    +0.000 OA
ATOM     10  C   UNL     1      11.187  15.531  19.540  0.00  0.00    +0.000 A 
ATOM     11  C   UNL     1      12.332  16.211  19.897  0.00  0.00    +0.000 A 
ATOM     12  C   UNL     1      12.193  17.261  20.812  0.00  0.00    +0.000 A 
ATOM     13  C   UNL     1      10.919  17.659  21.264  0.00  0.00    +0.000 A 
ATOM     14  C   UNL     1       9.787  16.904  20.946  0.00  0.00    +0.000 A 
ATOM     15  C   UNL     1       9.987  15.786  20.159  0.00  0.00    +0.000 A 
ATOM     16  C   UNL     1       9.202  14.558  20.051  0.00  0.00    +0.000 C 
ATOM     17  O   UNL     1       8.257  14.354  20.791  0.00  0.00    +0.000 OA
ENDBRANCH   4   7
BRANCH   1  19
ATOM     18  O   UNL     1       8.570   7.462  18.851  0.00  0.00    +0.000 OA
ATOM     19  C   UNL     1       8.073   8.345  18.153  0.00  0.00    +0.000 C 
ATOM     20  N   UNL     1       7.059   8.143  17.222  0.00  0.00    +0.000 N 
ATOM     21  H   UNL     1       6.776   8.876  16.598  0.00  0.00    +0.000 HD
BRANCH  20  22
ATOM     22  N   UNL     1       6.498   6.894  17.116  0.00  0.00    +0.000 NA
ATOM     23  C   UNL     1       5.344   6.738  17.691  0.00  0.00    +0.000 C 
BRANCH  23  24
ATOM     24  C   UNL     1       4.640   5.428  17.673  0.00  0.00    +0.000 A 
ATOM     25  C   UNL     1       4.794   4.547  16.556  0.00  0.00    +0.000 A 
ATOM     26  C   UNL     1       4.164   3.281  16.464  0.00  0.00    +0.000 A 
ATOM     27  C   UNL     1       3.369   2.943  17.580  0.00  0.00    +0.000 A 
ATOM     28  N   UNL     1       2.650   1.841  17.806  0.00  0.00    +0.000 NA
ATOM     29  O   UNL     1       2.040   2.000  19.046  0.00  0.00    +0.000 OA
ATOM     30  N   UNL     1       2.429   3.272  19.576  0.00  0.00    +0.000 N 
ATOM     31  O   UNL     1       1.964   3.589  20.693  0.00  0.00    +0.000 OA
ATOM     32  C   UNL     1       3.240   3.862  18.690  0.00  0.00    +0.000 A 
ATOM     33  C   UNL     1       3.850   5.117  18.800  0.00  0.00    +0.000 A 
ENDBRANCH  23  24
ENDBRANCH  20  22
ENDBRANCH   1  19
TORSDOF 4
ENDMDL
