MODEL 1
REMARK VINA RESULT:      -6.9      0.000      0.000
REMARK  Name = 
REMARK  3 active torsions:
REMARK  status: ('A' for Active; 'I' for Inactive)
REMARK    1  A    between atoms: N_3  and  C_4
REMARK    2  A    between atoms: N_10  and  C_11
REMARK    3  A    between atoms: C_14  and  O_15
REMARK                            x       y       z     vdW  Elec       q    Type
REMARK                         _______ _______ _______ _____ _____    ______ ____
ROOT
ATOM      1  O   UNL     1       2.804   6.651  17.917  0.00  0.00    +0.000 OA
ATOM      2  C   UNL     1       3.419   5.605  18.065  0.00  0.00    +0.000 C 
ATOM      3  N   UNL     1       2.949   4.524  18.779  0.00  0.00    +0.000 N 
ATOM      4  N   UNL     1       4.641   5.333  17.494  0.00  0.00    +0.000 N 
ATOM      5  H   UNL     1       3.642   3.904  19.171  0.00  0.00    +0.000 HD
ATOM      6  H   UNL     1       5.111   4.526  17.874  0.00  0.00    +0.000 HD
ENDROOT
BRANCH   3   7
ATOM      7  C   UNL     1       1.616   4.492  19.385  0.00  0.00    +0.000 C 
ATOM      8  C   UNL     1       0.967   3.112  19.188  0.00  0.00    +0.000 C 
ATOM      9  C   UNL     1       1.591   2.031  20.069  0.00  0.00    +0.000 C 
ATOM     10  C   UNL     1       1.544   2.417  21.541  0.00  0.00    +0.000 C 
ATOM     11  C   UNL     1       2.175   3.784  21.795  0.00  0.00    +0.000 C 
ATOM     12  C   UNL     1       1.632   4.878  20.871  0.00  0.00    +0.000 C 
ENDBRANCH   3   7
BRANCH   4  13
ATOM     13  C   UNL     1       5.491   6.337  16.848  0.00  0.00    +0.000 C 
ATOM     14  C   UNL     1       6.972   5.988  17.060  0.00  0.00    +0.000 C 
ATOM     15  C   UNL     1       7.365   4.707  16.322  0.00  0.00    +0.000 C 
ATOM     16  C   UNL     1       7.053   4.752  14.826  0.00  0.00    +0.000 C 
ATOM     17  C   UNL     1       5.693   5.356  14.471  0.00  0.00    +0.000 C 
ATOM     18  C   UNL     1       5.252   6.535  15.344  0.00  0.00    +0.000 C 
BRANCH  16  19
ATOM     19  O   UNL     1       8.096   5.454  14.154  0.00  0.00    +0.000 OA
ATOM     20  H   UNL     1       8.416   4.905  13.425  0.00  0.00    +0.000 HD
ENDBRANCH  16  19
ENDBRANCH   4  13
TORSDOF 3
ENDMDL
MODEL 2
REMARK VINA RESULT:      -6.6      2.246      6.637
REMARK  Name = 
REMARK  3 active torsions:
REMARK  status: ('A' for Active; 'I' for Inactive)
REMARK    1  A    between atoms: N_3  and  C_4
REMARK    2  A    between atoms: N_10  and  C_11
REMARK    3  A    between atoms: C_14  and  O_15
REMARK                            x       y       z     vdW  Elec       q    Type
REMARK                         _______ _______ _______ _____ _____    ______ ____
ROOT
ATOM      1  O   UNL     1       4.588   2.872  17.148  0.00  0.00    +0.000 OA
ATOM      2  C   UNL     1       4.241   3.946  17.615  0.00  0.00    +0.000 C 
ATOM      3  N   UNL     1       5.005   5.092  17.575  0.00  0.00    +0.000 N 
ATOM      4  N   UNL     1       3.015   4.184  18.193  0.00  0.00    +0.000 N 
ATOM      5  H   UNL     1       4.832   5.778  18.295  0.00  0.00    +0.000 HD
ATOM      6  H   UNL     1       2.956   5.046  18.713  0.00  0.00    +0.000 HD
ENDROOT
BRANCH   3   7
ATOM      7  C   UNL     1       6.303   5.157  16.900  0.00  0.00    +0.000 C 
ATOM      8  C   UNL     1       6.560   6.574  16.360  0.00  0.00    +0.000 C 
ATOM      9  C   UNL     1       6.879   7.582  17.463  0.00  0.00    +0.000 C 
ATOM     10  C   UNL     1       8.065   7.129  18.303  0.00  0.00    +0.000 C 
ATOM     11  C   UNL     1       7.866   5.723  18.865  0.00  0.00    +0.000 C 
ATOM     12  C   UNL     1       7.461   4.701  17.798  0.00  0.00    +0.000 C 
ENDBRANCH   3   7
BRANCH   4  13
ATOM     13  C   UNL     1       2.061   3.134  18.565  0.00  0.00    +0.000 C 
ATOM     14  C   UNL     1       2.747   2.093  19.460  0.00  0.00    +0.000 C 
ATOM     15  C   UNL     1       3.132   2.677  20.821  0.00  0.00    +0.000 C 
ATOM     16  C   UNL     1       1.952   3.302  21.565  0.00  0.00    +0.000 C 
ATOM     17  C   UNL     1       1.019   4.148  20.696  0.00  0.00    +0.000 C 
ATOM     18  C   UNL     1       0.789   3.620  19.276  0.00  0.00    +0.000 C 
BRANCH  16  19
ATOM     19  O   UNL     1       1.217   2.271  22.220  0.00  0.00    +0.000 OA
ATOM     20  H   UNL     1       0.713   1.783  21.555  0.00  0.00    +0.000 HD
ENDBRANCH  16  19
ENDBRANCH   4  13
TORSDOF 3
ENDMDL
MODEL 3
REMARK VINA RESULT:      -6.4      1.730      6.707
REMARK  Name = 
REMARK  3 active torsions:
REMARK  status: ('A' for Active; 'I' for Inactive)
REMARK    1  A    between atoms: N_3  and  C_4
REMARK    2  A    between atoms: N_10  and  C_11
REMARK    3  A    between atoms: C_14  and  O_15
REMARK                            x       y       z     vdW  Elec       q    Type
REMARK                         _______ _______ _______ _____ _____    ______ ____
ROOT
ATOM      1  O   UNL     1       3.100   6.576  18.625  0.00  0.00    +0.000 OA
ATOM      2  C   UNL     1       3.208   5.497  18.062  0.00  0.00    +0.000 C 
ATOM      3  N   UNL     1       4.119   5.234  17.062  0.00  0.00    +0.000 N 
ATOM      4  N   UNL     1       2.480   4.374  18.382  0.00  0.00    +0.000 N 
ATOM      5  H   UNL     1       3.880   4.498  16.414  0.00  0.00    +0.000 HD
ATOM      6  H   UNL     1       2.530   3.633  17.701  0.00  0.00    +0.000 HD
ENDROOT
BRANCH   3   7
ATOM      7  C   UNL     1       5.110   6.213  16.613  0.00  0.00    +0.000 C 
ATOM      8  C   UNL     1       6.434   6.028  17.372  0.00  0.00    +0.000 C 
ATOM      9  C   UNL     1       7.202   4.782  16.935  0.00  0.00    +0.000 C 
ATOM     10  C   UNL     1       7.465   4.789  15.435  0.00  0.00    +0.000 C 
ATOM     11  C   UNL     1       6.182   4.973  14.629  0.00  0.00    +0.000 C 
ATOM     12  C   UNL     1       5.344   6.166  15.096  0.00  0.00    +0.000 C 
ENDBRANCH   3   7
BRANCH   4  13
ATOM     13  C   UNL     1       1.303   4.377  19.256  0.00  0.00    +0.000 C 
ATOM     14  C   UNL     1       0.770   2.947  19.425  0.00  0.00    +0.000 C 
ATOM     15  C   UNL     1       1.748   2.063  20.201  0.00  0.00    +0.000 C 
ATOM     16  C   UNL     1       2.128   2.638  21.566  0.00  0.00    +0.000 C 
ATOM     17  C   UNL     1       2.410   4.142  21.574  0.00  0.00    +0.000 C 
ATOM     18  C   UNL     1       1.519   4.980  20.652  0.00  0.00    +0.000 C 
BRANCH  16  19
ATOM     19  O   UNL     1       1.103   2.322  22.506  0.00  0.00    +0.000 OA
ATOM     20  H   UNL     1       1.519   2.006  23.319  0.00  0.00    +0.000 HD
ENDBRANCH  16  19
ENDBRANCH   4  13
TORSDOF 3
ENDMDL
MODEL 4
REMARK VINA RESULT:      -6.0      1.796      6.462
REMARK  Name = 
REMARK  3 active torsions:
REMARK  status: ('A' for Active; 'I' for Inactive)
REMARK    1  A    between atoms: N_3  and  C_4
REMARK    2  A    between atoms: N_10  and  C_11
REMARK    3  A    between atoms: C_14  and  O_15
REMARK                            x       y       z     vdW  Elec       q    Type
REMARK                         _______ _______ _______ _____ _____    ______ ____
ROOT
ATOM      1  O   UNL     1       3.275   6.875  18.461  0.00  0.00    +0.000 OA
ATOM      2  C   UNL     1       3.994   5.983  18.886  0.00  0.00    +0.000 C 
ATOM      3  N   UNL     1       5.254   5.707  18.401  0.00  0.00    +0.000 N 
ATOM      4  N   UNL     1       3.677   5.166  19.946  0.00  0.00    +0.000 N 
ATOM      5  H   UNL     1       5.588   4.762  18.519  0.00  0.00    +0.000 HD
ATOM      6  H   UNL     1       4.268   4.355  20.042  0.00  0.00    +0.000 HD
ENDROOT
BRANCH   3   7
ATOM      7  C   UNL     1       5.896   6.509  17.358  0.00  0.00    +0.000 C 
ATOM      8  C   UNL     1       7.382   6.137  17.229  0.00  0.00    +0.000 C 
ATOM      9  C   UNL     1       7.599   4.776  16.569  0.00  0.00    +0.000 C 
ATOM     10  C   UNL     1       6.931   4.707  15.203  0.00  0.00    +0.000 C 
ATOM     11  C   UNL     1       5.450   5.070  15.271  0.00  0.00    +0.000 C 
ATOM     12  C   UNL     1       5.187   6.391  16.001  0.00  0.00    +0.000 C 
ENDBRANCH   3   7
BRANCH   4  13
ATOM     13  C   UNL     1       2.342   5.072  20.545  0.00  0.00    +0.000 C 
ATOM     14  C   UNL     1       1.271   5.072  19.445  0.00  0.00    +0.000 C 
ATOM     15  C   UNL     1       1.332   3.804  18.591  0.00  0.00    +0.000 C 
ATOM     16  C   UNL     1       1.231   2.519  19.412  0.00  0.00    +0.000 C 
ATOM     17  C   UNL     1       2.051   2.514  20.704  0.00  0.00    +0.000 C 
ATOM     18  C   UNL     1       2.108   3.852  21.448  0.00  0.00    +0.000 C 
BRANCH  16  19
ATOM     19  O   UNL     1      -0.141   2.255  19.697  0.00  0.00    +0.000 OA
ATOM     20  H   UNL     1      -0.407   1.461  19.215  0.00  0.00    +0.000 HD
ENDBRANCH  16  19
ENDBRANCH   4  13
TORSDOF 3
ENDMDL
MODEL 5
REMARK VINA RESULT:      -6.0      4.230      6.367
REMARK  Name = 
REMARK  3 active torsions:
REMARK  status: ('A' for Active; 'I' for Inactive)
REMARK    1  A    between atoms: N_3  and  C_4
REMARK    2  A    between atoms: N_10  and  C_11
REMARK    3  A    between atoms: C_14  and  O_15
REMARK                            x       y       z     vdW  Elec       q    Type
REMARK                         _______ _______ _______ _____ _____    ______ ____
ROOT
ATOM      1  O   UNL     1       2.929   7.884  18.149  0.00  0.00    +0.000 OA
ATOM      2  C   UNL     1       2.181   7.750  19.106  0.00  0.00    +0.000 C 
ATOM      3  N   UNL     1       1.355   8.742  19.589  0.00  0.00    +0.000 N 
ATOM      4  N   UNL     1       2.011   6.575  19.803  0.00  0.00    +0.000 N 
ATOM      5  H   UNL     1       1.098   8.682  20.563  0.00  0.00    +0.000 HD
ATOM      6  H   UNL     1       1.529   6.676  20.683  0.00  0.00    +0.000 HD
ENDROOT
BRANCH   3   7
ATOM      7  C   UNL     1       1.237  10.055  18.954  0.00  0.00    +0.000 C 
ATOM      8  C   UNL     1       0.054  10.075  17.972  0.00  0.00    +0.000 C 
ATOM      9  C   UNL     1      -1.302  10.092  18.675  0.00  0.00    +0.000 C 
ATOM     10  C   UNL     1      -1.414  11.266  19.639  0.00  0.00    +0.000 C 
ATOM     11  C   UNL     1      -0.261  11.297  20.638  0.00  0.00    +0.000 C 
ATOM     12  C   UNL     1       1.115  11.197  19.973  0.00  0.00    +0.000 C 
ENDBRANCH   3   7
BRANCH   4  13
ATOM     13  C   UNL     1       2.881   5.403  19.667  0.00  0.00    +0.000 C 
ATOM     14  C   UNL     1       2.493   4.337  20.702  0.00  0.00    +0.000 C 
ATOM     15  C   UNL     1       1.109   3.749  20.422  0.00  0.00    +0.000 C 
ATOM     16  C   UNL     1       0.972   3.174  19.012  0.00  0.00    +0.000 C 
ATOM     17  C   UNL     1       1.588   4.033  17.905  0.00  0.00    +0.000 C 
ATOM     18  C   UNL     1       2.891   4.746  18.278  0.00  0.00    +0.000 C 
BRANCH  16  19
ATOM     19  O   UNL     1       1.530   1.862  18.988  0.00  0.00    +0.000 OA
ATOM     20  H   UNL     1       0.867   1.241  19.316  0.00  0.00    +0.000 HD
ENDBRANCH  16  19
ENDBRANCH   4  13
TORSDOF 3
ENDMDL
MODEL 6
REMARK VINA RESULT:      -6.0      1.858      2.626
REMARK  Name = 
REMARK  3 active torsions:
REMARK  status: ('A' for Active; 'I' for Inactive)
REMARK    1  A    between atoms: N_3  and  C_4
REMARK    2  A    between atoms: N_10  and  C_11
REMARK    3  A    between atoms: C_14  and  O_15
REMARK                            x       y       z     vdW  Elec       q    Type
REMARK                         _______ _______ _______ _____ _____    ______ ____
ROOT
ATOM      1  O   UNL     1       4.442   2.503  17.022  0.00  0.00    +0.000 OA
ATOM      2  C   UNL     1       3.793   3.509  17.263  0.00  0.00    +0.000 C 
ATOM      3  N   UNL     1       2.618   3.519  17.984  0.00  0.00    +0.000 N 
ATOM      4  N   UNL     1       4.168   4.783  16.903  0.00  0.00    +0.000 N 
ATOM      5  H   UNL     1       1.978   4.276  17.796  0.00  0.00    +0.000 HD
ATOM      6  H   UNL     1       3.438   5.474  16.984  0.00  0.00    +0.000 HD
ENDROOT
BRANCH   3   7
ATOM      7  C   UNL     1       2.056   2.316  18.601  0.00  0.00    +0.000 C 
ATOM      8  C   UNL     1       2.981   1.799  19.714  0.00  0.00    +0.000 C 
ATOM      9  C   UNL     1       2.952   2.674  20.966  0.00  0.00    +0.000 C 
ATOM     10  C   UNL     1       1.536   2.829  21.504  0.00  0.00    +0.000 C 
ATOM     11  C   UNL     1       0.571   3.339  20.437  0.00  0.00    +0.000 C 
ATOM     12  C   UNL     1       0.633   2.535  19.135  0.00  0.00    +0.000 C 
ENDBRANCH   3   7
BRANCH   4  13
ATOM     13  C   UNL     1       5.252   5.089  15.965  0.00  0.00    +0.000 C 
ATOM     14  C   UNL     1       5.302   6.599  15.693  0.00  0.00    +0.000 C 
ATOM     15  C   UNL     1       5.716   7.389  16.936  0.00  0.00    +0.000 C 
ATOM     16  C   UNL     1       7.047   6.926  17.528  0.00  0.00    +0.000 C 
ATOM     17  C   UNL     1       7.232   5.408  17.588  0.00  0.00    +0.000 C 
ATOM     18  C   UNL     1       6.652   4.631  16.402  0.00  0.00    +0.000 C 
BRANCH  16  19
ATOM     19  O   UNL     1       8.115   7.525  16.798  0.00  0.00    +0.000 OA
ATOM     20  H   UNL     1       8.262   7.011  15.992  0.00  0.00    +0.000 HD
ENDBRANCH  16  19
ENDBRANCH   4  13
TORSDOF 3
ENDMDL
MODEL 7
REMARK VINA RESULT:      -5.9      1.935      2.851
REMARK  Name = 
REMARK  3 active torsions:
REMARK  status: ('A' for Active; 'I' for Inactive)
REMARK    1  A    between atoms: N_3  and  C_4
REMARK    2  A    between atoms: N_10  and  C_11
REMARK    3  A    between atoms: C_14  and  O_15
REMARK                            x       y       z     vdW  Elec       q    Type
REMARK                         _______ _______ _______ _____ _____    ______ ____
ROOT
ATOM      1  O   UNL     1       4.406   3.724  16.308  0.00  0.00    +0.000 OA
ATOM      2  C   UNL     1       4.700   3.665  17.493  0.00  0.00    +0.000 C 
ATOM      3  N   UNL     1       3.811   3.345  18.497  0.00  0.00    +0.000 N 
ATOM      4  N   UNL     1       5.969   3.851  17.990  0.00  0.00    +0.000 N 
ATOM      5  H   UNL     1       4.023   3.698  19.418  0.00  0.00    +0.000 HD
ATOM      6  H   UNL     1       6.014   3.979  18.989  0.00  0.00    +0.000 HD
ENDROOT
BRANCH   3   7
ATOM      7  C   UNL     1       2.420   2.971  18.236  0.00  0.00    +0.000 C 
ATOM      8  C   UNL     1       1.961   1.882  19.219  0.00  0.00    +0.000 C 
ATOM      9  C   UNL     1       1.742   2.414  20.635  0.00  0.00    +0.000 C 
ATOM     10  C   UNL     1       0.751   3.570  20.648  0.00  0.00    +0.000 C 
ATOM     11  C   UNL     1       1.157   4.682  19.685  0.00  0.00    +0.000 C 
ATOM     12  C   UNL     1       1.467   4.173  18.273  0.00  0.00    +0.000 C 
ENDBRANCH   3   7
BRANCH   4  13
ATOM     13  C   UNL     1       7.087   4.396  17.214  0.00  0.00    +0.000 C 
ATOM     14  C   UNL     1       6.578   5.466  16.237  0.00  0.00    +0.000 C 
ATOM     15  C   UNL     1       6.058   6.704  16.970  0.00  0.00    +0.000 C 
ATOM     16  C   UNL     1       7.086   7.318  17.920  0.00  0.00    +0.000 C 
ATOM     17  C   UNL     1       7.873   6.308  18.758  0.00  0.00    +0.000 C 
ATOM     18  C   UNL     1       8.231   5.002  18.041  0.00  0.00    +0.000 C 
BRANCH  16  19
ATOM     19  O   UNL     1       7.979   8.141  17.172  0.00  0.00    +0.000 OA
ATOM     20  H   UNL     1       7.641   8.219  16.270  0.00  0.00    +0.000 HD
ENDBRANCH  16  19
ENDBRANCH   4  13
TORSDOF 3
ENDMDL
MODEL 8
REMARK VINA RESULT:      -5.9      1.626      2.271
REMARK  Name = 
REMARK  3 active torsions:
REMARK  status: ('A' for Active; 'I' for Inactive)
REMARK    1  A    between atoms: N_3  and  C_4
REMARK    2  A    between atoms: N_10  and  C_11
REMARK    3  A    between atoms: C_14  and  O_15
REMARK                            x       y       z     vdW  Elec       q    Type
REMARK                         _______ _______ _______ _____ _____    ______ ____
ROOT
ATOM      1  O   UNL     1       5.892   3.618  19.442  0.00  0.00    +0.000 OA
ATOM      2  C   UNL     1       5.046   4.456  19.167  0.00  0.00    +0.000 C 
ATOM      3  N   UNL     1       3.718   4.361  19.521  0.00  0.00    +0.000 N 
ATOM      4  N   UNL     1       5.306   5.641  18.518  0.00  0.00    +0.000 N 
ATOM      5  H   UNL     1       3.058   4.856  18.940  0.00  0.00    +0.000 HD
ATOM      6  H   UNL     1       4.488   6.123  18.180  0.00  0.00    +0.000 HD
ENDROOT
BRANCH   3   7
ATOM      7  C   UNL     1       3.189   3.263  20.333  0.00  0.00    +0.000 C 
ATOM      8  C   UNL     1       1.974   3.732  21.149  0.00  0.00    +0.000 C 
ATOM      9  C   UNL     1       0.726   3.939  20.293  0.00  0.00    +0.000 C 
ATOM     10  C   UNL     1       0.369   2.679  19.516  0.00  0.00    +0.000 C 
ATOM     11  C   UNL     1       1.543   2.165  18.687  0.00  0.00    +0.000 C 
ATOM     12  C   UNL     1       2.836   2.025  19.496  0.00  0.00    +0.000 C 
ENDBRANCH   3   7
BRANCH   4  13
ATOM     13  C   UNL     1       6.569   5.950  17.840  0.00  0.00    +0.000 C 
ATOM     14  C   UNL     1       7.143   4.681  17.193  0.00  0.00    +0.000 C 
ATOM     15  C   UNL     1       6.269   4.185  16.039  0.00  0.00    +0.000 C 
ATOM     16  C   UNL     1       6.024   5.247  14.968  0.00  0.00    +0.000 C 
ATOM     17  C   UNL     1       5.717   6.646  15.506  0.00  0.00    +0.000 C 
ATOM     18  C   UNL     1       6.490   7.046  16.766  0.00  0.00    +0.000 C 
BRANCH  16  19
ATOM     19  O   UNL     1       7.148   5.291  14.091  0.00  0.00    +0.000 OA
ATOM     20  H   UNL     1       6.922   4.820  13.278  0.00  0.00    +0.000 HD
ENDBRANCH  16  19
ENDBRANCH   4  13
TORSDOF 3
ENDMDL
MODEL 9
REMARK VINA RESULT:      -5.9      1.648      2.448
REMARK  Name = 
REMARK  3 active torsions:
REMARK  status: ('A' for Active; 'I' for Inactive)
REMARK    1  A    between atoms: N_3  and  C_4
REMARK    2  A    between atoms: N_10  and  C_11
REMARK    3  A    between atoms: C_14  and  O_15
REMARK                            x       y       z     vdW  Elec       q    Type
REMARK                         _______ _______ _______ _____ _____    ______ ____
ROOT
ATOM      1  O   UNL     1       2.568   3.522  16.537  0.00  0.00    +0.000 OA
ATOM      2  C   UNL     1       3.453   3.253  17.336  0.00  0.00    +0.000 C 
ATOM      3  N   UNL     1       3.240   2.631  18.547  0.00  0.00    +0.000 N 
ATOM      4  N   UNL     1       4.793   3.476  17.118  0.00  0.00    +0.000 N 
ATOM      5  H   UNL     1       3.920   2.807  19.272  0.00  0.00    +0.000 HD
ATOM      6  H   UNL     1       5.370   3.398  17.940  0.00  0.00    +0.000 HD
ENDROOT
BRANCH   3   7
ATOM      7  C   UNL     1       1.922   2.162  18.978  0.00  0.00    +0.000 C 
ATOM      8  C   UNL     1       2.031   1.388  20.302  0.00  0.00    +0.000 C 
ATOM      9  C   UNL     1       2.299   2.296  21.501  0.00  0.00    +0.000 C 
ATOM     10  C   UNL     1       1.239   3.382  21.625  0.00  0.00    +0.000 C 
ATOM     11  C   UNL     1       1.086   4.183  20.334  0.00  0.00    +0.000 C 
ATOM     12  C   UNL     1       0.898   3.300  19.097  0.00  0.00    +0.000 C 
ENDBRANCH   3   7
BRANCH   4  13
ATOM     13  C   UNL     1       5.325   4.295  16.024  0.00  0.00    +0.000 C 
ATOM     14  C   UNL     1       4.986   5.774  16.262  0.00  0.00    +0.000 C 
ATOM     15  C   UNL     1       5.723   6.339  17.478  0.00  0.00    +0.000 C 
ATOM     16  C   UNL     1       7.239   6.161  17.400  0.00  0.00    +0.000 C 
ATOM     17  C   UNL     1       7.702   4.794  16.894  0.00  0.00    +0.000 C 
ATOM     18  C   UNL     1       6.838   4.178  15.788  0.00  0.00    +0.000 C 
BRANCH  16  19
ATOM     19  O   UNL     1       7.789   7.199  16.591  0.00  0.00    +0.000 OA
ATOM     20  H   UNL     1       8.480   7.648  17.096  0.00  0.00    +0.000 HD
ENDBRANCH  16  19
ENDBRANCH   4  13
TORSDOF 3
ENDMDL
