MODEL 1
REMARK VINA RESULT:      -8.0      0.000      0.000
REMARK  Name = 
REMARK  4 active torsions:
REMARK  status: ('A' for Active; 'I' for Inactive)
REMARK    1  A    between atoms: C_5  and  C_6
REMARK    2  A    between atoms: C_10  and  N_11
REMARK    3  A    between atoms: N_11  and  C_12
REMARK    4  A    between atoms: C_12  and  C_13
REMARK                            x       y       z     vdW  Elec       q    Type
REMARK                         _______ _______ _______ _____ _____    ______ ____
ROOT
ATOM      1  C   UNL     1       5.373   5.976  17.862  0.00  0.00    +0.000 C 
ATOM      2  C   UNL     1       6.326   6.940  17.166  0.00  0.00    +0.000 C 
ATOM      3  O   UNL     1       7.325   6.169  16.490  0.00  0.00    +0.000 OA
ATOM      4  C   UNL     1       7.005   4.777  16.613  0.00  0.00    +0.000 C 
ATOM      5  C   UNL     1       5.550   4.674  17.072  0.00  0.00    +0.000 C 
ENDROOT
BRANCH   1  10
ATOM      6  F   UNL     1       1.145   9.039  19.658  0.00  0.00    +0.000 F 
ATOM      7  C   UNL     1       1.967   8.133  19.119  0.00  0.00    +0.000 A 
ATOM      8  C   UNL     1       2.304   6.996  19.834  0.00  0.00    +0.000 A 
ATOM      9  C   UNL     1       3.286   6.149  19.328  0.00  0.00    +0.000 A 
ATOM     10  C   UNL     1       3.973   6.483  18.148  0.00  0.00    +0.000 A 
ATOM     11  C   UNL     1       3.470   7.528  17.356  0.00  0.00    +0.000 A 
ATOM     12  C   UNL     1       2.466   8.355  17.845  0.00  0.00    +0.000 A 
ENDBRANCH   1  10
BRANCH   5  13
ATOM     13  N   UNL     1       5.222   3.395  17.736  0.00  0.00    +0.000 NA
ATOM     14  H   UNL     1       5.951   2.707  17.559  0.00  0.00    +0.000 HD
BRANCH  13  15
ATOM     15  C   UNL     1       3.948   2.797  17.334  0.00  0.00    +0.000 C 
BRANCH  15  16
ATOM     16  C   UNL     1       2.949   2.834  18.461  0.00  0.00    +0.000 A 
ATOM     17  C   UNL     1       1.594   3.119  18.208  0.00  0.00    +0.000 A 
ATOM     18  C   UNL     1       0.682   3.203  19.258  0.00  0.00    +0.000 A 
ATOM     19  C   UNL     1       1.111   2.991  20.569  0.00  0.00    +0.000 A 
ATOM     20  C   UNL     1       2.441   2.675  20.814  0.00  0.00    +0.000 A 
ATOM     21  F   UNL     1       2.854   2.489  22.073  0.00  0.00    +0.000 F 
ATOM     22  C   UNL     1       3.364   2.596  19.775  0.00  0.00    +0.000 A 
ENDBRANCH  15  16
ENDBRANCH  13  15
ENDBRANCH   5  13
TORSDOF 4
ENDMDL
MODEL 2
REMARK VINA RESULT:      -7.5      2.895      4.394
REMARK  Name = 
REMARK  4 active torsions:
REMARK  status: ('A' for Active; 'I' for Inactive)
REMARK    1  A    between atoms: C_5  and  C_6
REMARK    2  A    between atoms: C_10  and  N_11
REMARK    3  A    between atoms: N_11  and  C_12
REMARK    4  A    between atoms: C_12  and  C_13
REMARK                            x       y       z     vdW  Elec       q    Type
REMARK                         _______ _______ _______ _____ _____    ______ ____
ROOT
ATOM      1  C   UNL     1       6.645   5.977  17.122  0.00  0.00    +0.000 C 
ATOM      2  C   UNL     1       7.609   7.142  17.320  0.00  0.00    +0.000 C 
ATOM      3  O   UNL     1       8.173   7.035  18.630  0.00  0.00    +0.000 OA
ATOM      4  C   UNL     1       7.722   5.817  19.238  0.00  0.00    +0.000 C 
ATOM      5  C   UNL     1       7.140   4.935  18.132  0.00  0.00    +0.000 C 
ENDROOT
BRANCH   1  10
ATOM      6  F   UNL     1       6.024   2.925  12.564  0.00  0.00    +0.000 F 
ATOM      7  C   UNL     1       6.102   3.876  13.500  0.00  0.00    +0.000 A 
ATOM      8  C   UNL     1       7.270   4.604  13.648  0.00  0.00    +0.000 A 
ATOM      9  C   UNL     1       7.390   5.471  14.730  0.00  0.00    +0.000 A 
ATOM     10  C   UNL     1       6.370   5.551  15.693  0.00  0.00    +0.000 A 
ATOM     11  C   UNL     1       5.131   4.955  15.404  0.00  0.00    +0.000 A 
ATOM     12  C   UNL     1       5.000   4.114  14.306  0.00  0.00    +0.000 A 
ENDBRANCH   1  10
BRANCH   5  13
ATOM     13  N   UNL     1       6.187   3.916  18.619  0.00  0.00    +0.000 NA
ATOM     14  H   UNL     1       5.785   3.405  17.836  0.00  0.00    +0.000 HD
BRANCH  13  15
ATOM     15  C   UNL     1       5.079   4.437  19.419  0.00  0.00    +0.000 C 
BRANCH  15  16
ATOM     16  C   UNL     1       3.825   3.628  19.205  0.00  0.00    +0.000 A 
ATOM     17  C   UNL     1       3.615   2.940  17.994  0.00  0.00    +0.000 A 
ATOM     18  C   UNL     1       2.432   2.236  17.779  0.00  0.00    +0.000 A 
ATOM     19  C   UNL     1       1.454   2.202  18.774  0.00  0.00    +0.000 A 
ATOM     20  C   UNL     1       1.677   2.852  19.981  0.00  0.00    +0.000 A 
ATOM     21  F   UNL     1       0.730   2.832  20.926  0.00  0.00    +0.000 F 
ATOM     22  C   UNL     1       2.851   3.565  20.206  0.00  0.00    +0.000 A 
ENDBRANCH  15  16
ENDBRANCH  13  15
ENDBRANCH   5  13
TORSDOF 4
ENDMDL
MODEL 3
REMARK VINA RESULT:      -7.5      0.941      1.408
REMARK  Name = 
REMARK  4 active torsions:
REMARK  status: ('A' for Active; 'I' for Inactive)
REMARK    1  A    between atoms: C_5  and  C_6
REMARK    2  A    between atoms: C_10  and  N_11
REMARK    3  A    between atoms: N_11  and  C_12
REMARK    4  A    between atoms: C_12  and  C_13
REMARK                            x       y       z     vdW  Elec       q    Type
REMARK                         _______ _______ _______ _____ _____    ______ ____
ROOT
ATOM      1  C   UNL     1       5.420   6.068  17.867  0.00  0.00    +0.000 C 
ATOM      2  C   UNL     1       6.334   7.028  17.113  0.00  0.00    +0.000 C 
ATOM      3  O   UNL     1       7.354   6.258  16.469  0.00  0.00    +0.000 OA
ATOM      4  C   UNL     1       7.084   4.863  16.666  0.00  0.00    +0.000 C 
ATOM      5  C   UNL     1       5.637   4.734  17.143  0.00  0.00    +0.000 C 
ENDROOT
BRANCH   1  10
ATOM      6  F   UNL     1       1.100   9.021  19.626  0.00  0.00    +0.000 F 
ATOM      7  C   UNL     1       1.950   8.138  19.093  0.00  0.00    +0.000 A 
ATOM      8  C   UNL     1       2.304   7.005  19.806  0.00  0.00    +0.000 A 
ATOM      9  C   UNL     1       3.312   6.185  19.308  0.00  0.00    +0.000 A 
ATOM     10  C   UNL     1       4.005   6.541  18.138  0.00  0.00    +0.000 A 
ATOM     11  C   UNL     1       3.486   7.577  17.345  0.00  0.00    +0.000 A 
ATOM     12  C   UNL     1       2.458   8.378  17.826  0.00  0.00    +0.000 A 
ENDBRANCH   1  10
BRANCH   5  13
ATOM     13  N   UNL     1       5.358   3.481  17.874  0.00  0.00    +0.000 NA
ATOM     14  H   UNL     1       6.078   2.788  17.677  0.00  0.00    +0.000 HD
BRANCH  13  15
ATOM     15  C   UNL     1       4.065   2.864  17.577  0.00  0.00    +0.000 C 
BRANCH  15  16
ATOM     16  C   UNL     1       3.179   2.842  18.796  0.00  0.00    +0.000 A 
ATOM     17  C   UNL     1       3.734   2.707  20.083  0.00  0.00    +0.000 A 
ATOM     18  C   UNL     1       2.909   2.636  21.203  0.00  0.00    +0.000 A 
ATOM     19  C   UNL     1       1.524   2.709  21.052  0.00  0.00    +0.000 A 
ATOM     20  C   UNL     1       0.979   2.877  19.785  0.00  0.00    +0.000 A 
ATOM     21  F   UNL     1      -0.350   2.929  19.641  0.00  0.00    +0.000 F 
ATOM     22  C   UNL     1       1.792   2.942  18.657  0.00  0.00    +0.000 A 
ENDBRANCH  15  16
ENDBRANCH  13  15
ENDBRANCH   5  13
TORSDOF 4
ENDMDL
MODEL 4
REMARK VINA RESULT:      -7.4      3.045      4.622
REMARK  Name = 
REMARK  4 active torsions:
REMARK  status: ('A' for Active; 'I' for Inactive)
REMARK    1  A    between atoms: C_5  and  C_6
REMARK    2  A    between atoms: C_10  and  N_11
REMARK    3  A    between atoms: N_11  and  C_12
REMARK    4  A    between atoms: C_12  and  C_13
REMARK                            x       y       z     vdW  Elec       q    Type
REMARK                         _______ _______ _______ _____ _____    ______ ____
ROOT
ATOM      1  C   UNL     1       6.684   6.074  17.114  0.00  0.00    +0.000 C 
ATOM      2  C   UNL     1       7.600   7.283  17.258  0.00  0.00    +0.000 C 
ATOM      3  O   UNL     1       8.213   7.226  18.550  0.00  0.00    +0.000 OA
ATOM      4  C   UNL     1       7.838   6.001  19.194  0.00  0.00    +0.000 C 
ATOM      5  C   UNL     1       7.259   5.073  18.125  0.00  0.00    +0.000 C 
ENDROOT
BRANCH   1  10
ATOM      6  F   UNL     1       5.994   2.901  12.649  0.00  0.00    +0.000 F 
ATOM      7  C   UNL     1       6.081   3.876  13.560  0.00  0.00    +0.000 A 
ATOM      8  C   UNL     1       7.243   4.623  13.661  0.00  0.00    +0.000 A 
ATOM      9  C   UNL     1       7.377   5.518  14.718  0.00  0.00    +0.000 A 
ATOM     10  C   UNL     1       6.380   5.608  15.704  0.00  0.00    +0.000 A 
ATOM     11  C   UNL     1       5.143   4.989  15.460  0.00  0.00    +0.000 A 
ATOM     12  C   UNL     1       4.996   4.119  14.387  0.00  0.00    +0.000 A 
ENDBRANCH   1  10
BRANCH   5  13
ATOM     13  N   UNL     1       6.371   4.023  18.663  0.00  0.00    +0.000 NA
ATOM     14  H   UNL     1       6.001   3.450  17.906  0.00  0.00    +0.000 HD
BRANCH  13  15
ATOM     15  C   UNL     1       5.231   4.512  19.438  0.00  0.00    +0.000 C 
BRANCH  15  16
ATOM     16  C   UNL     1       3.950   3.848  19.004  0.00  0.00    +0.000 A 
ATOM     17  C   UNL     1       3.729   2.481  19.261  0.00  0.00    +0.000 A 
ATOM     18  C   UNL     1       2.566   1.857  18.813  0.00  0.00    +0.000 A 
ATOM     19  C   UNL     1       1.609   2.594  18.114  0.00  0.00    +0.000 A 
ATOM     20  C   UNL     1       1.812   3.950  17.891  0.00  0.00    +0.000 A 
ATOM     21  F   UNL     1       0.901   4.649  17.205  0.00  0.00    +0.000 F 
ATOM     22  C   UNL     1       2.973   4.583  18.327  0.00  0.00    +0.000 A 
ENDBRANCH  15  16
ENDBRANCH  13  15
ENDBRANCH   5  13
TORSDOF 4
ENDMDL
MODEL 5
REMARK VINA RESULT:      -7.3      2.687      4.885
REMARK  Name = 
REMARK  4 active torsions:
REMARK  status: ('A' for Active; 'I' for Inactive)
REMARK    1  A    between atoms: C_5  and  C_6
REMARK    2  A    between atoms: C_10  and  N_11
REMARK    3  A    between atoms: N_11  and  C_12
REMARK    4  A    between atoms: C_12  and  C_13
REMARK                            x       y       z     vdW  Elec       q    Type
REMARK                         _______ _______ _______ _____ _____    ______ ____
ROOT
ATOM      1  C   UNL     1       2.241   4.137  18.434  0.00  0.00    +0.000 C 
ATOM      2  C   UNL     1       0.848   3.536  18.582  0.00  0.00    +0.000 C 
ATOM      3  O   UNL     1       0.979   2.112  18.620  0.00  0.00    +0.000 OA
ATOM      4  C   UNL     1       2.372   1.768  18.623  0.00  0.00    +0.000 C 
ATOM      5  C   UNL     1       3.160   3.032  18.970  0.00  0.00    +0.000 C 
ENDROOT
BRANCH   1  10
ATOM      6  F   UNL     1       1.278   9.357  19.951  0.00  0.00    +0.000 F 
ATOM      7  C   UNL     1       1.776   8.154  19.650  0.00  0.00    +0.000 A 
ATOM      8  C   UNL     1       2.311   7.924  18.394  0.00  0.00    +0.000 A 
ATOM      9  C   UNL     1       2.672   6.626  18.044  0.00  0.00    +0.000 A 
ATOM     10  C   UNL     1       2.430   5.559  18.926  0.00  0.00    +0.000 A 
ATOM     11  C   UNL     1       2.077   5.856  20.252  0.00  0.00    +0.000 A 
ATOM     12  C   UNL     1       1.747   7.157  20.613  0.00  0.00    +0.000 A 
ENDBRANCH   1  10
BRANCH   5  13
ATOM     13  N   UNL     1       4.566   3.002  18.517  0.00  0.00    +0.000 NA
ATOM     14  H   UNL     1       4.910   2.045  18.494  0.00  0.00    +0.000 HD
BRANCH  13  15
ATOM     15  C   UNL     1       5.496   3.783  19.333  0.00  0.00    +0.000 C 
BRANCH  15  16
ATOM     16  C   UNL     1       6.128   4.891  18.530  0.00  0.00    +0.000 A 
ATOM     17  C   UNL     1       5.748   5.112  17.192  0.00  0.00    +0.000 A 
ATOM     18  C   UNL     1       6.370   6.104  16.436  0.00  0.00    +0.000 A 
ATOM     19  C   UNL     1       7.369   6.891  17.011  0.00  0.00    +0.000 A 
ATOM     20  C   UNL     1       7.718   6.695  18.341  0.00  0.00    +0.000 A 
ATOM     21  F   UNL     1       8.688   7.439  18.885  0.00  0.00    +0.000 F 
ATOM     22  C   UNL     1       7.110   5.703  19.105  0.00  0.00    +0.000 A 
ENDBRANCH  15  16
ENDBRANCH  13  15
ENDBRANCH   5  13
TORSDOF 4
ENDMDL
MODEL 6
REMARK VINA RESULT:      -7.2      3.428      5.747
REMARK  Name = 
REMARK  4 active torsions:
REMARK  status: ('A' for Active; 'I' for Inactive)
REMARK    1  A    between atoms: C_5  and  C_6
REMARK    2  A    between atoms: C_10  and  N_11
REMARK    3  A    between atoms: N_11  and  C_12
REMARK    4  A    between atoms: C_12  and  C_13
REMARK                            x       y       z     vdW  Elec       q    Type
REMARK                         _______ _______ _______ _____ _____    ______ ____
ROOT
ATOM      1  C   UNL     1       5.775   5.032  18.594  0.00  0.00    +0.000 C 
ATOM      2  C   UNL     1       6.938   5.502  19.459  0.00  0.00    +0.000 C 
ATOM      3  O   UNL     1       7.756   6.374  18.672  0.00  0.00    +0.000 OA
ATOM      4  C   UNL     1       7.129   6.582  17.399  0.00  0.00    +0.000 C 
ATOM      5  C   UNL     1       5.676   6.118  17.516  0.00  0.00    +0.000 C 
ENDROOT
BRANCH   1  10
ATOM      6  F   UNL     1       0.647   3.280  19.649  0.00  0.00    +0.000 F 
ATOM      7  C   UNL     1       1.914   3.705  19.672  0.00  0.00    +0.000 A 
ATOM      8  C   UNL     1       2.186   5.056  19.804  0.00  0.00    +0.000 A 
ATOM      9  C   UNL     1       3.499   5.495  19.660  0.00  0.00    +0.000 A 
ATOM     10  C   UNL     1       4.517   4.590  19.316  0.00  0.00    +0.000 A 
ATOM     11  C   UNL     1       4.240   3.215  19.389  0.00  0.00    +0.000 A 
ATOM     12  C   UNL     1       2.935   2.773  19.565  0.00  0.00    +0.000 A 
ENDBRANCH   1  10
BRANCH   5  13
ATOM     13  N   UNL     1       5.052   5.775  16.222  0.00  0.00    +0.000 NA
ATOM     14  H   UNL     1       4.047   5.934  16.259  0.00  0.00    +0.000 HD
BRANCH  13  15
ATOM     15  C   UNL     1       5.262   4.396  15.779  0.00  0.00    +0.000 C 
BRANCH  15  16
ATOM     16  C   UNL     1       5.933   4.352  14.431  0.00  0.00    +0.000 A 
ATOM     17  C   UNL     1       5.436   3.520  13.410  0.00  0.00    +0.000 A 
ATOM     18  C   UNL     1       6.089   3.443  12.182  0.00  0.00    +0.000 A 
ATOM     19  C   UNL     1       7.237   4.203  11.957  0.00  0.00    +0.000 A 
ATOM     20  C   UNL     1       7.707   5.050  12.952  0.00  0.00    +0.000 A 
ATOM     21  F   UNL     1       8.818   5.765  12.740  0.00  0.00    +0.000 F 
ATOM     22  C   UNL     1       7.068   5.131  14.187  0.00  0.00    +0.000 A 
ENDBRANCH  15  16
ENDBRANCH  13  15
ENDBRANCH   5  13
TORSDOF 4
ENDMDL
MODEL 7
REMARK VINA RESULT:      -7.2      3.366      5.016
REMARK  Name = 
REMARK  4 active torsions:
REMARK  status: ('A' for Active; 'I' for Inactive)
REMARK    1  A    between atoms: C_5  and  C_6
REMARK    2  A    between atoms: C_10  and  N_11
REMARK    3  A    between atoms: N_11  and  C_12
REMARK    4  A    between atoms: C_12  and  C_13
REMARK                            x       y       z     vdW  Elec       q    Type
REMARK                         _______ _______ _______ _____ _____    ______ ____
ROOT
ATOM      1  C   UNL     1       6.334   5.229  16.610  0.00  0.00    +0.000 C 
ATOM      2  C   UNL     1       7.537   4.681  17.369  0.00  0.00    +0.000 C 
ATOM      3  O   UNL     1       7.129   4.406  18.713  0.00  0.00    +0.000 OA
ATOM      4  C   UNL     1       5.717   4.632  18.829  0.00  0.00    +0.000 C 
ATOM      5  C   UNL     1       5.140   4.702  17.414  0.00  0.00    +0.000 C 
ENDROOT
BRANCH   1  10
ATOM      6  F   UNL     1       7.158   3.212  11.537  0.00  0.00    +0.000 F 
ATOM      7  C   UNL     1       6.835   3.911  12.630  0.00  0.00    +0.000 A 
ATOM      8  C   UNL     1       7.679   4.911  13.083  0.00  0.00    +0.000 A 
ATOM      9  C   UNL     1       7.410   5.513  14.309  0.00  0.00    +0.000 A 
ATOM     10  C   UNL     1       6.342   5.063  15.103  0.00  0.00    +0.000 A 
ATOM     11  C   UNL     1       5.401   4.195  14.525  0.00  0.00    +0.000 A 
ATOM     12  C   UNL     1       5.651   3.617  13.286  0.00  0.00    +0.000 A 
ENDBRANCH   1  10
BRANCH   5  13
ATOM     13  N   UNL     1       3.856   5.426  17.328  0.00  0.00    +0.000 NA
ATOM     14  H   UNL     1       3.939   6.221  16.697  0.00  0.00    +0.000 HD
BRANCH  13  15
ATOM     15  C   UNL     1       3.341   5.929  18.601  0.00  0.00    +0.000 C 
BRANCH  15  16
ATOM     16  C   UNL     1       2.512   4.885  19.305  0.00  0.00    +0.000 A 
ATOM     17  C   UNL     1       2.546   4.771  20.708  0.00  0.00    +0.000 A 
ATOM     18  C   UNL     1       1.819   3.772  21.352  0.00  0.00    +0.000 A 
ATOM     19  C   UNL     1       1.043   2.886  20.604  0.00  0.00    +0.000 A 
ATOM     20  C   UNL     1       0.983   3.021  19.223  0.00  0.00    +0.000 A 
ATOM     21  F   UNL     1       0.253   2.159  18.507  0.00  0.00    +0.000 F 
ATOM     22  C   UNL     1       1.711   4.010  18.566  0.00  0.00    +0.000 A 
ENDBRANCH  15  16
ENDBRANCH  13  15
ENDBRANCH   5  13
TORSDOF 4
ENDMDL
MODEL 8
REMARK VINA RESULT:      -7.2      1.080      1.540
REMARK  Name = 
REMARK  4 active torsions:
REMARK  status: ('A' for Active; 'I' for Inactive)
REMARK    1  A    between atoms: C_5  and  C_6
REMARK    2  A    between atoms: C_10  and  N_11
REMARK    3  A    between atoms: N_11  and  C_12
REMARK    4  A    between atoms: C_12  and  C_13
REMARK                            x       y       z     vdW  Elec       q    Type
REMARK                         _______ _______ _______ _____ _____    ______ ____
ROOT
ATOM      1  C   UNL     1       5.354   5.400  17.094  0.00  0.00    +0.000 C 
ATOM      2  C   UNL     1       5.989   6.203  15.965  0.00  0.00    +0.000 C 
ATOM      3  O   UNL     1       6.249   5.313  14.876  0.00  0.00    +0.000 OA
ATOM      4  C   UNL     1       5.717   4.018  15.190  0.00  0.00    +0.000 C 
ATOM      5  C   UNL     1       4.758   4.186  16.371  0.00  0.00    +0.000 C 
ENDROOT
BRANCH   1  10
ATOM      6  F   UNL     1       1.149   6.968  20.309  0.00  0.00    +0.000 F 
ATOM      7  C   UNL     1       2.294   6.814  19.638  0.00  0.00    +0.000 A 
ATOM      8  C   UNL     1       2.483   7.475  18.436  0.00  0.00    +0.000 A 
ATOM      9  C   UNL     1       3.607   7.174  17.672  0.00  0.00    +0.000 A 
ATOM     10  C   UNL     1       4.496   6.166  18.082  0.00  0.00    +0.000 A 
ATOM     11  C   UNL     1       4.380   5.666  19.390  0.00  0.00    +0.000 A 
ATOM     12  C   UNL     1       3.275   5.990  20.167  0.00  0.00    +0.000 A 
ENDBRANCH   1  10
BRANCH   5  13
ATOM     13  N   UNL     1       4.535   2.945  17.140  0.00  0.00    +0.000 NA
ATOM     14  H   UNL     1       5.132   2.198  16.789  0.00  0.00    +0.000 HD
BRANCH  13  15
ATOM     15  C   UNL     1       3.160   2.447  17.129  0.00  0.00    +0.000 C 
BRANCH  15  16
ATOM     16  C   UNL     1       2.490   2.665  18.461  0.00  0.00    +0.000 A 
ATOM     17  C   UNL     1       1.218   3.264  18.533  0.00  0.00    +0.000 A 
ATOM     18  C   UNL     1       0.624   3.511  19.769  0.00  0.00    +0.000 A 
ATOM     19  C   UNL     1       1.288   3.153  20.943  0.00  0.00    +0.000 A 
ATOM     20  C   UNL     1       2.528   2.531  20.869  0.00  0.00    +0.000 A 
ATOM     21  F   UNL     1       3.170   2.205  21.996  0.00  0.00    +0.000 F 
ATOM     22  C   UNL     1       3.136   2.285  19.641  0.00  0.00    +0.000 A 
ENDBRANCH  15  16
ENDBRANCH  13  15
ENDBRANCH   5  13
TORSDOF 4
ENDMDL
MODEL 9
REMARK VINA RESULT:      -7.2      2.875      4.258
REMARK  Name = 
REMARK  4 active torsions:
REMARK  status: ('A' for Active; 'I' for Inactive)
REMARK    1  A    between atoms: C_5  and  C_6
REMARK    2  A    between atoms: C_10  and  N_11
REMARK    3  A    between atoms: N_11  and  C_12
REMARK    4  A    between atoms: C_12  and  C_13
REMARK                            x       y       z     vdW  Elec       q    Type
REMARK                         _______ _______ _______ _____ _____    ______ ____
ROOT
ATOM      1  C   UNL     1       2.724   7.019  18.691  0.00  0.00    +0.000 C 
ATOM      2  C   UNL     1       2.292   8.414  18.256  0.00  0.00    +0.000 C 
ATOM      3  O   UNL     1       1.403   8.935  19.249  0.00  0.00    +0.000 OA
ATOM      4  C   UNL     1       1.330   8.013  20.344  0.00  0.00    +0.000 C 
ATOM      5  C   UNL     1       2.502   7.038  20.208  0.00  0.00    +0.000 C 
ENDROOT
BRANCH   1  10
ATOM      6  F   UNL     1       6.589   3.797  16.420  0.00  0.00    +0.000 F 
ATOM      7  C   UNL     1       5.861   4.764  16.987  0.00  0.00    +0.000 A 
ATOM      8  C   UNL     1       5.845   4.898  18.365  0.00  0.00    +0.000 A 
ATOM      9  C   UNL     1       4.957   5.800  18.943  0.00  0.00    +0.000 A 
ATOM     10  C   UNL     1       4.043   6.507  18.144  0.00  0.00    +0.000 A 
ATOM     11  C   UNL     1       4.224   6.495  16.751  0.00  0.00    +0.000 A 
ATOM     12  C   UNL     1       5.134   5.618  16.173  0.00  0.00    +0.000 A 
ENDBRANCH   1  10
BRANCH   5  13
ATOM     13  N   UNL     1       2.295   5.754  20.908  0.00  0.00    +0.000 NA
ATOM     14  H   UNL     1       3.184   5.276  21.042  0.00  0.00    +0.000 HD
BRANCH  13  15
ATOM     15  C   UNL     1       1.391   4.820  20.236  0.00  0.00    +0.000 C 
BRANCH  15  16
ATOM     16  C   UNL     1       2.160   3.764  19.484  0.00  0.00    +0.000 A 
ATOM     17  C   UNL     1       1.850   3.472  18.142  0.00  0.00    +0.000 A 
ATOM     18  C   UNL     1       2.527   2.460  17.466  0.00  0.00    +0.000 A 
ATOM     19  C   UNL     1       3.527   1.737  18.118  0.00  0.00    +0.000 A 
ATOM     20  C   UNL     1       3.856   2.049  19.431  0.00  0.00    +0.000 A 
ATOM     21  F   UNL     1       4.803   1.343  20.059  0.00  0.00    +0.000 F 
ATOM     22  C   UNL     1       3.181   3.053  20.121  0.00  0.00    +0.000 A 
ENDBRANCH  15  16
ENDBRANCH  13  15
ENDBRANCH   5  13
TORSDOF 4
ENDMDL
