MODEL 1
REMARK VINA RESULT:      -7.0      0.000      0.000
REMARK  Name = 
REMARK  4 active torsions:
REMARK  status: ('A' for Active; 'I' for Inactive)
REMARK    1  A    between atoms: C_2  and  CA_7
REMARK    2  A    between atoms: N_3  and  CA_4
REMARK    3  A    between atoms: CA_4  and  C_5
REMARK    4  A    between atoms: C_5  and  O_6
REMARK                            x       y       z     vdW  Elec       q    Type
REMARK                         _______ _______ _______ _____ _____    ______ ____
ROOT
ATOM      1  CA  UNL     1       5.525   4.956  16.292  0.00  0.00    +0.000 A 
ATOM      2  C   UNL     1       4.699   5.976  16.737  0.00  0.00    +0.000 A 
ATOM      3  C   UNL     1       4.013   5.512  17.897  0.00  0.00    +0.000 A 
ATOM      4  C   UNL     1       2.977   6.021  18.701  0.00  0.00    +0.000 A 
ATOM      5  F   UNL     1       2.443   7.221  18.436  0.00  0.00    +0.000 F 
ATOM      6  C   UNL     1       2.457   5.261  19.749  0.00  0.00    +0.000 A 
ATOM      7  C   UNL     1       2.996   4.008  20.024  0.00  0.00    +0.000 A 
ATOM      8 BR   UNL     1       2.258   2.968  21.425  0.00  0.00    +0.000 Br
ATOM      9  C   UNL     1       4.053   3.481  19.274  0.00  0.00    +0.000 A 
ATOM     10  C   UNL     1       4.523   4.251  18.202  0.00  0.00    +0.000 A 
ATOM     11  N   UNL     1       5.483   3.973  17.261  0.00  0.00    +0.000 N 
ATOM     12  H   UNL     1       6.020   3.117  17.204  0.00  0.00    +0.000 HD
ENDROOT
BRANCH   1  14
ATOM     13  O   UNL     1       7.469   5.205  15.024  0.00  0.00    +0.000 OA
ATOM     14  C   UNL     1       6.320   4.771  15.101  0.00  0.00    +0.000 C 
ATOM     15  N   UNL     1       5.743   4.047  14.088  0.00  0.00    +0.000 N 
ATOM     16  H   UNL     1       4.813   3.669  14.202  0.00  0.00    +0.000 HD
BRANCH  15  17
ATOM     17  CA  UNL     1       6.466   3.764  12.858  0.00  0.00    +0.000 C 
BRANCH  17  18
ATOM     18  C   UNL     1       5.615   3.000  11.843  0.00  0.00    +0.000 C 
BRANCH  18  19
ATOM     19  O   UNL     1       6.070   1.652  11.731  0.00  0.00    +0.000 OA
ATOM     20  H   UNL     1       5.845   1.361  10.832  0.00  0.00    +0.000 HD
ENDBRANCH  18  19
ENDBRANCH  17  18
ENDBRANCH  15  17
ENDBRANCH   1  14
TORSDOF 4
ENDMDL
MODEL 2
REMARK VINA RESULT:      -6.8      1.476      1.563
REMARK  Name = 
REMARK  4 active torsions:
REMARK  status: ('A' for Active; 'I' for Inactive)
REMARK    1  A    between atoms: C_2  and  CA_7
REMARK    2  A    between atoms: N_3  and  CA_4
REMARK    3  A    between atoms: CA_4  and  C_5
REMARK    4  A    between atoms: C_5  and  O_6
REMARK                            x       y       z     vdW  Elec       q    Type
REMARK                         _______ _______ _______ _____ _____    ______ ____
ROOT
ATOM      1  CA  UNL     1       5.638   4.745  16.640  0.00  0.00    +0.000 A 
ATOM      2  C   UNL     1       4.636   5.684  16.820  0.00  0.00    +0.000 A 
ATOM      3  C   UNL     1       3.824   5.257  17.911  0.00  0.00    +0.000 A 
ATOM      4  C   UNL     1       2.615   5.702  18.475  0.00  0.00    +0.000 A 
ATOM      5  F   UNL     1       1.996   6.784  17.982  0.00  0.00    +0.000 F 
ATOM      6  C   UNL     1       2.018   4.994  19.519  0.00  0.00    +0.000 A 
ATOM      7  C   UNL     1       2.646   3.862  20.029  0.00  0.00    +0.000 A 
ATOM      8 BR   UNL     1       1.811   2.886  21.421  0.00  0.00    +0.000 Br
ATOM      9  C   UNL     1       3.869   3.407  19.523  0.00  0.00    +0.000 A 
ATOM     10  C   UNL     1       4.419   4.116  18.447  0.00  0.00    +0.000 A 
ATOM     11  N   UNL     1       5.549   3.874  17.707  0.00  0.00    +0.000 N 
ATOM     12  H   UNL     1       6.185   3.098  17.841  0.00  0.00    +0.000 HD
ENDROOT
BRANCH   1  14
ATOM     13  O   UNL     1       7.840   4.557  15.886  0.00  0.00    +0.000 OA
ATOM     14  C   UNL     1       6.639   4.545  15.617  0.00  0.00    +0.000 C 
ATOM     15  N   UNL     1       6.175   4.294  14.351  0.00  0.00    +0.000 N 
ATOM     16  H   UNL     1       5.182   4.249  14.174  0.00  0.00    +0.000 HD
BRANCH  15  17
ATOM     17  CA  UNL     1       7.092   4.037  13.250  0.00  0.00    +0.000 C 
BRANCH  17  18
ATOM     18  C   UNL     1       7.559   5.323  12.566  0.00  0.00    +0.000 C 
BRANCH  18  19
ATOM     19  O   UNL     1       8.704   5.850  13.235  0.00  0.00    +0.000 OA
ATOM     20  H   UNL     1       8.923   5.219  13.941  0.00  0.00    +0.000 HD
ENDBRANCH  18  19
ENDBRANCH  17  18
ENDBRANCH  15  17
ENDBRANCH   1  14
TORSDOF 4
ENDMDL
MODEL 3
REMARK VINA RESULT:      -6.8      0.942      1.012
REMARK  Name = 
REMARK  4 active torsions:
REMARK  status: ('A' for Active; 'I' for Inactive)
REMARK    1  A    between atoms: C_2  and  CA_7
REMARK    2  A    between atoms: N_3  and  CA_4
REMARK    3  A    between atoms: CA_4  and  C_5
REMARK    4  A    between atoms: C_5  and  O_6
REMARK                            x       y       z     vdW  Elec       q    Type
REMARK                         _______ _______ _______ _____ _____    ______ ____
ROOT
ATOM      1  CA  UNL     1       5.736   4.955  16.818  0.00  0.00    +0.000 A 
ATOM      2  C   UNL     1       4.653   5.810  16.945  0.00  0.00    +0.000 A 
ATOM      3  C   UNL     1       3.825   5.317  17.996  0.00  0.00    +0.000 A 
ATOM      4  C   UNL     1       2.557   5.663  18.498  0.00  0.00    +0.000 A 
ATOM      5  F   UNL     1       1.878   6.691  17.972  0.00  0.00    +0.000 F 
ATOM      6  C   UNL     1       1.969   4.907  19.513  0.00  0.00    +0.000 A 
ATOM      7  C   UNL     1       2.660   3.829  20.058  0.00  0.00    +0.000 A 
ATOM      8 BR   UNL     1       1.838   2.787  21.409  0.00  0.00    +0.000 Br
ATOM      9  C   UNL     1       3.940   3.476  19.614  0.00  0.00    +0.000 A 
ATOM     10  C   UNL     1       4.483   4.228  18.564  0.00  0.00    +0.000 A 
ATOM     11  N   UNL     1       5.665   4.078  17.883  0.00  0.00    +0.000 N 
ATOM     12  H   UNL     1       6.353   3.356  18.050  0.00  0.00    +0.000 HD
ENDROOT
BRANCH   1  14
ATOM     13  O   UNL     1       7.921   4.449  16.171  0.00  0.00    +0.000 OA
ATOM     14  C   UNL     1       6.799   4.837  15.847  0.00  0.00    +0.000 C 
ATOM     15  N   UNL     1       6.475   5.134  14.548  0.00  0.00    +0.000 N 
ATOM     16  H   UNL     1       5.532   5.408  14.311  0.00  0.00    +0.000 HD
BRANCH  15  17
ATOM     17  CA  UNL     1       7.455   5.011  13.480  0.00  0.00    +0.000 C 
BRANCH  17  18
ATOM     18  C   UNL     1       6.999   4.056  12.375  0.00  0.00    +0.000 C 
BRANCH  18  19
ATOM     19  O   UNL     1       6.223   2.995  12.930  0.00  0.00    +0.000 OA
ATOM     20  H   UNL     1       6.846   2.275  13.127  0.00  0.00    +0.000 HD
ENDBRANCH  18  19
ENDBRANCH  17  18
ENDBRANCH  15  17
ENDBRANCH   1  14
TORSDOF 4
ENDMDL
MODEL 4
REMARK VINA RESULT:      -6.7      1.723      1.921
REMARK  Name = 
REMARK  4 active torsions:
REMARK  status: ('A' for Active; 'I' for Inactive)
REMARK    1  A    between atoms: C_2  and  CA_7
REMARK    2  A    between atoms: N_3  and  CA_4
REMARK    3  A    between atoms: CA_4  and  C_5
REMARK    4  A    between atoms: C_5  and  O_6
REMARK                            x       y       z     vdW  Elec       q    Type
REMARK                         _______ _______ _______ _____ _____    ______ ____
ROOT
ATOM      1  CA  UNL     1       6.236   4.447  15.561  0.00  0.00    +0.000 A 
ATOM      2  C   UNL     1       6.720   4.780  16.816  0.00  0.00    +0.000 A 
ATOM      3  C   UNL     1       5.642   4.679  17.744  0.00  0.00    +0.000 A 
ATOM      4  C   UNL     1       5.475   5.004  19.102  0.00  0.00    +0.000 A 
ATOM      5  F   UNL     1       6.497   5.509  19.807  0.00  0.00    +0.000 F 
ATOM      6  C   UNL     1       4.231   4.856  19.716  0.00  0.00    +0.000 A 
ATOM      7  C   UNL     1       3.161   4.345  18.989  0.00  0.00    +0.000 A 
ATOM      8 BR   UNL     1       1.467   4.182  19.822  0.00  0.00    +0.000 Br
ATOM      9  C   UNL     1       3.294   3.973  17.647  0.00  0.00    +0.000 A 
ATOM     10  C   UNL     1       4.544   4.175  17.048  0.00  0.00    +0.000 A 
ATOM     11  N   UNL     1       4.952   3.976  15.753  0.00  0.00    +0.000 N 
ATOM     12  H   UNL     1       4.370   3.636  14.998  0.00  0.00    +0.000 HD
ENDROOT
BRANCH   1  14
ATOM     13  O   UNL     1       7.692   5.316  13.956  0.00  0.00    +0.000 OA
ATOM     14  C   UNL     1       6.792   4.522  14.230  0.00  0.00    +0.000 C 
ATOM     15  N   UNL     1       6.297   3.633  13.310  0.00  0.00    +0.000 N 
ATOM     16  H   UNL     1       5.588   2.966  13.580  0.00  0.00    +0.000 HD
BRANCH  15  17
ATOM     17  CA  UNL     1       6.812   3.592  11.949  0.00  0.00    +0.000 C 
BRANCH  17  18
ATOM     18  C   UNL     1       7.033   2.162  11.453  0.00  0.00    +0.000 C 
BRANCH  18  19
ATOM     19  O   UNL     1       5.815   1.422  11.517  0.00  0.00    +0.000 OA
ATOM     20  H   UNL     1       5.097   2.069  11.409  0.00  0.00    +0.000 HD
ENDBRANCH  18  19
ENDBRANCH  17  18
ENDBRANCH  15  17
ENDBRANCH   1  14
TORSDOF 4
ENDMDL
MODEL 5
REMARK VINA RESULT:      -6.5      1.355      1.556
REMARK  Name = 
REMARK  4 active torsions:
REMARK  status: ('A' for Active; 'I' for Inactive)
REMARK    1  A    between atoms: C_2  and  CA_7
REMARK    2  A    between atoms: N_3  and  CA_4
REMARK    3  A    between atoms: CA_4  and  C_5
REMARK    4  A    between atoms: C_5  and  O_6
REMARK                            x       y       z     vdW  Elec       q    Type
REMARK                         _______ _______ _______ _____ _____    ______ ____
ROOT
ATOM      1  CA  UNL     1       4.631   5.772  17.016  0.00  0.00    +0.000 A 
ATOM      2  C   UNL     1       3.913   6.687  17.768  0.00  0.00    +0.000 A 
ATOM      3  C   UNL     1       3.268   5.980  18.825  0.00  0.00    +0.000 A 
ATOM      4  C   UNL     1       2.326   6.322  19.811  0.00  0.00    +0.000 A 
ATOM      5  F   UNL     1       1.867   7.578  19.902  0.00  0.00    +0.000 F 
ATOM      6  C   UNL     1       1.817   5.348  20.671  0.00  0.00    +0.000 A 
ATOM      7  C   UNL     1       2.277   4.038  20.576  0.00  0.00    +0.000 A 
ATOM      8 BR   UNL     1       1.553   2.716  21.723  0.00  0.00    +0.000 Br
ATOM      9  C   UNL     1       3.242   3.663  19.635  0.00  0.00    +0.000 A 
ATOM     10  C   UNL     1       3.700   4.656  18.759  0.00  0.00    +0.000 A 
ATOM     11  N   UNL     1       4.576   4.576  17.705  0.00  0.00    +0.000 N 
ATOM     12  H   UNL     1       5.043   3.735  17.390  0.00  0.00    +0.000 HD
ENDROOT
BRANCH   1  14
ATOM     13  O   UNL     1       5.258   6.857  15.046  0.00  0.00    +0.000 OA
ATOM     14  C   UNL     1       5.333   5.855  15.757  0.00  0.00    +0.000 C 
ATOM     15  N   UNL     1       6.120   4.781  15.425  0.00  0.00    +0.000 N 
ATOM     16  H   UNL     1       6.193   3.993  16.052  0.00  0.00    +0.000 HD
BRANCH  15  17
ATOM     17  CA  UNL     1       6.905   4.772  14.200  0.00  0.00    +0.000 C 
BRANCH  17  18
ATOM     18  C   UNL     1       6.317   3.844  13.136  0.00  0.00    +0.000 C 
BRANCH  18  19
ATOM     19  O   UNL     1       7.052   3.960  11.918  0.00  0.00    +0.000 OA
ATOM     20  H   UNL     1       7.227   4.908  11.794  0.00  0.00    +0.000 HD
ENDBRANCH  18  19
ENDBRANCH  17  18
ENDBRANCH  15  17
ENDBRANCH   1  14
TORSDOF 4
ENDMDL
MODEL 6
REMARK VINA RESULT:      -6.5      4.245      6.488
REMARK  Name = 
REMARK  4 active torsions:
REMARK  status: ('A' for Active; 'I' for Inactive)
REMARK    1  A    between atoms: C_2  and  CA_7
REMARK    2  A    between atoms: N_3  and  CA_4
REMARK    3  A    between atoms: CA_4  and  C_5
REMARK    4  A    between atoms: C_5  and  O_6
REMARK                            x       y       z     vdW  Elec       q    Type
REMARK                         _______ _______ _______ _____ _____    ______ ____
ROOT
ATOM      1  CA  UNL     1       4.889   3.583  18.598  0.00  0.00    +0.000 A 
ATOM      2  C   UNL     1       5.699   4.686  18.386  0.00  0.00    +0.000 A 
ATOM      3  C   UNL     1       6.034   4.727  17.001  0.00  0.00    +0.000 A 
ATOM      4  C   UNL     1       6.902   5.507  16.218  0.00  0.00    +0.000 A 
ATOM      5  F   UNL     1       7.620   6.491  16.779  0.00  0.00    +0.000 F 
ATOM      6  C   UNL     1       7.069   5.234  14.860  0.00  0.00    +0.000 A 
ATOM      7  C   UNL     1       6.339   4.207  14.270  0.00  0.00    +0.000 A 
ATOM      8 BR   UNL     1       6.598   3.818  12.434  0.00  0.00    +0.000 Br
ATOM      9  C   UNL     1       5.434   3.432  15.005  0.00  0.00    +0.000 A 
ATOM     10  C   UNL     1       5.323   3.704  16.374  0.00  0.00    +0.000 A 
ATOM     11  N   UNL     1       4.586   3.078  17.348  0.00  0.00    +0.000 N 
ATOM     12  H   UNL     1       3.982   2.279  17.207  0.00  0.00    +0.000 HD
ENDROOT
BRANCH   1  14
ATOM     13  O   UNL     1       5.006   2.035  20.341  0.00  0.00    +0.000 OA
ATOM     14  C   UNL     1       4.381   2.937  19.786  0.00  0.00    +0.000 C 
ATOM     15  N   UNL     1       3.195   3.417  20.282  0.00  0.00    +0.000 N 
ATOM     16  H   UNL     1       2.730   4.189  19.825  0.00  0.00    +0.000 HD
BRANCH  15  17
ATOM     17  CA  UNL     1       2.610   2.870  21.497  0.00  0.00    +0.000 C 
BRANCH  17  18
ATOM     18  C   UNL     1       1.086   2.770  21.417  0.00  0.00    +0.000 C 
BRANCH  18  19
ATOM     19  O   UNL     1       0.592   3.582  20.352  0.00  0.00    +0.000 OA
ATOM     20  H   UNL     1      -0.187   3.123  19.997  0.00  0.00    +0.000 HD
ENDBRANCH  18  19
ENDBRANCH  17  18
ENDBRANCH  15  17
ENDBRANCH   1  14
TORSDOF 4
ENDMDL
MODEL 7
REMARK VINA RESULT:      -6.4      4.245      5.461
REMARK  Name = 
REMARK  4 active torsions:
REMARK  status: ('A' for Active; 'I' for Inactive)
REMARK    1  A    between atoms: C_2  and  CA_7
REMARK    2  A    between atoms: N_3  and  CA_4
REMARK    3  A    between atoms: CA_4  and  C_5
REMARK    4  A    between atoms: C_5  and  O_6
REMARK                            x       y       z     vdW  Elec       q    Type
REMARK                         _______ _______ _______ _____ _____    ______ ____
ROOT
ATOM      1  CA  UNL     1       2.829   6.581  18.779  0.00  0.00    +0.000 A 
ATOM      2  C   UNL     1       2.446   7.766  18.172  0.00  0.00    +0.000 A 
ATOM      3  C   UNL     1       1.717   8.534  19.125  0.00  0.00    +0.000 A 
ATOM      4  C   UNL     1       0.981   9.731  19.074  0.00  0.00    +0.000 A 
ATOM      5  F   UNL     1       0.888  10.419  17.927  0.00  0.00    +0.000 F 
ATOM      6  C   UNL     1       0.295  10.189  20.199  0.00  0.00    +0.000 A 
ATOM      7  C   UNL     1       0.374   9.475  21.391  0.00  0.00    +0.000 A 
ATOM      8 BR   UNL     1      -0.590  10.084  22.903  0.00  0.00    +0.000 Br
ATOM      9  C   UNL     1       1.127   8.300  21.496  0.00  0.00    +0.000 A 
ATOM     10  C   UNL     1       1.768   7.845  20.336  0.00  0.00    +0.000 A 
ATOM     11  N   UNL     1       2.506   6.709  20.116  0.00  0.00    +0.000 N 
ATOM     12  H   UNL     1       2.702   5.992  20.803  0.00  0.00    +0.000 HD
ENDROOT
BRANCH   1  14
ATOM     13  O   UNL     1       4.579   5.346  17.851  0.00  0.00    +0.000 OA
ATOM     14  C   UNL     1       3.430   5.362  18.289  0.00  0.00    +0.000 C 
ATOM     15  N   UNL     1       2.667   4.225  18.384  0.00  0.00    +0.000 N 
ATOM     16  H   UNL     1       1.743   4.267  18.789  0.00  0.00    +0.000 HD
BRANCH  15  17
ATOM     17  CA  UNL     1       3.185   2.933  17.959  0.00  0.00    +0.000 C 
BRANCH  17  18
ATOM     18  C   UNL     1       3.804   2.144  19.113  0.00  0.00    +0.000 C 
BRANCH  18  19
ATOM     19  O   UNL     1       5.094   2.664  19.432  0.00  0.00    +0.000 OA
ATOM     20  H   UNL     1       4.943   3.499  19.906  0.00  0.00    +0.000 HD
ENDBRANCH  18  19
ENDBRANCH  17  18
ENDBRANCH  15  17
ENDBRANCH   1  14
TORSDOF 4
ENDMDL
MODEL 8
REMARK VINA RESULT:      -6.3      3.642      4.851
REMARK  Name = 
REMARK  4 active torsions:
REMARK  status: ('A' for Active; 'I' for Inactive)
REMARK    1  A    between atoms: C_2  and  CA_7
REMARK    2  A    between atoms: N_3  and  CA_4
REMARK    3  A    between atoms: CA_4  and  C_5
REMARK    4  A    between atoms: C_5  and  O_6
REMARK                            x       y       z     vdW  Elec       q    Type
REMARK                         _______ _______ _______ _____ _____    ______ ____
ROOT
ATOM      1  CA  UNL     1       3.055   6.630  18.447  0.00  0.00    +0.000 A 
ATOM      2  C   UNL     1       2.571   7.816  17.919  0.00  0.00    +0.000 A 
ATOM      3  C   UNL     1       1.824   8.479  18.936  0.00  0.00    +0.000 A 
ATOM      4  C   UNL     1       1.007   9.623  18.974  0.00  0.00    +0.000 A 
ATOM      5  F   UNL     1       0.828  10.363  17.872  0.00  0.00    +0.000 F 
ATOM      6  C   UNL     1       0.330   9.969  20.144  0.00  0.00    +0.000 A 
ATOM      7  C   UNL     1       0.498   9.199  21.290  0.00  0.00    +0.000 A 
ATOM      8 BR   UNL     1      -0.454   9.656  22.863  0.00  0.00    +0.000 Br
ATOM      9  C   UNL     1       1.333   8.076  21.306  0.00  0.00    +0.000 A 
ATOM     10  C   UNL     1       1.963   7.730  20.104  0.00  0.00    +0.000 A 
ATOM     11  N   UNL     1       2.769   6.663  19.798  0.00  0.00    +0.000 N 
ATOM     12  H   UNL     1       3.037   5.925  20.437  0.00  0.00    +0.000 HD
ENDROOT
BRANCH   1  14
ATOM     13  O   UNL     1       3.457   4.340  18.239  0.00  0.00    +0.000 OA
ATOM     14  C   UNL     1       3.720   5.485  17.871  0.00  0.00    +0.000 C 
ATOM     15  N   UNL     1       4.617   5.742  16.866  0.00  0.00    +0.000 N 
ATOM     16  H   UNL     1       4.777   6.691  16.559  0.00  0.00    +0.000 HD
BRANCH  15  17
ATOM     17  CA  UNL     1       5.316   4.662  16.185  0.00  0.00    +0.000 C 
BRANCH  17  18
ATOM     18  C   UNL     1       6.730   4.447  16.728  0.00  0.00    +0.000 C 
BRANCH  18  19
ATOM     19  O   UNL     1       6.677   4.042  18.096  0.00  0.00    +0.000 OA
ATOM     20  H   UNL     1       7.503   4.352  18.504  0.00  0.00    +0.000 HD
ENDBRANCH  18  19
ENDBRANCH  17  18
ENDBRANCH  15  17
ENDBRANCH   1  14
TORSDOF 4
ENDMDL
MODEL 9
REMARK VINA RESULT:      -6.2      1.883      2.283
REMARK  Name = 
REMARK  4 active torsions:
REMARK  status: ('A' for Active; 'I' for Inactive)
REMARK    1  A    between atoms: C_2  and  CA_7
REMARK    2  A    between atoms: N_3  and  CA_4
REMARK    3  A    between atoms: CA_4  and  C_5
REMARK    4  A    between atoms: C_5  and  O_6
REMARK                            x       y       z     vdW  Elec       q    Type
REMARK                         _______ _______ _______ _____ _____    ______ ____
ROOT
ATOM      1  CA  UNL     1       4.957   5.027  16.432  0.00  0.00    +0.000 A 
ATOM      2  C   UNL     1       4.362   4.079  17.249  0.00  0.00    +0.000 A 
ATOM      3  C   UNL     1       3.563   4.765  18.210  0.00  0.00    +0.000 A 
ATOM      4  C   UNL     1       2.841   4.376  19.352  0.00  0.00    +0.000 A 
ATOM      5  F   UNL     1       2.793   3.087  19.715  0.00  0.00    +0.000 F 
ATOM      6  C   UNL     1       2.213   5.332  20.151  0.00  0.00    +0.000 A 
ATOM      7  C   UNL     1       2.268   6.675  19.790  0.00  0.00    +0.000 A 
ATOM      8 BR   UNL     1       1.443   7.969  20.901  0.00  0.00    +0.000 Br
ATOM      9  C   UNL     1       2.943   7.100  18.640  0.00  0.00    +0.000 A 
ATOM     10  C   UNL     1       3.600   6.121  17.885  0.00  0.00    +0.000 A 
ATOM     11  N   UNL     1       4.387   6.240  16.767  0.00  0.00    +0.000 N 
ATOM     12  H   UNL     1       4.622   7.107  16.302  0.00  0.00    +0.000 HD
ENDROOT
BRANCH   1  14
ATOM     13  O   UNL     1       7.045   5.557  15.534  0.00  0.00    +0.000 OA
ATOM     14  C   UNL     1       5.977   4.959  15.411  0.00  0.00    +0.000 C 
ATOM     15  N   UNL     1       5.707   4.158  14.331  0.00  0.00    +0.000 N 
ATOM     16  H   UNL     1       4.836   3.648  14.283  0.00  0.00    +0.000 HD
BRANCH  15  17
ATOM     17  CA  UNL     1       6.678   3.983  13.262  0.00  0.00    +0.000 C 
BRANCH  17  18
ATOM     18  C   UNL     1       6.058   3.372  12.004  0.00  0.00    +0.000 C 
BRANCH  18  19
ATOM     19  O   UNL     1       6.437   2.002  11.881  0.00  0.00    +0.000 OA
ATOM     20  H   UNL     1       5.612   1.489  11.887  0.00  0.00    +0.000 HD
ENDBRANCH  18  19
ENDBRANCH  17  18
ENDBRANCH  15  17
ENDBRANCH   1  14
TORSDOF 4
ENDMDL
