MODEL 1
REMARK VINA RESULT:      -7.2      0.000      0.000
REMARK  Name = 
REMARK  9 active torsions:
REMARK  status: ('A' for Active; 'I' for Inactive)
REMARK    1  A    between atoms: C_1  and  O_2
REMARK    2  A    between atoms: O_2  and  C_3
REMARK    3  A    between atoms: C_5  and  C_6
REMARK    4  A    between atoms: N_9  and  C_10
REMARK    5  A    between atoms: C_13  and  C_14
REMARK    6  A    between atoms: C_24  and  O_25
REMARK    7  A    between atoms: O_25  and  C_26
REMARK    8  A    between atoms: C_27  and  O_28
REMARK    9  A    between atoms: O_28  and  C_29
REMARK                            x       y       z     vdW  Elec       q    Type
REMARK                         _______ _______ _______ _____ _____    ______ ____
ROOT
ATOM      1  C   UNL     1       2.885   7.717  17.922  0.00  0.00    +0.000 C 
ATOM      2  C   UNL     1       2.062   8.373  18.759  0.00  0.00    +0.000 C 
ATOM      3  C   UNL     1       1.658   7.890  20.114  0.00  0.00    +0.000 C 
ATOM      4  N   UNL     1       1.428   9.007  21.032  0.00  0.00    +0.000 NA
ATOM      5  C   UNL     1       1.158   8.507  22.379  0.00  0.00    +0.000 C 
ATOM      6  C   UNL     1       0.308   9.812  20.538  0.00  0.00    +0.000 C 
ATOM      7  C   UNL     1       0.606  10.427  19.202  0.00  0.00    +0.000 C 
ATOM      8  C   UNL     1       0.111  11.598  18.754  0.00  0.00    +0.000 C 
ATOM      9  C   UNL     1       1.533   9.692  18.284  0.00  0.00    +0.000 C 
ATOM     10  O   UNL     1       1.818  10.134  17.172  0.00  0.00    +0.000 OA
ENDROOT
BRANCH   8  11
ATOM     11  C   UNL     1      -0.823  12.445  19.499  0.00  0.00    +0.000 A 
ATOM     12  C   UNL     1      -0.357  13.593  20.156  0.00  0.00    +0.000 A 
ATOM     13  C   UNL     1      -1.245  14.402  20.864  0.00  0.00    +0.000 A 
ATOM     14  C   UNL     1      -2.593  14.068  20.913  0.00  0.00    +0.000 A 
ATOM     15  F   UNL     1      -3.443  14.849  21.588  0.00  0.00    +0.000 F 
ATOM     16  C   UNL     1      -3.068  12.932  20.267  0.00  0.00    +0.000 A 
ATOM     17  C   UNL     1      -2.181  12.118  19.561  0.00  0.00    +0.000 A 
ENDBRANCH   8  11
BRANCH   1  20
ATOM     18  C   UNL     1       5.221   5.064  19.166  0.00  0.00    +0.000 A 
ATOM     19  C   UNL     1       4.750   6.287  18.659  0.00  0.00    +0.000 A 
ATOM     20  C   UNL     1       3.463   6.394  18.147  0.00  0.00    +0.000 A 
ATOM     21  C   UNL     1       2.704   5.244  17.978  0.00  0.00    +0.000 A 
ATOM     22  C   UNL     1       3.188   3.989  18.386  0.00  0.00    +0.000 A 
ATOM     23  C   UNL     1       4.452   3.887  19.013  0.00  0.00    +0.000 A 
BRANCH  18  25
ATOM     24  C   UNL     1       7.505   5.694  19.117  0.00  0.00    +0.000 C 
ATOM     25  O   UNL     1       6.441   5.020  19.794  0.00  0.00    +0.000 OA
ENDBRANCH  18  25
BRANCH  22  26
ATOM     26  O   UNL     1       2.269   3.003  18.127  0.00  0.00    +0.000 OA
ATOM     27  C   UNL     1       1.119   2.878  18.947  0.00  0.00    +0.000 C 
ENDBRANCH  22  26
BRANCH  23  28
ATOM     28  O   UNL     1       4.827   2.631  19.411  0.00  0.00    +0.000 OA
ATOM     29  C   UNL     1       4.408   2.109  20.661  0.00  0.00    +0.000 C 
ENDBRANCH  23  28
ENDBRANCH   1  20
TORSDOF 5
ENDMDL
MODEL 2
REMARK VINA RESULT:      -7.2      0.948      2.547
REMARK  Name = 
REMARK  9 active torsions:
REMARK  status: ('A' for Active; 'I' for Inactive)
REMARK    1  A    between atoms: C_1  and  O_2
REMARK    2  A    between atoms: O_2  and  C_3
REMARK    3  A    between atoms: C_5  and  C_6
REMARK    4  A    between atoms: N_9  and  C_10
REMARK    5  A    between atoms: C_13  and  C_14
REMARK    6  A    between atoms: C_24  and  O_25
REMARK    7  A    between atoms: O_25  and  C_26
REMARK    8  A    between atoms: C_27  and  O_28
REMARK    9  A    between atoms: O_28  and  C_29
REMARK                            x       y       z     vdW  Elec       q    Type
REMARK                         _______ _______ _______ _____ _____    ______ ____
ROOT
ATOM      1  C   UNL     1       2.580   7.368  18.521  0.00  0.00    +0.000 C 
ATOM      2  C   UNL     1       1.848   8.214  19.269  0.00  0.00    +0.000 C 
ATOM      3  C   UNL     1       1.500   8.002  20.706  0.00  0.00    +0.000 C 
ATOM      4  N   UNL     1       1.391   9.274  21.421  0.00  0.00    +0.000 NA
ATOM      5  C   UNL     1       1.173   9.035  22.847  0.00  0.00    +0.000 C 
ATOM      6  C   UNL     1       0.291  10.055  20.849  0.00  0.00    +0.000 C 
ATOM      7  C   UNL     1       0.543  10.407  19.412  0.00  0.00    +0.000 C 
ATOM      8  C   UNL     1       0.091  11.513  18.788  0.00  0.00    +0.000 C 
ATOM      9  C   UNL     1       1.369   9.463  18.594  0.00  0.00    +0.000 C 
ATOM     10  O   UNL     1       1.611   9.684  17.408  0.00  0.00    +0.000 OA
ENDROOT
BRANCH   8  11
ATOM     11  C   UNL     1      -0.747  12.538  19.416  0.00  0.00    +0.000 A 
ATOM     12  C   UNL     1      -2.075  12.245  19.757  0.00  0.00    +0.000 A 
ATOM     13  C   UNL     1      -2.873  13.218  20.357  0.00  0.00    +0.000 A 
ATOM     14  C   UNL     1      -2.346  14.478  20.618  0.00  0.00    +0.000 A 
ATOM     15  F   UNL     1      -3.112  15.407  21.199  0.00  0.00    +0.000 F 
ATOM     16  C   UNL     1      -1.030  14.781  20.284  0.00  0.00    +0.000 A 
ATOM     17  C   UNL     1      -0.231  13.810  19.679  0.00  0.00    +0.000 A 
ENDBRANCH   8  11
BRANCH   1  20
ATOM     18  C   UNL     1       2.618   3.761  19.535  0.00  0.00    +0.000 A 
ATOM     19  C   UNL     1       2.209   5.098  19.404  0.00  0.00    +0.000 A 
ATOM     20  C   UNL     1       3.093   6.068  18.949  0.00  0.00    +0.000 A 
ATOM     21  C   UNL     1       4.433   5.742  18.790  0.00  0.00    +0.000 A 
ATOM     22  C   UNL     1       4.891   4.431  19.009  0.00  0.00    +0.000 A 
ATOM     23  C   UNL     1       3.977   3.411  19.363  0.00  0.00    +0.000 A 
BRANCH  18  25
ATOM     24  C   UNL     1       1.297   2.751  21.224  0.00  0.00    +0.000 C 
ATOM     25  O   UNL     1       1.689   2.800  19.849  0.00  0.00    +0.000 OA
ENDBRANCH  18  25
BRANCH  22  26
ATOM     26  O   UNL     1       6.243   4.343  18.788  0.00  0.00    +0.000 OA
ATOM     27  C   UNL     1       6.770   4.652  17.508  0.00  0.00    +0.000 C 
ENDBRANCH  22  26
BRANCH  23  28
ATOM     28  O   UNL     1       4.505   2.158  19.520  0.00  0.00    +0.000 OA
ATOM     29  C   UNL     1       4.881   1.683  20.803  0.00  0.00    +0.000 C 
ENDBRANCH  23  28
ENDBRANCH   1  20
TORSDOF 5
ENDMDL
MODEL 3
REMARK VINA RESULT:      -7.2      1.157      2.439
REMARK  Name = 
REMARK  9 active torsions:
REMARK  status: ('A' for Active; 'I' for Inactive)
REMARK    1  A    between atoms: C_1  and  O_2
REMARK    2  A    between atoms: O_2  and  C_3
REMARK    3  A    between atoms: C_5  and  C_6
REMARK    4  A    between atoms: N_9  and  C_10
REMARK    5  A    between atoms: C_13  and  C_14
REMARK    6  A    between atoms: C_24  and  O_25
REMARK    7  A    between atoms: O_25  and  C_26
REMARK    8  A    between atoms: C_27  and  O_28
REMARK    9  A    between atoms: O_28  and  C_29
REMARK                            x       y       z     vdW  Elec       q    Type
REMARK                         _______ _______ _______ _____ _____    ______ ____
ROOT
ATOM      1  C   UNL     1       2.524   7.425  18.632  0.00  0.00    +0.000 C 
ATOM      2  C   UNL     1       1.803   8.292  19.365  0.00  0.00    +0.000 C 
ATOM      3  C   UNL     1       1.418   8.088  20.794  0.00  0.00    +0.000 C 
ATOM      4  N   UNL     1       1.332   9.362  21.510  0.00  0.00    +0.000 NA
ATOM      5  C   UNL     1       1.077   9.128  22.930  0.00  0.00    +0.000 C 
ATOM      6  C   UNL     1       0.270  10.178  20.916  0.00  0.00    +0.000 C 
ATOM      7  C   UNL     1       0.563  10.524  19.485  0.00  0.00    +0.000 C 
ATOM      8  C   UNL     1       0.159  11.645  18.855  0.00  0.00    +0.000 C 
ATOM      9  C   UNL     1       1.377   9.556  18.684  0.00  0.00    +0.000 C 
ATOM     10  O   UNL     1       1.652   9.772  17.503  0.00  0.00    +0.000 OA
ENDROOT
BRANCH   8  11
ATOM     11  C   UNL     1      -0.660  12.694  19.467  0.00  0.00    +0.000 A 
ATOM     12  C   UNL     1      -0.107  13.958  19.716  0.00  0.00    +0.000 A 
ATOM     13  C   UNL     1      -0.885  14.958  20.297  0.00  0.00    +0.000 A 
ATOM     14  C   UNL     1      -2.210  14.699  20.625  0.00  0.00    +0.000 A 
ATOM     15  F   UNL     1      -2.956  15.662  21.176  0.00  0.00    +0.000 F 
ATOM     16  C   UNL     1      -2.771  13.449  20.384  0.00  0.00    +0.000 A 
ATOM     17  C   UNL     1      -1.993  12.444  19.807  0.00  0.00    +0.000 A 
ENDBRANCH   8  11
BRANCH   1  20
ATOM     18  C   UNL     1       2.420   3.848  19.740  0.00  0.00    +0.000 A 
ATOM     19  C   UNL     1       2.079   5.202  19.594  0.00  0.00    +0.000 A 
ATOM     20  C   UNL     1       2.988   6.110  19.067  0.00  0.00    +0.000 A 
ATOM     21  C   UNL     1       4.298   5.705  18.847  0.00  0.00    +0.000 A 
ATOM     22  C   UNL     1       4.694   4.377  19.078  0.00  0.00    +0.000 A 
ATOM     23  C   UNL     1       3.746   3.418  19.507  0.00  0.00    +0.000 A 
BRANCH  18  25
ATOM     24  C   UNL     1       1.395   2.685  21.534  0.00  0.00    +0.000 C 
ATOM     25  O   UNL     1       1.458   2.948  20.129  0.00  0.00    +0.000 OA
ENDBRANCH  18  25
BRANCH  22  26
ATOM     26  O   UNL     1       6.026   4.207  18.788  0.00  0.00    +0.000 OA
ATOM     27  C   UNL     1       6.556   4.723  17.578  0.00  0.00    +0.000 C 
ENDBRANCH  22  26
BRANCH  23  28
ATOM     28  O   UNL     1       4.213   2.141  19.670  0.00  0.00    +0.000 OA
ATOM     29  C   UNL     1       3.962   1.144  18.693  0.00  0.00    +0.000 C 
ENDBRANCH  23  28
ENDBRANCH   1  20
TORSDOF 5
ENDMDL
MODEL 4
REMARK VINA RESULT:      -7.1      0.489      1.021
REMARK  Name = 
REMARK  9 active torsions:
REMARK  status: ('A' for Active; 'I' for Inactive)
REMARK    1  A    between atoms: C_1  and  O_2
REMARK    2  A    between atoms: O_2  and  C_3
REMARK    3  A    between atoms: C_5  and  C_6
REMARK    4  A    between atoms: N_9  and  C_10
REMARK    5  A    between atoms: C_13  and  C_14
REMARK    6  A    between atoms: C_24  and  O_25
REMARK    7  A    between atoms: O_25  and  C_26
REMARK    8  A    between atoms: C_27  and  O_28
REMARK    9  A    between atoms: O_28  and  C_29
REMARK                            x       y       z     vdW  Elec       q    Type
REMARK                         _______ _______ _______ _____ _____    ______ ____
ROOT
ATOM      1  C   UNL     1       2.791   7.751  17.892  0.00  0.00    +0.000 C 
ATOM      2  C   UNL     1       2.022   8.446  18.749  0.00  0.00    +0.000 C 
ATOM      3  C   UNL     1       1.556   7.946  20.078  0.00  0.00    +0.000 C 
ATOM      4  N   UNL     1       1.419   9.041  21.040  0.00  0.00    +0.000 NA
ATOM      5  C   UNL     1       1.085   8.512  22.362  0.00  0.00    +0.000 C 
ATOM      6  C   UNL     1       0.386   9.968  20.571  0.00  0.00    +0.000 C 
ATOM      7  C   UNL     1       0.758  10.607  19.265  0.00  0.00    +0.000 C 
ATOM      8  C   UNL     1       0.381  11.837  18.863  0.00  0.00    +0.000 C 
ATOM      9  C   UNL     1       1.624   9.827  18.326  0.00  0.00    +0.000 C 
ATOM     10  O   UNL     1       1.965  10.286  17.236  0.00  0.00    +0.000 OA
ENDROOT
BRANCH   8  11
ATOM     11  C   UNL     1      -0.481  12.736  19.635  0.00  0.00    +0.000 A 
ATOM     12  C   UNL     1      -1.865  12.516  19.677  0.00  0.00    +0.000 A 
ATOM     13  C   UNL     1      -2.686  13.368  20.413  0.00  0.00    +0.000 A 
ATOM     14  C   UNL     1      -2.128  14.436  21.106  0.00  0.00    +0.000 A 
ATOM     15  F   UNL     1      -2.917  15.249  21.815  0.00  0.00    +0.000 F 
ATOM     16  C   UNL     1      -0.756  14.667  21.071  0.00  0.00    +0.000 A 
ATOM     17  C   UNL     1       0.068  13.817  20.332  0.00  0.00    +0.000 A 
ENDBRANCH   8  11
BRANCH   1  20
ATOM     18  C   UNL     1       4.994   4.855  18.785  0.00  0.00    +0.000 A 
ATOM     19  C   UNL     1       4.581   6.114  18.319  0.00  0.00    +0.000 A 
ATOM     20  C   UNL     1       3.240   6.371  18.066  0.00  0.00    +0.000 A 
ATOM     21  C   UNL     1       2.330   5.323  18.108  0.00  0.00    +0.000 A 
ATOM     22  C   UNL     1       2.733   4.028  18.476  0.00  0.00    +0.000 A 
ATOM     23  C   UNL     1       4.076   3.782  18.846  0.00  0.00    +0.000 A 
BRANCH  18  25
ATOM     24  C   UNL     1       7.279   5.015  18.176  0.00  0.00    +0.000 C 
ATOM     25  O   UNL     1       6.302   4.672  19.162  0.00  0.00    +0.000 OA
ENDBRANCH  18  25
BRANCH  22  26
ATOM     26  O   UNL     1       1.669   3.161  18.454  0.00  0.00    +0.000 OA
ATOM     27  C   UNL     1       0.842   3.029  19.598  0.00  0.00    +0.000 C 
ENDBRANCH  22  26
BRANCH  23  28
ATOM     28  O   UNL     1       4.370   2.499  19.226  0.00  0.00    +0.000 OA
ATOM     29  C   UNL     1       4.337   2.119  20.592  0.00  0.00    +0.000 C 
ENDBRANCH  23  28
ENDBRANCH   1  20
TORSDOF 5
ENDMDL
MODEL 5
REMARK VINA RESULT:      -7.1      2.214      3.755
REMARK  Name = 
REMARK  9 active torsions:
REMARK  status: ('A' for Active; 'I' for Inactive)
REMARK    1  A    between atoms: C_1  and  O_2
REMARK    2  A    between atoms: O_2  and  C_3
REMARK    3  A    between atoms: C_5  and  C_6
REMARK    4  A    between atoms: N_9  and  C_10
REMARK    5  A    between atoms: C_13  and  C_14
REMARK    6  A    between atoms: C_24  and  O_25
REMARK    7  A    between atoms: O_25  and  C_26
REMARK    8  A    between atoms: C_27  and  O_28
REMARK    9  A    between atoms: O_28  and  C_29
REMARK                            x       y       z     vdW  Elec       q    Type
REMARK                         _______ _______ _______ _____ _____    ______ ____
ROOT
ATOM      1  C   UNL     1       1.263   7.942  21.386  0.00  0.00    +0.000 C 
ATOM      2  C   UNL     1       0.618   9.071  21.042  0.00  0.00    +0.000 C 
ATOM      3  C   UNL     1       0.286   9.473  19.642  0.00  0.00    +0.000 C 
ATOM      4  N   UNL     1      -0.957  10.245  19.590  0.00  0.00    +0.000 NA
ATOM      5  C   UNL     1      -1.324  10.517  18.201  0.00  0.00    +0.000 C 
ATOM      6  C   UNL     1      -0.780  11.492  20.338  0.00  0.00    +0.000 C 
ATOM      7  C   UNL     1      -0.509  11.239  21.792  0.00  0.00    +0.000 C 
ATOM      8  C   UNL     1      -0.856  12.058  22.805  0.00  0.00    +0.000 C 
ATOM      9  C   UNL     1       0.199   9.972  22.162  0.00  0.00    +0.000 C 
ATOM     10  O   UNL     1       0.458   9.702  23.335  0.00  0.00    +0.000 OA
ENDROOT
BRANCH   8  11
ATOM     11  C   UNL     1      -1.534  13.346  22.637  0.00  0.00    +0.000 A 
ATOM     12  C   UNL     1      -0.781  14.522  22.505  0.00  0.00    +0.000 A 
ATOM     13  C   UNL     1      -1.424  15.748  22.344  0.00  0.00    +0.000 A 
ATOM     14  C   UNL     1      -2.812  15.801  22.311  0.00  0.00    +0.000 A 
ATOM     15  F   UNL     1      -3.426  16.977  22.150  0.00  0.00    +0.000 F 
ATOM     16  C   UNL     1      -3.571  14.642  22.441  0.00  0.00    +0.000 A 
ATOM     17  C   UNL     1      -2.930  13.413  22.608  0.00  0.00    +0.000 A 
ENDBRANCH   8  11
BRANCH   1  20
ATOM     18  C   UNL     1       1.766   4.684  19.604  0.00  0.00    +0.000 A 
ATOM     19  C   UNL     1       1.506   5.611  20.627  0.00  0.00    +0.000 A 
ATOM     20  C   UNL     1       1.818   6.955  20.463  0.00  0.00    +0.000 A 
ATOM     21  C   UNL     1       2.549   7.348  19.350  0.00  0.00    +0.000 A 
ATOM     22  C   UNL     1       2.909   6.423  18.355  0.00  0.00    +0.000 A 
ATOM     23  C   UNL     1       2.497   5.074  18.458  0.00  0.00    +0.000 A 
BRANCH  18  25
ATOM     24  C   UNL     1       1.343   2.867  21.066  0.00  0.00    +0.000 C 
ATOM     25  O   UNL     1       1.320   3.392  19.736  0.00  0.00    +0.000 OA
ENDBRANCH  18  25
BRANCH  22  26
ATOM     26  O   UNL     1       3.619   7.037  17.352  0.00  0.00    +0.000 OA
ATOM     27  C   UNL     1       5.027   6.883  17.289  0.00  0.00    +0.000 C 
ENDBRANCH  22  26
BRANCH  23  28
ATOM     28  O   UNL     1       2.862   4.252  17.426  0.00  0.00    +0.000 OA
ATOM     29  C   UNL     1       3.953   3.356  17.561  0.00  0.00    +0.000 C 
ENDBRANCH  23  28
ENDBRANCH   1  20
TORSDOF 5
ENDMDL
MODEL 6
REMARK VINA RESULT:      -7.1      0.675      2.502
REMARK  Name = 
REMARK  9 active torsions:
REMARK  status: ('A' for Active; 'I' for Inactive)
REMARK    1  A    between atoms: C_1  and  O_2
REMARK    2  A    between atoms: O_2  and  C_3
REMARK    3  A    between atoms: C_5  and  C_6
REMARK    4  A    between atoms: N_9  and  C_10
REMARK    5  A    between atoms: C_13  and  C_14
REMARK    6  A    between atoms: C_24  and  O_25
REMARK    7  A    between atoms: O_25  and  C_26
REMARK    8  A    between atoms: C_27  and  O_28
REMARK    9  A    between atoms: O_28  and  C_29
REMARK                            x       y       z     vdW  Elec       q    Type
REMARK                         _______ _______ _______ _____ _____    ______ ____
ROOT
ATOM      1  C   UNL     1       2.550   7.769  18.193  0.00  0.00    +0.000 C 
ATOM      2  C   UNL     1       1.844   8.575  19.006  0.00  0.00    +0.000 C 
ATOM      3  C   UNL     1       1.412   8.224  20.393  0.00  0.00    +0.000 C 
ATOM      4  N   UNL     1       1.358   9.410  21.249  0.00  0.00    +0.000 NA
ATOM      5  C   UNL     1       1.055   9.024  22.627  0.00  0.00    +0.000 C 
ATOM      6  C   UNL     1       0.344  10.332  20.730  0.00  0.00    +0.000 C 
ATOM      7  C   UNL     1       0.690  10.828  19.357  0.00  0.00    +0.000 C 
ATOM      8  C   UNL     1       0.346  12.030  18.851  0.00  0.00    +0.000 C 
ATOM      9  C   UNL     1       1.486   9.925  18.466  0.00  0.00    +0.000 C 
ATOM     10  O   UNL     1       1.801  10.264  17.326  0.00  0.00    +0.000 OA
ENDROOT
BRANCH   8  11
ATOM     11  C   UNL     1      -0.447  13.035  19.563  0.00  0.00    +0.000 A 
ATOM     12  C   UNL     1       0.154  14.227  19.990  0.00  0.00    +0.000 A 
ATOM     13  C   UNL     1      -0.599  15.186  20.666  0.00  0.00    +0.000 A 
ATOM     14  C   UNL     1      -1.948  14.957  20.911  0.00  0.00    +0.000 A 
ATOM     15  F   UNL     1      -2.670  15.881  21.554  0.00  0.00    +0.000 F 
ATOM     16  C   UNL     1      -2.556  13.778  20.493  0.00  0.00    +0.000 A 
ATOM     17  C   UNL     1      -1.803  12.814  19.821  0.00  0.00    +0.000 A 
ENDBRANCH   8  11
BRANCH   1  20
ATOM     18  C   UNL     1       2.544   4.022  18.162  0.00  0.00    +0.000 A 
ATOM     19  C   UNL     1       2.087   5.349  18.179  0.00  0.00    +0.000 A 
ATOM     20  C   UNL     1       2.951   6.393  18.483  0.00  0.00    +0.000 A 
ATOM     21  C   UNL     1       4.229   6.102  18.941  0.00  0.00    +0.000 A 
ATOM     22  C   UNL     1       4.683   4.775  19.027  0.00  0.00    +0.000 A 
ATOM     23  C   UNL     1       3.848   3.712  18.612  0.00  0.00    +0.000 A 
BRANCH  18  25
ATOM     24  C   UNL     1       0.843   2.466  18.713  0.00  0.00    +0.000 C 
ATOM     25  O   UNL     1       1.708   3.026  17.721  0.00  0.00    +0.000 OA
ENDBRANCH  18  25
BRANCH  22  26
ATOM     26  O   UNL     1       5.973   4.730  19.497  0.00  0.00    +0.000 OA
ATOM     27  C   UNL     1       6.955   5.590  18.944  0.00  0.00    +0.000 C 
ENDBRANCH  22  26
BRANCH  23  28
ATOM     28  O   UNL     1       4.387   2.455  18.696  0.00  0.00    +0.000 OA
ATOM     29  C   UNL     1       4.418   1.760  19.932  0.00  0.00    +0.000 C 
ENDBRANCH  23  28
ENDBRANCH   1  20
TORSDOF 5
ENDMDL
MODEL 7
REMARK VINA RESULT:      -7.0      5.041     10.878
REMARK  Name = 
REMARK  9 active torsions:
REMARK  status: ('A' for Active; 'I' for Inactive)
REMARK    1  A    between atoms: C_1  and  O_2
REMARK    2  A    between atoms: O_2  and  C_3
REMARK    3  A    between atoms: C_5  and  C_6
REMARK    4  A    between atoms: N_9  and  C_10
REMARK    5  A    between atoms: C_13  and  C_14
REMARK    6  A    between atoms: C_24  and  O_25
REMARK    7  A    between atoms: O_25  and  C_26
REMARK    8  A    between atoms: C_27  and  O_28
REMARK    9  A    between atoms: O_28  and  C_29
REMARK                            x       y       z     vdW  Elec       q    Type
REMARK                         _______ _______ _______ _____ _____    ______ ____
ROOT
ATOM      1  C   UNL     1      -1.519  11.919  23.359  0.00  0.00    +0.000 C 
ATOM      2  C   UNL     1      -1.105  11.286  22.247  0.00  0.00    +0.000 C 
ATOM      3  C   UNL     1      -1.535  11.629  20.858  0.00  0.00    +0.000 C 
ATOM      4  N   UNL     1      -0.473  11.357  19.888  0.00  0.00    +0.000 NA
ATOM      5  C   UNL     1      -0.872  11.816  18.559  0.00  0.00    +0.000 C 
ATOM      6  C   UNL     1      -0.186   9.920  19.880  0.00  0.00    +0.000 C 
ATOM      7  C   UNL     1       0.330   9.445  21.207  0.00  0.00    +0.000 C 
ATOM      8  C   UNL     1       1.185   8.418  21.389  0.00  0.00    +0.000 C 
ATOM      9  C   UNL     1      -0.129  10.165  22.436  0.00  0.00    +0.000 C 
ATOM     10  O   UNL     1       0.249   9.827  23.557  0.00  0.00    +0.000 OA
ENDROOT
BRANCH   8  11
ATOM     11  C   UNL     1       1.725   7.585  20.312  0.00  0.00    +0.000 A 
ATOM     12  C   UNL     1       1.813   6.195  20.479  0.00  0.00    +0.000 A 
ATOM     13  C   UNL     1       2.324   5.400  19.455  0.00  0.00    +0.000 A 
ATOM     14  C   UNL     1       2.744   5.989  18.268  0.00  0.00    +0.000 A 
ATOM     15  F   UNL     1       3.229   5.223  17.285  0.00  0.00    +0.000 F 
ATOM     16  C   UNL     1       2.664   7.366  18.091  0.00  0.00    +0.000 A 
ATOM     17  C   UNL     1       2.156   8.165  19.116  0.00  0.00    +0.000 A 
ENDBRANCH   8  11
BRANCH   1  20
ATOM     18  C   UNL     1      -4.819  13.636  23.807  0.00  0.00    +0.000 A 
ATOM     19  C   UNL     1      -3.863  12.671  23.451  0.00  0.00    +0.000 A 
ATOM     20  C   UNL     1      -2.512  12.990  23.419  0.00  0.00    +0.000 A 
ATOM     21  C   UNL     1      -2.125  14.314  23.572  0.00  0.00    +0.000 A 
ATOM     22  C   UNL     1      -3.071  15.320  23.832  0.00  0.00    +0.000 A 
ATOM     23  C   UNL     1      -4.438  14.987  23.979  0.00  0.00    +0.000 A 
BRANCH  18  25
ATOM     24  C   UNL     1      -6.811  12.879  22.770  0.00  0.00    +0.000 C 
ATOM     25  O   UNL     1      -6.130  13.260  23.968  0.00  0.00    +0.000 OA
ENDBRANCH  18  25
BRANCH  22  26
ATOM     26  O   UNL     1      -2.462  16.545  23.951  0.00  0.00    +0.000 OA
ATOM     27  C   UNL     1      -2.016  16.991  25.221  0.00  0.00    +0.000 C 
ENDBRANCH  22  26
BRANCH  23  28
ATOM     28  O   UNL     1      -5.283  16.025  24.268  0.00  0.00    +0.000 OA
ATOM     29  C   UNL     1      -5.959  16.722  23.234  0.00  0.00    +0.000 C 
ENDBRANCH  23  28
ENDBRANCH   1  20
TORSDOF 5
ENDMDL
MODEL 8
REMARK VINA RESULT:      -7.0      4.983     10.818
REMARK  Name = 
REMARK  9 active torsions:
REMARK  status: ('A' for Active; 'I' for Inactive)
REMARK    1  A    between atoms: C_1  and  O_2
REMARK    2  A    between atoms: O_2  and  C_3
REMARK    3  A    between atoms: C_5  and  C_6
REMARK    4  A    between atoms: N_9  and  C_10
REMARK    5  A    between atoms: C_13  and  C_14
REMARK    6  A    between atoms: C_24  and  O_25
REMARK    7  A    between atoms: O_25  and  C_26
REMARK    8  A    between atoms: C_27  and  O_28
REMARK    9  A    between atoms: O_28  and  C_29
REMARK                            x       y       z     vdW  Elec       q    Type
REMARK                         _______ _______ _______ _____ _____    ______ ____
ROOT
ATOM      1  C   UNL     1      -1.530  11.895  23.323  0.00  0.00    +0.000 C 
ATOM      2  C   UNL     1      -1.105  11.273  22.209  0.00  0.00    +0.000 C 
ATOM      3  C   UNL     1      -1.532  11.619  20.820  0.00  0.00    +0.000 C 
ATOM      4  N   UNL     1      -0.463  11.362  19.854  0.00  0.00    +0.000 NA
ATOM      5  C   UNL     1      -0.860  11.824  18.525  0.00  0.00    +0.000 C 
ATOM      6  C   UNL     1      -0.162   9.928  19.840  0.00  0.00    +0.000 C 
ATOM      7  C   UNL     1       0.353   9.451  21.166  0.00  0.00    +0.000 C 
ATOM      8  C   UNL     1       1.217   8.432  21.347  0.00  0.00    +0.000 C 
ATOM      9  C   UNL     1      -0.119  10.161  22.397  0.00  0.00    +0.000 C 
ATOM     10  O   UNL     1       0.257   9.820  23.519  0.00  0.00    +0.000 OA
ENDROOT
BRANCH   8  11
ATOM     11  C   UNL     1       1.770   7.609  20.269  0.00  0.00    +0.000 A 
ATOM     12  C   UNL     1       2.199   8.212  19.078  0.00  0.00    +0.000 A 
ATOM     13  C   UNL     1       2.728   7.431  18.051  0.00  0.00    +0.000 A 
ATOM     14  C   UNL     1       2.831   6.055  18.214  0.00  0.00    +0.000 A 
ATOM     15  F   UNL     1       3.344   5.309  17.230  0.00  0.00    +0.000 F 
ATOM     16  C   UNL     1       2.408   5.444  19.390  0.00  0.00    +0.000 A 
ATOM     17  C   UNL     1       1.874   6.223  20.418  0.00  0.00    +0.000 A 
ENDBRANCH   8  11
BRANCH   1  20
ATOM     18  C   UNL     1      -4.828  13.594  23.857  0.00  0.00    +0.000 A 
ATOM     19  C   UNL     1      -3.877  12.624  23.498  0.00  0.00    +0.000 A 
ATOM     20  C   UNL     1      -2.533  12.957  23.383  0.00  0.00    +0.000 A 
ATOM     21  C   UNL     1      -2.158  14.291  23.456  0.00  0.00    +0.000 A 
ATOM     22  C   UNL     1      -3.104  15.297  23.718  0.00  0.00    +0.000 A 
ATOM     23  C   UNL     1      -4.457  14.955  23.948  0.00  0.00    +0.000 A 
BRANCH  18  25
ATOM     24  C   UNL     1      -6.858  12.767  22.957  0.00  0.00    +0.000 C 
ATOM     25  O   UNL     1      -6.123  13.210  24.101  0.00  0.00    +0.000 OA
ENDBRANCH  18  25
BRANCH  22  26
ATOM     26  O   UNL     1      -2.506  16.533  23.749  0.00  0.00    +0.000 OA
ATOM     27  C   UNL     1      -2.246  17.222  22.538  0.00  0.00    +0.000 C 
ENDBRANCH  22  26
BRANCH  23  28
ATOM     28  O   UNL     1      -5.301  15.996  24.232  0.00  0.00    +0.000 OA
ATOM     29  C   UNL     1      -6.047  16.627  23.204  0.00  0.00    +0.000 C 
ENDBRANCH  23  28
ENDBRANCH   1  20
TORSDOF 5
ENDMDL
MODEL 9
REMARK VINA RESULT:      -7.0      2.250      2.985
REMARK  Name = 
REMARK  9 active torsions:
REMARK  status: ('A' for Active; 'I' for Inactive)
REMARK    1  A    between atoms: C_1  and  O_2
REMARK    2  A    between atoms: O_2  and  C_3
REMARK    3  A    between atoms: C_5  and  C_6
REMARK    4  A    between atoms: N_9  and  C_10
REMARK    5  A    between atoms: C_13  and  C_14
REMARK    6  A    between atoms: C_24  and  O_25
REMARK    7  A    between atoms: O_25  and  C_26
REMARK    8  A    between atoms: C_27  and  O_28
REMARK    9  A    between atoms: O_28  and  C_29
REMARK                            x       y       z     vdW  Elec       q    Type
REMARK                         _______ _______ _______ _____ _____    ______ ____
ROOT
ATOM      1  C   UNL     1       2.190   7.446  19.957  0.00  0.00    +0.000 C 
ATOM      2  C   UNL     1       1.387   8.524  19.924  0.00  0.00    +0.000 C 
ATOM      3  C   UNL     1       0.861   9.161  18.679  0.00  0.00    +0.000 C 
ATOM      4  N   UNL     1      -0.460   9.751  18.899  0.00  0.00    +0.000 NA
ATOM      5  C   UNL     1      -1.005  10.256  17.640  0.00  0.00    +0.000 C 
ATOM      6  C   UNL     1      -0.348  10.827  19.889  0.00  0.00    +0.000 C 
ATOM      7  C   UNL     1       0.106  10.314  21.224  0.00  0.00    +0.000 C 
ATOM      8  C   UNL     1      -0.221  10.849  22.417  0.00  0.00    +0.000 C 
ATOM      9  C   UNL     1       0.990   9.106  21.246  0.00  0.00    +0.000 C 
ATOM     10  O   UNL     1       1.405   8.634  22.305  0.00  0.00    +0.000 OA
ENDROOT
BRANCH   8  11
ATOM     11  C   UNL     1      -1.056  12.039  22.594  0.00  0.00    +0.000 A 
ATOM     12  C   UNL     1      -2.383  11.906  23.028  0.00  0.00    +0.000 A 
ATOM     13  C   UNL     1      -3.178  13.038  23.199  0.00  0.00    +0.000 A 
ATOM     14  C   UNL     1      -2.651  14.298  22.941  0.00  0.00    +0.000 A 
ATOM     15  F   UNL     1      -3.415  15.382  23.112  0.00  0.00    +0.000 F 
ATOM     16  C   UNL     1      -1.337  14.443  22.509  0.00  0.00    +0.000 A 
ATOM     17  C   UNL     1      -0.539  13.312  22.333  0.00  0.00    +0.000 A 
ENDBRANCH   8  11
BRANCH   1  20
ATOM     18  C   UNL     1       4.541   6.606  17.162  0.00  0.00    +0.000 A 
ATOM     19  C   UNL     1       3.784   7.351  18.080  0.00  0.00    +0.000 A 
ATOM     20  C   UNL     1       2.752   6.758  18.796  0.00  0.00    +0.000 A 
ATOM     21  C   UNL     1       2.359   5.467  18.471  0.00  0.00    +0.000 A 
ATOM     22  C   UNL     1       3.036   4.729  17.486  0.00  0.00    +0.000 A 
ATOM     23  C   UNL     1       4.161   5.284  16.832  0.00  0.00    +0.000 A 
BRANCH  18  25
ATOM     24  C   UNL     1       6.834   7.169  17.367  0.00  0.00    +0.000 C 
ATOM     25  O   UNL     1       5.643   7.178  16.575  0.00  0.00    +0.000 OA
ENDBRANCH  18  25
BRANCH  22  26
ATOM     26  O   UNL     1       2.479   3.482  17.339  0.00  0.00    +0.000 OA
ATOM     27  C   UNL     1       2.864   2.431  18.208  0.00  0.00    +0.000 C 
ENDBRANCH  22  26
BRANCH  23  28
ATOM     28  O   UNL     1       4.781   4.481  15.913  0.00  0.00    +0.000 OA
ATOM     29  C   UNL     1       5.969   3.780  16.244  0.00  0.00    +0.000 C 
ENDBRANCH  23  28
ENDBRANCH   1  20
TORSDOF 5
ENDMDL
