MODEL 1
REMARK VINA RESULT:      -8.4      0.000      0.000
REMARK  Name = 
REMARK  6 active torsions:
REMARK  status: ('A' for Active; 'I' for Inactive)
REMARK    1  A    between atoms: C_1  and  C_2
REMARK    2  A    between atoms: C_2  and  N_3
REMARK    3  A    between atoms: C_5  and  C_6
REMARK    4  A    between atoms: C_11  and  N_12
REMARK    5  A    between atoms: C_24  and  N_25
REMARK    6  A    between atoms: N_28  and  C_29
REMARK                            x       y       z     vdW  Elec       q    Type
REMARK                         _______ _______ _______ _____ _____    ______ ____
ROOT
ATOM      1  N   UNL     1      -0.441  10.776  19.073  0.00  0.00    +0.000 N 
ATOM      2  C   UNL     1       0.471   9.745  18.997  0.00  0.00    +0.000 A 
ATOM      3  C   UNL     1       1.029   9.073  20.012  0.00  0.00    +0.000 A 
ATOM      4  C   UNL     1       0.634   9.475  21.386  0.00  0.00    +0.000 A 
ATOM      5  O   UNL     1       1.119   8.934  22.377  0.00  0.00    +0.000 OA
ATOM      6  C   UNL     1      -0.384  10.568  21.507  0.00  0.00    +0.000 A 
ATOM      7  C   UNL     1      -0.842  10.947  22.773  0.00  0.00    +0.000 A 
ATOM      8  C   UNL     1      -1.739  12.007  22.890  0.00  0.00    +0.000 A 
ATOM      9  F   UNL     1      -2.116  12.368  24.128  0.00  0.00    +0.000 F 
ATOM     10  C   UNL     1      -2.192  12.735  21.774  0.00  0.00    +0.000 A 
ATOM     11  C   UNL     1      -1.744  12.298  20.519  0.00  0.00    +0.000 A 
ATOM     12  C   UNL     1      -0.863  11.210  20.350  0.00  0.00    +0.000 A 
ENDROOT
BRANCH   3  13
ATOM     13  C   UNL     1       1.826   7.949  19.691  0.00  0.00    +0.000 A 
ATOM     14  N   UNL     1       2.553   7.783  18.603  0.00  0.00    +0.000 NA
ATOM     15  C   UNL     1       2.981   6.497  18.636  0.00  0.00    +0.000 A 
ATOM     16  C   UNL     1       3.613   5.771  17.625  0.00  0.00    +0.000 A 
ATOM     17  C   UNL     1       3.950   4.441  17.867  0.00  0.00    +0.000 A 
ATOM     18  C   UNL     1       3.749   3.888  19.141  0.00  0.00    +0.000 A 
ATOM     19  C   UNL     1       3.124   4.609  20.184  0.00  0.00    +0.000 A 
ATOM     20  C   UNL     1       2.688   5.898  19.855  0.00  0.00    +0.000 A 
ATOM     21  N   UNL     1       1.883   6.825  20.488  0.00  0.00    +0.000 N 
ATOM     22  H   UNL     1       1.315   6.672  21.314  0.00  0.00    +0.000 HD
BRANCH  18  23
ATOM     23  N   UNL     1       4.187   2.505  19.379  0.00  0.00    +0.000 N 
ATOM     24  O   UNL     1       3.711   1.617  18.658  0.00  0.00    +0.000 OA
ATOM     25  O   UNL     1       5.006   2.311  20.289  0.00  0.00    +0.000 OA
ENDBRANCH  18  23
ENDBRANCH   3  13
BRANCH  10  26
ATOM     26  N   UNL     1      -2.959  13.888  21.912  0.00  0.00    +0.000 N 
ATOM     27  C   UNL     1      -2.576  15.138  21.237  0.00  0.00    +0.000 C 
ATOM     28  C   UNL     1      -3.102  16.340  22.053  0.00  0.00    +0.000 C 
ATOM     29  N   UNL     1      -4.568  16.297  22.250  0.00  0.00    +0.000 NA
ATOM     30  C   UNL     1      -4.992  17.419  23.088  0.00  0.00    +0.000 C 
ATOM     31  C   UNL     1      -4.945  15.006  22.881  0.00  0.00    +0.000 C 
ATOM     32  C   UNL     1      -4.416  13.768  22.110  0.00  0.00    +0.000 C 
ENDBRANCH  10  26
BRANCH   1  34
ATOM     33  C   UNL     1      -2.091  10.227  17.334  0.00  0.00    +0.000 C 
ATOM     34  C   UNL     1      -1.104  11.259  17.848  0.00  0.00    +0.000 C 
ENDBRANCH   1  34
TORSDOF 4
ENDMDL
MODEL 2
REMARK VINA RESULT:      -8.3      0.434      1.075
REMARK  Name = 
REMARK  6 active torsions:
REMARK  status: ('A' for Active; 'I' for Inactive)
REMARK    1  A    between atoms: C_1  and  C_2
REMARK    2  A    between atoms: C_2  and  N_3
REMARK    3  A    between atoms: C_5  and  C_6
REMARK    4  A    between atoms: C_11  and  N_12
REMARK    5  A    between atoms: C_24  and  N_25
REMARK    6  A    between atoms: N_28  and  C_29
REMARK                            x       y       z     vdW  Elec       q    Type
REMARK                         _______ _______ _______ _____ _____    ______ ____
ROOT
ATOM      1  N   UNL     1      -0.464  10.637  19.030  0.00  0.00    +0.000 N 
ATOM      2  C   UNL     1       0.449   9.607  18.961  0.00  0.00    +0.000 A 
ATOM      3  C   UNL     1       1.031   8.964  19.982  0.00  0.00    +0.000 A 
ATOM      4  C   UNL     1       0.663   9.402  21.353  0.00  0.00    +0.000 A 
ATOM      5  O   UNL     1       1.171   8.888  22.348  0.00  0.00    +0.000 OA
ATOM      6  C   UNL     1      -0.356  10.494  21.466  0.00  0.00    +0.000 A 
ATOM      7  C   UNL     1      -0.789  10.905  22.731  0.00  0.00    +0.000 A 
ATOM      8  C   UNL     1      -1.687  11.965  22.838  0.00  0.00    +0.000 A 
ATOM      9  F   UNL     1      -2.040  12.358  24.073  0.00  0.00    +0.000 F 
ATOM     10  C   UNL     1      -2.166  12.662  21.713  0.00  0.00    +0.000 A 
ATOM     11  C   UNL     1      -1.743  12.193  20.461  0.00  0.00    +0.000 A 
ATOM     12  C   UNL     1      -0.861  11.103  20.303  0.00  0.00    +0.000 A 
ENDROOT
BRANCH   3  13
ATOM     13  C   UNL     1       1.826   7.834  19.675  0.00  0.00    +0.000 A 
ATOM     14  N   UNL     1       2.596   7.678  18.616  0.00  0.00    +0.000 NA
ATOM     15  C   UNL     1       3.005   6.385  18.643  0.00  0.00    +0.000 A 
ATOM     16  C   UNL     1       3.669   5.668  17.647  0.00  0.00    +0.000 A 
ATOM     17  C   UNL     1       3.977   4.329  17.878  0.00  0.00    +0.000 A 
ATOM     18  C   UNL     1       3.713   3.757  19.132  0.00  0.00    +0.000 A 
ATOM     19  C   UNL     1       3.054   4.467  20.160  0.00  0.00    +0.000 A 
ATOM     20  C   UNL     1       2.651   5.769  19.837  0.00  0.00    +0.000 A 
ATOM     21  N   UNL     1       1.832   6.696  20.452  0.00  0.00    +0.000 N 
ATOM     22  H   UNL     1       1.227   6.536  21.250  0.00  0.00    +0.000 HD
BRANCH  18  23
ATOM     23  N   UNL     1       4.122   2.363  19.363  0.00  0.00    +0.000 N 
ATOM     24  O   UNL     1       4.851   2.130  20.338  0.00  0.00    +0.000 OA
ATOM     25  O   UNL     1       3.713   1.506  18.567  0.00  0.00    +0.000 OA
ENDBRANCH  18  23
ENDBRANCH   3  13
BRANCH  10  26
ATOM     26  N   UNL     1      -2.935  13.815  21.836  0.00  0.00    +0.000 N 
ATOM     27  C   UNL     1      -4.341  13.747  22.264  0.00  0.00    +0.000 C 
ATOM     28  C   UNL     1      -5.115  14.943  21.667  0.00  0.00    +0.000 C 
ATOM     29  N   UNL     1      -4.530  16.247  22.051  0.00  0.00    +0.000 NA
ATOM     30  C   UNL     1      -5.262  17.333  21.398  0.00  0.00    +0.000 C 
ATOM     31  C   UNL     1      -3.096  16.280  21.663  0.00  0.00    +0.000 C 
ATOM     32  C   UNL     1      -2.283  15.082  22.219  0.00  0.00    +0.000 C 
ENDBRANCH  10  26
BRANCH   1  34
ATOM     33  C   UNL     1      -2.302  10.151  17.468  0.00  0.00    +0.000 C 
ATOM     34  C   UNL     1      -1.154  11.085  17.806  0.00  0.00    +0.000 C 
ENDBRANCH   1  34
TORSDOF 4
ENDMDL
MODEL 3
REMARK VINA RESULT:      -8.3      2.470      3.380
REMARK  Name = 
REMARK  6 active torsions:
REMARK  status: ('A' for Active; 'I' for Inactive)
REMARK    1  A    between atoms: C_1  and  C_2
REMARK    2  A    between atoms: C_2  and  N_3
REMARK    3  A    between atoms: C_5  and  C_6
REMARK    4  A    between atoms: C_11  and  N_12
REMARK    5  A    between atoms: C_24  and  N_25
REMARK    6  A    between atoms: N_28  and  C_29
REMARK                            x       y       z     vdW  Elec       q    Type
REMARK                         _______ _______ _______ _____ _____    ______ ____
ROOT
ATOM      1  N   UNL     1       0.020   9.208  20.903  0.00  0.00    +0.000 N 
ATOM      2  C   UNL     1       0.894   8.337  20.289  0.00  0.00    +0.000 A 
ATOM      3  C   UNL     1       1.609   8.549  19.177  0.00  0.00    +0.000 A 
ATOM      4  C   UNL     1       1.451   9.869  18.514  0.00  0.00    +0.000 A 
ATOM      5  O   UNL     1       2.045  10.138  17.472  0.00  0.00    +0.000 OA
ATOM      6  C   UNL     1       0.537  10.855  19.175  0.00  0.00    +0.000 A 
ATOM      7  C   UNL     1       0.397  12.136  18.632  0.00  0.00    +0.000 A 
ATOM      8  C   UNL     1      -0.503  13.031  19.209  0.00  0.00    +0.000 A 
ATOM      9  F   UNL     1      -0.641  14.234  18.627  0.00  0.00    +0.000 F 
ATOM     10  C   UNL     1      -1.301  12.687  20.315  0.00  0.00    +0.000 A 
ATOM     11  C   UNL     1      -1.101  11.409  20.858  0.00  0.00    +0.000 A 
ATOM     12  C   UNL     1      -0.178  10.483  20.328  0.00  0.00    +0.000 A 
ENDROOT
BRANCH   3  13
ATOM     13  C   UNL     1       2.558   7.565  18.813  0.00  0.00    +0.000 A 
ATOM     14  N   UNL     1       2.758   6.405  19.408  0.00  0.00    +0.000 NA
ATOM     15  C   UNL     1       3.879   5.889  18.846  0.00  0.00    +0.000 A 
ATOM     16  C   UNL     1       4.620   4.780  19.258  0.00  0.00    +0.000 A 
ATOM     17  C   UNL     1       5.764   4.435  18.541  0.00  0.00    +0.000 A 
ATOM     18  C   UNL     1       6.091   5.132  17.368  0.00  0.00    +0.000 A 
ATOM     19  C   UNL     1       5.347   6.248  16.924  0.00  0.00    +0.000 A 
ATOM     20  C   UNL     1       4.282   6.635  17.746  0.00  0.00    +0.000 A 
ATOM     21  N   UNL     1       3.463   7.747  17.788  0.00  0.00    +0.000 N 
ATOM     22  H   UNL     1       3.581   8.607  17.266  0.00  0.00    +0.000 HD
BRANCH  18  23
ATOM     23  N   UNL     1       7.262   4.689  16.597  0.00  0.00    +0.000 N 
ATOM     24  O   UNL     1       8.192   4.154  17.218  0.00  0.00    +0.000 OA
ATOM     25  O   UNL     1       7.249   4.879  15.373  0.00  0.00    +0.000 OA
ENDBRANCH  18  23
ENDBRANCH   3  13
BRANCH  10  26
ATOM     26  N   UNL     1      -2.306  13.527  20.784  0.00  0.00    +0.000 N 
ATOM     27  C   UNL     1      -3.716  13.104  20.769  0.00  0.00    +0.000 C 
ATOM     28  C   UNL     1      -4.622  14.350  20.650  0.00  0.00    +0.000 C 
ATOM     29  N   UNL     1      -4.395  15.324  21.741  0.00  0.00    +0.000 NA
ATOM     30  C   UNL     1      -5.228  16.509  21.533  0.00  0.00    +0.000 C 
ATOM     31  C   UNL     1      -2.958  15.699  21.780  0.00  0.00    +0.000 C 
ATOM     32  C   UNL     1      -2.008  14.476  21.873  0.00  0.00    +0.000 C 
ENDBRANCH  10  26
BRANCH   1  34
ATOM     33  C   UNL     1       0.357   9.464  23.327  0.00  0.00    +0.000 C 
ATOM     34  C   UNL     1      -0.523   8.881  22.235  0.00  0.00    +0.000 C 
ENDBRANCH   1  34
TORSDOF 4
ENDMDL
MODEL 4
REMARK VINA RESULT:      -8.2      2.523      3.072
REMARK  Name = 
REMARK  6 active torsions:
REMARK  status: ('A' for Active; 'I' for Inactive)
REMARK    1  A    between atoms: C_1  and  C_2
REMARK    2  A    between atoms: C_2  and  N_3
REMARK    3  A    between atoms: C_5  and  C_6
REMARK    4  A    between atoms: C_11  and  N_12
REMARK    5  A    between atoms: C_24  and  N_25
REMARK    6  A    between atoms: N_28  and  C_29
REMARK                            x       y       z     vdW  Elec       q    Type
REMARK                         _______ _______ _______ _____ _____    ______ ____
ROOT
ATOM      1  N   UNL     1       1.213  10.731  19.013  0.00  0.00    +0.000 N 
ATOM      2  C   UNL     1       1.926   9.662  18.515  0.00  0.00    +0.000 A 
ATOM      3  C   UNL     1       2.069   8.450  19.066  0.00  0.00    +0.000 A 
ATOM      4  C   UNL     1       1.390   8.215  20.366  0.00  0.00    +0.000 A 
ATOM      5  O   UNL     1       1.493   7.142  20.958  0.00  0.00    +0.000 OA
ATOM      6  C   UNL     1       0.575   9.343  20.920  0.00  0.00    +0.000 A 
ATOM      7  C   UNL     1      -0.139   9.159  22.109  0.00  0.00    +0.000 A 
ATOM      8  C   UNL     1      -0.844  10.228  22.657  0.00  0.00    +0.000 A 
ATOM      9  F   UNL     1      -1.476  10.022  23.825  0.00  0.00    +0.000 F 
ATOM     10  C   UNL     1      -0.851  11.507  22.069  0.00  0.00    +0.000 A 
ATOM     11  C   UNL     1      -0.160  11.640  20.855  0.00  0.00    +0.000 A 
ATOM     12  C   UNL     1       0.540  10.578  20.246  0.00  0.00    +0.000 A 
ENDROOT
BRANCH   3  13
ATOM     13  C   UNL     1       2.724   7.457  18.299  0.00  0.00    +0.000 A 
ATOM     14  N   UNL     1       2.476   6.162  18.310  0.00  0.00    +0.000 NA
ATOM     15  C   UNL     1       3.463   5.589  17.578  0.00  0.00    +0.000 A 
ATOM     16  C   UNL     1       3.768   4.233  17.449  0.00  0.00    +0.000 A 
ATOM     17  C   UNL     1       4.851   3.863  16.655  0.00  0.00    +0.000 A 
ATOM     18  C   UNL     1       5.546   4.836  15.921  0.00  0.00    +0.000 A 
ATOM     19  C   UNL     1       5.246   6.213  16.025  0.00  0.00    +0.000 A 
ATOM     20  C   UNL     1       4.233   6.548  16.932  0.00  0.00    +0.000 A 
ATOM     21  N   UNL     1       3.787   7.740  17.468  0.00  0.00    +0.000 N 
ATOM     22  H   UNL     1       4.234   8.646  17.388  0.00  0.00    +0.000 HD
BRANCH  18  23
ATOM     23  N   UNL     1       6.634   4.397  15.035  0.00  0.00    +0.000 N 
ATOM     24  O   UNL     1       7.786   4.757  15.316  0.00  0.00    +0.000 OA
ATOM     25  O   UNL     1       6.333   3.695  14.060  0.00  0.00    +0.000 OA
ENDBRANCH  18  23
ENDBRANCH   3  13
BRANCH  10  26
ATOM     26  N   UNL     1      -1.424  12.604  22.704  0.00  0.00    +0.000 N 
ATOM     27  C   UNL     1      -0.765  13.920  22.684  0.00  0.00    +0.000 C 
ATOM     28  C   UNL     1      -1.167  14.711  23.949  0.00  0.00    +0.000 C 
ATOM     29  N   UNL     1      -2.632  14.877  24.075  0.00  0.00    +0.000 NA
ATOM     30  C   UNL     1      -2.950  15.569  25.325  0.00  0.00    +0.000 C 
ATOM     31  C   UNL     1      -3.287  13.544  24.037  0.00  0.00    +0.000 C 
ATOM     32  C   UNL     1      -2.892  12.703  22.795  0.00  0.00    +0.000 C 
ENDBRANCH  10  26
BRANCH   1  34
ATOM     33  C   UNL     1       2.214  12.826  18.200  0.00  0.00    +0.000 C 
ATOM     34  C   UNL     1       0.995  11.921  18.171  0.00  0.00    +0.000 C 
ENDBRANCH   1  34
TORSDOF 4
ENDMDL
MODEL 5
REMARK VINA RESULT:      -8.1      1.970      2.360
REMARK  Name = 
REMARK  6 active torsions:
REMARK  status: ('A' for Active; 'I' for Inactive)
REMARK    1  A    between atoms: C_1  and  C_2
REMARK    2  A    between atoms: C_2  and  N_3
REMARK    3  A    between atoms: C_5  and  C_6
REMARK    4  A    between atoms: C_11  and  N_12
REMARK    5  A    between atoms: C_24  and  N_25
REMARK    6  A    between atoms: N_28  and  C_29
REMARK                            x       y       z     vdW  Elec       q    Type
REMARK                         _______ _______ _______ _____ _____    ______ ____
ROOT
ATOM      1  N   UNL     1      -0.379  10.455  18.413  0.00  0.00    +0.000 N 
ATOM      2  C   UNL     1       0.629   9.559  18.124  0.00  0.00    +0.000 A 
ATOM      3  C   UNL     1       1.402   8.894  18.991  0.00  0.00    +0.000 A 
ATOM      4  C   UNL     1       1.163   9.142  20.436  0.00  0.00    +0.000 A 
ATOM      5  O   UNL     1       1.846   8.598  21.301  0.00  0.00    +0.000 OA
ATOM      6  C   UNL     1       0.050  10.081  20.789  0.00  0.00    +0.000 A 
ATOM      7  C   UNL     1      -0.264  10.303  22.133  0.00  0.00    +0.000 A 
ATOM      8  C   UNL     1      -1.255  11.226  22.463  0.00  0.00    +0.000 A 
ATOM      9  F   UNL     1      -1.491  11.445  23.767  0.00  0.00    +0.000 F 
ATOM     10  C   UNL     1      -1.946  11.968  21.487  0.00  0.00    +0.000 A 
ATOM     11  C   UNL     1      -1.634  11.685  20.149  0.00  0.00    +0.000 A 
ATOM     12  C   UNL     1      -0.663  10.736  19.768  0.00  0.00    +0.000 A 
ENDROOT
BRANCH   3  13
ATOM     13  C   UNL     1       2.274   7.910  18.468  0.00  0.00    +0.000 A 
ATOM     14  N   UNL     1       2.264   6.621  18.747  0.00  0.00    +0.000 NA
ATOM     15  C   UNL     1       3.383   6.110  18.175  0.00  0.00    +0.000 A 
ATOM     16  C   UNL     1       3.937   4.840  18.344  0.00  0.00    +0.000 A 
ATOM     17  C   UNL     1       5.116   4.529  17.672  0.00  0.00    +0.000 A 
ATOM     18  C   UNL     1       5.667   5.447  16.764  0.00  0.00    +0.000 A 
ATOM     19  C   UNL     1       5.117   6.733  16.567  0.00  0.00    +0.000 A 
ATOM     20  C   UNL     1       4.005   7.046  17.359  0.00  0.00    +0.000 A 
ATOM     21  N   UNL     1       3.317   8.215  17.620  0.00  0.00    +0.000 N 
ATOM     22  H   UNL     1       3.597   9.154  17.360  0.00  0.00    +0.000 HD
BRANCH  18  23
ATOM     23  N   UNL     1       6.871   5.053  16.017  0.00  0.00    +0.000 N 
ATOM     24  O   UNL     1       7.755   4.438  16.631  0.00  0.00    +0.000 OA
ATOM     25  O   UNL     1       6.929   5.360  14.819  0.00  0.00    +0.000 OA
ENDBRANCH  18  23
ENDBRANCH   3  13
BRANCH  10  26
ATOM     26  N   UNL     1      -2.818  12.997  21.829  0.00  0.00    +0.000 N 
ATOM     27  C   UNL     1      -2.316  14.349  22.123  0.00  0.00    +0.000 C 
ATOM     28  C   UNL     1      -3.284  15.052  23.101  0.00  0.00    +0.000 C 
ATOM     29  N   UNL     1      -4.666  15.126  22.577  0.00  0.00    +0.000 NA
ATOM     30  C   UNL     1      -5.546  15.735  23.575  0.00  0.00    +0.000 C 
ATOM     31  C   UNL     1      -5.139  13.760  22.232  0.00  0.00    +0.000 C 
ATOM     32  C   UNL     1      -4.183  13.005  21.271  0.00  0.00    +0.000 C 
ENDBRANCH  10  26
BRANCH   1  34
ATOM     33  C   UNL     1      -2.195   9.827  16.877  0.00  0.00    +0.000 C 
ATOM     34  C   UNL     1      -1.263  10.934  17.335  0.00  0.00    +0.000 C 
ENDBRANCH   1  34
TORSDOF 4
ENDMDL
MODEL 6
REMARK VINA RESULT:      -8.1      1.162      1.502
REMARK  Name = 
REMARK  6 active torsions:
REMARK  status: ('A' for Active; 'I' for Inactive)
REMARK    1  A    between atoms: C_1  and  C_2
REMARK    2  A    between atoms: C_2  and  N_3
REMARK    3  A    between atoms: C_5  and  C_6
REMARK    4  A    between atoms: C_11  and  N_12
REMARK    5  A    between atoms: C_24  and  N_25
REMARK    6  A    between atoms: N_28  and  C_29
REMARK                            x       y       z     vdW  Elec       q    Type
REMARK                         _______ _______ _______ _____ _____    ______ ____
ROOT
ATOM      1  N   UNL     1      -1.317  11.153  18.816  0.00  0.00    +0.000 N 
ATOM      2  C   UNL     1      -0.245  10.299  18.678  0.00  0.00    +0.000 A 
ATOM      3  C   UNL     1       0.615   9.911  19.629  0.00  0.00    +0.000 A 
ATOM      4  C   UNL     1       0.406  10.458  20.993  0.00  0.00    +0.000 A 
ATOM      5  O   UNL     1       1.165  10.179  21.919  0.00  0.00    +0.000 OA
ATOM      6  C   UNL     1      -0.774  11.361  21.189  0.00  0.00    +0.000 A 
ATOM      7  C   UNL     1      -1.060  11.856  22.465  0.00  0.00    +0.000 A 
ATOM      8  C   UNL     1      -2.117  12.747  22.635  0.00  0.00    +0.000 A 
ATOM      9  F   UNL     1      -2.326  13.235  23.869  0.00  0.00    +0.000 F 
ATOM     10  C   UNL     1      -2.906  13.192  21.558  0.00  0.00    +0.000 A 
ATOM     11  C   UNL     1      -2.617  12.640  20.301  0.00  0.00    +0.000 A 
ATOM     12  C   UNL     1      -1.578  11.710  20.088  0.00  0.00    +0.000 A 
ENDROOT
BRANCH   3  13
ATOM     13  C   UNL     1       1.553   8.906  19.290  0.00  0.00    +0.000 A 
ATOM     14  N   UNL     1       2.325   8.877  18.221  0.00  0.00    +0.000 NA
ATOM     15  C   UNL     1       2.906   7.652  18.217  0.00  0.00    +0.000 A 
ATOM     16  C   UNL     1       3.650   7.052  17.200  0.00  0.00    +0.000 A 
ATOM     17  C   UNL     1       4.140   5.763  17.400  0.00  0.00    +0.000 A 
ATOM     18  C   UNL     1       3.972   5.136  18.644  0.00  0.00    +0.000 A 
ATOM     19  C   UNL     1       3.235   5.730  19.693  0.00  0.00    +0.000 A 
ATOM     20  C   UNL     1       2.654   6.970  19.401  0.00  0.00    +0.000 A 
ATOM     21  N   UNL     1       1.724   7.764  20.043  0.00  0.00    +0.000 N 
ATOM     22  H   UNL     1       1.157   7.508  20.843  0.00  0.00    +0.000 HD
BRANCH  18  23
ATOM     23  N   UNL     1       4.570   3.807  18.842  0.00  0.00    +0.000 N 
ATOM     24  O   UNL     1       3.886   2.817  18.543  0.00  0.00    +0.000 OA
ATOM     25  O   UNL     1       5.721   3.757  19.297  0.00  0.00    +0.000 OA
ENDBRANCH  18  23
ENDBRANCH   3  13
BRANCH  10  26
ATOM     26  N   UNL     1      -3.854  14.199  21.709  0.00  0.00    +0.000 N 
ATOM     27  C   UNL     1      -5.138  13.937  22.378  0.00  0.00    +0.000 C 
ATOM     28  C   UNL     1      -6.210  14.899  21.820  0.00  0.00    +0.000 C 
ATOM     29  N   UNL     1      -5.836  16.322  21.979  0.00  0.00    +0.000 NA
ATOM     30  C   UNL     1      -6.854  17.177  21.369  0.00  0.00    +0.000 C 
ATOM     31  C   UNL     1      -4.512  16.559  21.347  0.00  0.00    +0.000 C 
ATOM     32  C   UNL     1      -3.408  15.597  21.858  0.00  0.00    +0.000 C 
ENDBRANCH  10  26
BRANCH   1  34
ATOM     33  C   UNL     1      -2.889   9.964  17.344  0.00  0.00    +0.000 C 
ATOM     34  C   UNL     1      -2.278  11.305  17.708  0.00  0.00    +0.000 C 
ENDBRANCH   1  34
TORSDOF 4
ENDMDL
MODEL 7
REMARK VINA RESULT:      -8.1      0.921      1.025
REMARK  Name = 
REMARK  6 active torsions:
REMARK  status: ('A' for Active; 'I' for Inactive)
REMARK    1  A    between atoms: C_1  and  C_2
REMARK    2  A    between atoms: C_2  and  N_3
REMARK    3  A    between atoms: C_5  and  C_6
REMARK    4  A    between atoms: C_11  and  N_12
REMARK    5  A    between atoms: C_24  and  N_25
REMARK    6  A    between atoms: N_28  and  C_29
REMARK                            x       y       z     vdW  Elec       q    Type
REMARK                         _______ _______ _______ _____ _____    ______ ____
ROOT
ATOM      1  N   UNL     1      -0.868  11.040  19.154  0.00  0.00    +0.000 N 
ATOM      2  C   UNL     1       0.017   9.984  19.187  0.00  0.00    +0.000 A 
ATOM      3  C   UNL     1       0.645   9.480  20.258  0.00  0.00    +0.000 A 
ATOM      4  C   UNL     1       0.370  10.125  21.567  0.00  0.00    +0.000 A 
ATOM      5  O   UNL     1       0.926   9.747  22.596  0.00  0.00    +0.000 OA
ATOM      6  C   UNL     1      -0.616  11.253  21.575  0.00  0.00    +0.000 A 
ATOM      7  C   UNL     1      -0.963  11.858  22.787  0.00  0.00    +0.000 A 
ATOM      8  C   UNL     1      -1.829  12.949  22.787  0.00  0.00    +0.000 A 
ATOM      9  F   UNL     1      -2.098  13.530  23.968  0.00  0.00    +0.000 F 
ATOM     10  C   UNL     1      -2.360  13.488  21.600  0.00  0.00    +0.000 A 
ATOM     11  C   UNL     1      -2.023  12.828  20.408  0.00  0.00    +0.000 A 
ATOM     12  C   UNL     1      -1.177  11.700  20.364  0.00  0.00    +0.000 A 
ENDROOT
BRANCH   3  13
ATOM     13  C   UNL     1       1.395   8.293  20.077  0.00  0.00    +0.000 A 
ATOM     14  N   UNL     1       2.172   8.002  19.053  0.00  0.00    +0.000 NA
ATOM     15  C   UNL     1       2.525   6.702  19.213  0.00  0.00    +0.000 A 
ATOM     16  C   UNL     1       3.172   5.864  18.304  0.00  0.00    +0.000 A 
ATOM     17  C   UNL     1       3.419   4.542  18.670  0.00  0.00    +0.000 A 
ATOM     18  C   UNL     1       3.112   4.108  19.969  0.00  0.00    +0.000 A 
ATOM     19  C   UNL     1       2.470   4.942  20.910  0.00  0.00    +0.000 A 
ATOM     20  C   UNL     1       2.128   6.222  20.454  0.00  0.00    +0.000 A 
ATOM     21  N   UNL     1       1.341   7.237  20.961  0.00  0.00    +0.000 N 
ATOM     22  H   UNL     1       0.719   7.182  21.760  0.00  0.00    +0.000 HD
BRANCH  18  23
ATOM     23  N   UNL     1       3.457   2.728  20.342  0.00  0.00    +0.000 N 
ATOM     24  O   UNL     1       3.233   2.373  21.508  0.00  0.00    +0.000 OA
ATOM     25  O   UNL     1       3.954   2.004  19.468  0.00  0.00    +0.000 OA
ENDBRANCH  18  23
ENDBRANCH   3  13
BRANCH  10  26
ATOM     26  N   UNL     1      -3.094  14.670  21.594  0.00  0.00    +0.000 N 
ATOM     27  C   UNL     1      -2.435  15.970  21.392  0.00  0.00    +0.000 C 
ATOM     28  C   UNL     1      -3.254  17.073  22.098  0.00  0.00    +0.000 C 
ATOM     29  N   UNL     1      -4.655  17.133  21.623  0.00  0.00    +0.000 NA
ATOM     30  C   UNL     1      -5.394  18.145  22.378  0.00  0.00    +0.000 C 
ATOM     31  C   UNL     1      -5.289  15.799  21.782  0.00  0.00    +0.000 C 
ATOM     32  C   UNL     1      -4.487  14.655  21.110  0.00  0.00    +0.000 C 
ENDBRANCH  10  26
BRANCH   1  34
ATOM     33  C   UNL     1      -2.340  10.079  17.433  0.00  0.00    +0.000 C 
ATOM     34  C   UNL     1      -1.620  11.325  17.918  0.00  0.00    +0.000 C 
ENDBRANCH   1  34
TORSDOF 4
ENDMDL
MODEL 8
REMARK VINA RESULT:      -7.9      1.639      2.119
REMARK  Name = 
REMARK  6 active torsions:
REMARK  status: ('A' for Active; 'I' for Inactive)
REMARK    1  A    between atoms: C_1  and  C_2
REMARK    2  A    between atoms: C_2  and  N_3
REMARK    3  A    between atoms: C_5  and  C_6
REMARK    4  A    between atoms: C_11  and  N_12
REMARK    5  A    between atoms: C_24  and  N_25
REMARK    6  A    between atoms: N_28  and  C_29
REMARK                            x       y       z     vdW  Elec       q    Type
REMARK                         _______ _______ _______ _____ _____    ______ ____
ROOT
ATOM      1  N   UNL     1      -0.343  10.425  18.594  0.00  0.00    +0.000 N 
ATOM      2  C   UNL     1       0.638   9.471  18.432  0.00  0.00    +0.000 A 
ATOM      3  C   UNL     1       1.342   8.855  19.391  0.00  0.00    +0.000 A 
ATOM      4  C   UNL     1       1.046   9.234  20.796  0.00  0.00    +0.000 A 
ATOM      5  O   UNL     1       1.665   8.741  21.736  0.00  0.00    +0.000 OA
ATOM      6  C   UNL     1      -0.042  10.241  21.012  0.00  0.00    +0.000 A 
ATOM      7  C   UNL     1      -0.409  10.590  22.316  0.00  0.00    +0.000 A 
ATOM      8  C   UNL     1      -1.375  11.574  22.516  0.00  0.00    +0.000 A 
ATOM      9  F   UNL     1      -1.663  11.913  23.784  0.00  0.00    +0.000 F 
ATOM     10  C   UNL     1      -1.989  12.255  21.448  0.00  0.00    +0.000 A 
ATOM     11  C   UNL     1      -1.626  11.846  20.156  0.00  0.00    +0.000 A 
ATOM     12  C   UNL     1      -0.678  10.832  19.905  0.00  0.00    +0.000 A 
ENDROOT
BRANCH   3  13
ATOM     13  C   UNL     1       2.196   7.797  18.996  0.00  0.00    +0.000 A 
ATOM     14  N   UNL     1       2.391   6.662  19.638  0.00  0.00    +0.000 NA
ATOM     15  C   UNL     1       3.420   6.049  19.002  0.00  0.00    +0.000 A 
ATOM     16  C   UNL     1       4.138   4.923  19.407  0.00  0.00    +0.000 A 
ATOM     17  C   UNL     1       5.184   4.471  18.605  0.00  0.00    +0.000 A 
ATOM     18  C   UNL     1       5.430   5.082  17.366  0.00  0.00    +0.000 A 
ATOM     19  C   UNL     1       4.707   6.215  16.929  0.00  0.00    +0.000 A 
ATOM     20  C   UNL     1       3.752   6.710  17.826  0.00  0.00    +0.000 A 
ATOM     21  N   UNL     1       3.002   7.868  17.881  0.00  0.00    +0.000 N 
ATOM     22  H   UNL     1       3.114   8.691  17.298  0.00  0.00    +0.000 HD
BRANCH  18  23
ATOM     23  N   UNL     1       6.493   4.529  16.514  0.00  0.00    +0.000 N 
ATOM     24  O   UNL     1       6.160   4.028  15.430  0.00  0.00    +0.000 OA
ATOM     25  O   UNL     1       7.657   4.597  16.932  0.00  0.00    +0.000 OA
ENDBRANCH  18  23
ENDBRANCH   3  13
BRANCH  10  26
ATOM     26  N   UNL     1      -2.832  13.342  21.658  0.00  0.00    +0.000 N 
ATOM     27  C   UNL     1      -4.206  13.151  22.147  0.00  0.00    +0.000 C 
ATOM     28  C   UNL     1      -5.094  14.310  21.640  0.00  0.00    +0.000 C 
ATOM     29  N   UNL     1      -4.587  15.637  22.053  0.00  0.00    +0.000 NA
ATOM     30  C   UNL     1      -5.427  16.691  21.484  0.00  0.00    +0.000 C 
ATOM     31  C   UNL     1      -3.180  15.793  21.600  0.00  0.00    +0.000 C 
ATOM     32  C   UNL     1      -2.256  14.637  22.064  0.00  0.00    +0.000 C 
ENDBRANCH  10  26
BRANCH   1  34
ATOM     33  C   UNL     1      -2.249   9.827  17.158  0.00  0.00    +0.000 C 
ATOM     34  C   UNL     1      -1.156  10.842  17.437  0.00  0.00    +0.000 C 
ENDBRANCH   1  34
TORSDOF 4
ENDMDL
MODEL 9
REMARK VINA RESULT:      -7.9      1.045      1.312
REMARK  Name = 
REMARK  6 active torsions:
REMARK  status: ('A' for Active; 'I' for Inactive)
REMARK    1  A    between atoms: C_1  and  C_2
REMARK    2  A    between atoms: C_2  and  N_3
REMARK    3  A    between atoms: C_5  and  C_6
REMARK    4  A    between atoms: C_11  and  N_12
REMARK    5  A    between atoms: C_24  and  N_25
REMARK    6  A    between atoms: N_28  and  C_29
REMARK                            x       y       z     vdW  Elec       q    Type
REMARK                         _______ _______ _______ _____ _____    ______ ____
ROOT
ATOM      1  N   UNL     1       0.261  11.549  19.752  0.00  0.00    +0.000 N 
ATOM      2  C   UNL     1       0.975  10.378  19.612  0.00  0.00    +0.000 A 
ATOM      3  C   UNL     1       0.988   9.327  20.441  0.00  0.00    +0.000 A 
ATOM      4  C   UNL     1       0.143   9.417  21.659  0.00  0.00    +0.000 A 
ATOM      5  O   UNL     1       0.118   8.511  22.490  0.00  0.00    +0.000 OA
ATOM      6  C   UNL     1      -0.677  10.660  21.826  0.00  0.00    +0.000 A 
ATOM      7  C   UNL     1      -1.540  10.775  22.920  0.00  0.00    +0.000 A 
ATOM      8  C   UNL     1      -2.253  11.956  23.110  0.00  0.00    +0.000 A 
ATOM      9  F   UNL     1      -3.034  12.043  24.200  0.00  0.00    +0.000 F 
ATOM     10  C   UNL     1      -2.123  13.061  22.248  0.00  0.00    +0.000 A 
ATOM     11  C   UNL     1      -1.282  12.892  21.138  0.00  0.00    +0.000 A 
ATOM     12  C   UNL     1      -0.566  11.702  20.887  0.00  0.00    +0.000 A 
ENDROOT
BRANCH   3  13
ATOM     13  C   UNL     1       1.683   8.169  20.017  0.00  0.00    +0.000 A 
ATOM     14  N   UNL     1       2.211   7.959  18.827  0.00  0.00    +0.000 NA
ATOM     15  C   UNL     1       2.596   6.659  18.817  0.00  0.00    +0.000 A 
ATOM     16  C   UNL     1       3.025   5.893  17.731  0.00  0.00    +0.000 A 
ATOM     17  C   UNL     1       3.353   4.556  17.943  0.00  0.00    +0.000 A 
ATOM     18  C   UNL     1       3.349   4.032  19.245  0.00  0.00    +0.000 A 
ATOM     19  C   UNL     1       2.932   4.792  20.361  0.00  0.00    +0.000 A 
ATOM     20  C   UNL     1       2.491   6.091  20.080  0.00  0.00    +0.000 A 
ATOM     21  N   UNL     1       1.834   7.057  20.818  0.00  0.00    +0.000 N 
ATOM     22  H   UNL     1       1.408   6.938  21.730  0.00  0.00    +0.000 HD
BRANCH  18  23
ATOM     23  N   UNL     1       3.775   2.638  19.437  0.00  0.00    +0.000 N 
ATOM     24  O   UNL     1       4.819   2.437  20.075  0.00  0.00    +0.000 OA
ATOM     25  O   UNL     1       3.065   1.748  18.949  0.00  0.00    +0.000 OA
ENDBRANCH  18  23
ENDBRANCH   3  13
BRANCH  10  26
ATOM     26  N   UNL     1      -2.714  14.288  22.532  0.00  0.00    +0.000 N 
ATOM     27  C   UNL     1      -1.935  15.536  22.476  0.00  0.00    +0.000 C 
ATOM     28  C   UNL     1      -2.547  16.563  23.454  0.00  0.00    +0.000 C 
ATOM     29  N   UNL     1      -3.973  16.841  23.168  0.00  0.00    +0.000 NA
ATOM     30  C   UNL     1      -4.511  17.764  24.168  0.00  0.00    +0.000 C 
ATOM     31  C   UNL     1      -4.736  15.566  23.172  0.00  0.00    +0.000 C 
ATOM     32  C   UNL     1      -4.142  14.493  22.224  0.00  0.00    +0.000 C 
ENDBRANCH  10  26
BRANCH   1  34
ATOM     33  C   UNL     1       1.526  13.259  18.516  0.00  0.00    +0.000 C 
ATOM     34  C   UNL     1       0.210  12.512  18.637  0.00  0.00    +0.000 C 
ENDBRANCH   1  34
TORSDOF 4
ENDMDL
