MODEL 1
REMARK VINA RESULT:      -7.2      0.000      0.000
REMARK  Name = 
REMARK  12 active torsions:
REMARK  status: ('A' for Active; 'I' for Inactive)
REMARK    1  A    between atoms: C_2  and  O_3
REMARK    2  A    between atoms: C_2  and  C_9
REMARK    3  A    between atoms: O_3  and  C_4
REMARK    4  A    between atoms: C_4  and  C_5
REMARK    5  A    between atoms: C_5  and  O_6
REMARK    6  A    between atoms: C_5  and  C_7
REMARK    7  A    between atoms: C_7  and  O_8
REMARK    8  A    between atoms: C_12  and  N_13
REMARK    9  A    between atoms: N_13  and  C_14
REMARK   10  A    between atoms: C_14  and  C_15
REMARK   11  A    between atoms: C_15  and  C_16
REMARK   12  A    between atoms: C_16  and  C_17
REMARK                            x       y       z     vdW  Elec       q    Type
REMARK                         _______ _______ _______ _____ _____    ______ ____
ROOT
ATOM      1  C   UNL     1       6.119   5.081  16.142  0.00  0.00    +0.000 A 
ATOM      2  C   UNL     1       6.576   4.555  17.351  0.00  0.00    +0.000 A 
ATOM      3  C   UNL     1       5.893   4.821  18.535  0.00  0.00    +0.000 A 
ATOM      4  C   UNL     1       4.725   5.597  18.549  0.00  0.00    +0.000 A 
ATOM      5  C   UNL     1       4.331   6.197  17.348  0.00  0.00    +0.000 A 
ATOM      6  C   UNL     1       5.010   5.934  16.151  0.00  0.00    +0.000 A 
ENDROOT
BRANCH   1   8
ATOM      7  O   UNL     1       7.868   5.303  14.525  0.00  0.00    +0.000 OA
ATOM      8  C   UNL     1       6.858   4.730  14.902  0.00  0.00    +0.000 C 
BRANCH   8   9
ATOM      9  O   UNL     1       6.220   3.733  14.244  0.00  0.00    +0.000 OA
BRANCH   9  10
ATOM     10  C   UNL     1       6.263   3.824  12.810  0.00  0.00    +0.000 C 
BRANCH  10  11
ATOM     11  C   UNL     1       5.219   2.856  12.238  0.00  0.00    +0.000 C 
BRANCH  11  12
ATOM     12  O   UNL     1       4.304   3.540  11.372  0.00  0.00    +0.000 OA
ATOM     13  H   UNL     1       3.402   3.409  11.719  0.00  0.00    +0.000 HD
ENDBRANCH  11  12
BRANCH  11  14
ATOM     14  C   UNL     1       5.895   1.712  11.474  0.00  0.00    +0.000 C 
BRANCH  14  15
ATOM     15  O   UNL     1       7.302   1.906  11.353  0.00  0.00    +0.000 OA
ATOM     16  H   UNL     1       7.579   2.555  12.024  0.00  0.00    +0.000 HD
ENDBRANCH  14  15
ENDBRANCH  11  14
ENDBRANCH  10  11
ENDBRANCH   9  10
ENDBRANCH   8   9
ENDBRANCH   1   8
BRANCH   4  17
ATOM     17  N   UNL     1       4.003   5.879  19.721  0.00  0.00    +0.000 N 
ATOM     18  H   UNL     1       4.509   6.529  20.312  0.00  0.00    +0.000 HD
BRANCH  17  19
ATOM     19  C   UNL     1       2.580   6.194  19.585  0.00  0.00    +0.000 C 
BRANCH  19  20
ATOM     20  C   UNL     1       1.764   5.518  20.681  0.00  0.00    +0.000 C 
BRANCH  20  21
ATOM     21  C   UNL     1       1.042   4.292  20.112  0.00  0.00    +0.000 C 
BRANCH  21  22
ATOM     22  C   UNL     1       1.990   3.370  19.393  0.00  0.00    +0.000 A 
ATOM     23  C   UNL     1       1.852   3.152  18.015  0.00  0.00    +0.000 A 
ATOM     24  C   UNL     1       2.701   2.267  17.352  0.00  0.00    +0.000 A 
ATOM     25  C   UNL     1       3.696   1.593  18.057  0.00  0.00    +0.000 A 
ATOM     26  C   UNL     1       3.848   1.810  19.426  0.00  0.00    +0.000 A 
ATOM     27  C   UNL     1       2.996   2.693  20.092  0.00  0.00    +0.000 A 
ENDBRANCH  21  22
ENDBRANCH  20  21
ENDBRANCH  19  20
ENDBRANCH  17  19
ENDBRANCH   4  17
TORSDOF 12
ENDMDL
MODEL 2
REMARK VINA RESULT:      -6.9      5.176      8.118
REMARK  Name = 
REMARK  12 active torsions:
REMARK  status: ('A' for Active; 'I' for Inactive)
REMARK    1  A    between atoms: C_2  and  O_3
REMARK    2  A    between atoms: C_2  and  C_9
REMARK    3  A    between atoms: O_3  and  C_4
REMARK    4  A    between atoms: C_4  and  C_5
REMARK    5  A    between atoms: C_5  and  O_6
REMARK    6  A    between atoms: C_5  and  C_7
REMARK    7  A    between atoms: C_7  and  O_8
REMARK    8  A    between atoms: C_12  and  N_13
REMARK    9  A    between atoms: N_13  and  C_14
REMARK   10  A    between atoms: C_14  and  C_15
REMARK   11  A    between atoms: C_15  and  C_16
REMARK   12  A    between atoms: C_16  and  C_17
REMARK                            x       y       z     vdW  Elec       q    Type
REMARK                         _______ _______ _______ _____ _____    ______ ____
ROOT
ATOM      1  C   UNL     1       3.240   4.754  17.473  0.00  0.00    +0.000 A 
ATOM      2  C   UNL     1       4.406   4.304  16.853  0.00  0.00    +0.000 A 
ATOM      3  C   UNL     1       5.476   5.172  16.653  0.00  0.00    +0.000 A 
ATOM      4  C   UNL     1       5.427   6.506  17.085  0.00  0.00    +0.000 A 
ATOM      5  C   UNL     1       4.220   6.971  17.617  0.00  0.00    +0.000 A 
ATOM      6  C   UNL     1       3.138   6.105  17.824  0.00  0.00    +0.000 A 
ENDROOT
BRANCH   1   8
ATOM      7  O   UNL     1       0.968   4.005  17.478  0.00  0.00    +0.000 OA
ATOM      8  C   UNL     1       2.146   3.774  17.701  0.00  0.00    +0.000 C 
BRANCH   8   9
ATOM      9  O   UNL     1       2.644   2.634  18.235  0.00  0.00    +0.000 OA
BRANCH   9  10
ATOM     10  C   UNL     1       2.203   2.343  19.572  0.00  0.00    +0.000 C 
BRANCH  10  11
ATOM     11  C   UNL     1       3.327   2.733  20.541  0.00  0.00    +0.000 C 
BRANCH  11  12
ATOM     12  O   UNL     1       2.932   2.515  21.901  0.00  0.00    +0.000 OA
ATOM     13  H   UNL     1       2.484   1.651  21.953  0.00  0.00    +0.000 HD
ENDBRANCH  11  12
BRANCH  11  14
ATOM     14  C   UNL     1       4.605   1.941  20.241  0.00  0.00    +0.000 C 
BRANCH  14  15
ATOM     15  O   UNL     1       5.228   1.459  21.429  0.00  0.00    +0.000 OA
ATOM     16  H   UNL     1       5.079   2.112  22.137  0.00  0.00    +0.000 HD
ENDBRANCH  14  15
ENDBRANCH  11  14
ENDBRANCH  10  11
ENDBRANCH   9  10
ENDBRANCH   8   9
ENDBRANCH   1   8
BRANCH   4  17
ATOM     17  N   UNL     1       6.488   7.410  16.911  0.00  0.00    +0.000 N 
ATOM     18  H   UNL     1       6.203   8.354  17.146  0.00  0.00    +0.000 HD
BRANCH  17  19
ATOM     19  C   UNL     1       7.795   7.039  17.457  0.00  0.00    +0.000 C 
BRANCH  19  20
ATOM     20  C   UNL     1       8.265   8.058  18.490  0.00  0.00    +0.000 C 
BRANCH  20  21
ATOM     21  C   UNL     1       8.276   9.459  17.871  0.00  0.00    +0.000 C 
BRANCH  21  22
ATOM     22  C   UNL     1       9.213  10.384  18.602  0.00  0.00    +0.000 A 
ATOM     23  C   UNL     1       9.133  10.512  19.995  0.00  0.00    +0.000 A 
ATOM     24  C   UNL     1       9.969  11.399  20.672  0.00  0.00    +0.000 A 
ATOM     25  C   UNL     1      10.894  12.164  19.965  0.00  0.00    +0.000 A 
ATOM     26  C   UNL     1      10.988  12.038  18.580  0.00  0.00    +0.000 A 
ATOM     27  C   UNL     1      10.148  11.154  17.900  0.00  0.00    +0.000 A 
ENDBRANCH  21  22
ENDBRANCH  20  21
ENDBRANCH  19  20
ENDBRANCH  17  19
ENDBRANCH   4  17
TORSDOF 12
ENDMDL
MODEL 3
REMARK VINA RESULT:      -6.9      5.210      8.155
REMARK  Name = 
REMARK  12 active torsions:
REMARK  status: ('A' for Active; 'I' for Inactive)
REMARK    1  A    between atoms: C_2  and  O_3
REMARK    2  A    between atoms: C_2  and  C_9
REMARK    3  A    between atoms: O_3  and  C_4
REMARK    4  A    between atoms: C_4  and  C_5
REMARK    5  A    between atoms: C_5  and  O_6
REMARK    6  A    between atoms: C_5  and  C_7
REMARK    7  A    between atoms: C_7  and  O_8
REMARK    8  A    between atoms: C_12  and  N_13
REMARK    9  A    between atoms: N_13  and  C_14
REMARK   10  A    between atoms: C_14  and  C_15
REMARK   11  A    between atoms: C_15  and  C_16
REMARK   12  A    between atoms: C_16  and  C_17
REMARK                            x       y       z     vdW  Elec       q    Type
REMARK                         _______ _______ _______ _____ _____    ______ ____
ROOT
ATOM      1  C   UNL     1       3.403   4.599  17.341  0.00  0.00    +0.000 A 
ATOM      2  C   UNL     1       4.361   4.083  16.468  0.00  0.00    +0.000 A 
ATOM      3  C   UNL     1       5.544   4.779  16.232  0.00  0.00    +0.000 A 
ATOM      4  C   UNL     1       5.820   5.994  16.875  0.00  0.00    +0.000 A 
ATOM      5  C   UNL     1       4.813   6.548  17.673  0.00  0.00    +0.000 A 
ATOM      6  C   UNL     1       3.620   5.856  17.918  0.00  0.00    +0.000 A 
ENDROOT
BRANCH   1   8
ATOM      7  O   UNL     1       1.044   4.233  17.487  0.00  0.00    +0.000 OA
ATOM      8  C   UNL     1       2.179   3.796  17.591  0.00  0.00    +0.000 C 
BRANCH   8   9
ATOM      9  O   UNL     1       2.514   2.547  17.996  0.00  0.00    +0.000 OA
BRANCH   9  10
ATOM     10  C   UNL     1       1.894   2.116  19.219  0.00  0.00    +0.000 C 
BRANCH  10  11
ATOM     11  C   UNL     1       2.553   2.872  20.380  0.00  0.00    +0.000 C 
BRANCH  11  12
ATOM     12  O   UNL     1       1.737   2.819  21.557  0.00  0.00    +0.000 OA
ATOM     13  H   UNL     1       2.208   3.282  22.275  0.00  0.00    +0.000 HD
ENDBRANCH  11  12
BRANCH  11  14
ATOM     14  C   UNL     1       3.941   2.300  20.688  0.00  0.00    +0.000 C 
BRANCH  14  15
ATOM     15  O   UNL     1       4.838   2.450  19.590  0.00  0.00    +0.000 OA
ATOM     16  H   UNL     1       4.428   3.049  18.942  0.00  0.00    +0.000 HD
ENDBRANCH  14  15
ENDBRANCH  11  14
ENDBRANCH  10  11
ENDBRANCH   9  10
ENDBRANCH   8   9
ENDBRANCH   1   8
BRANCH   4  17
ATOM     17  N   UNL     1       7.006   6.720  16.672  0.00  0.00    +0.000 N 
ATOM     18  H   UNL     1       6.902   7.377  15.907  0.00  0.00    +0.000 HD
BRANCH  17  19
ATOM     19  C   UNL     1       7.668   7.287  17.849  0.00  0.00    +0.000 C 
BRANCH  19  20
ATOM     20  C   UNL     1       8.009   8.757  17.628  0.00  0.00    +0.000 C 
BRANCH  20  21
ATOM     21  C   UNL     1       8.790   9.296  18.831  0.00  0.00    +0.000 C 
BRANCH  21  22
ATOM     22  C   UNL     1       9.253  10.711  18.606  0.00  0.00    +0.000 A 
ATOM     23  C   UNL     1       8.501  11.580  17.804  0.00  0.00    +0.000 A 
ATOM     24  C   UNL     1       8.948  12.878  17.557  0.00  0.00    +0.000 A 
ATOM     25  C   UNL     1      10.147  13.320  18.111  0.00  0.00    +0.000 A 
ATOM     26  C   UNL     1      10.898  12.467  18.917  0.00  0.00    +0.000 A 
ATOM     27  C   UNL     1      10.455  11.165  19.162  0.00  0.00    +0.000 A 
ENDBRANCH  21  22
ENDBRANCH  20  21
ENDBRANCH  19  20
ENDBRANCH  17  19
ENDBRANCH   4  17
TORSDOF 12
ENDMDL
MODEL 4
REMARK VINA RESULT:      -6.9      2.658      5.033
REMARK  Name = 
REMARK  12 active torsions:
REMARK  status: ('A' for Active; 'I' for Inactive)
REMARK    1  A    between atoms: C_2  and  O_3
REMARK    2  A    between atoms: C_2  and  C_9
REMARK    3  A    between atoms: O_3  and  C_4
REMARK    4  A    between atoms: C_4  and  C_5
REMARK    5  A    between atoms: C_5  and  O_6
REMARK    6  A    between atoms: C_5  and  C_7
REMARK    7  A    between atoms: C_7  and  O_8
REMARK    8  A    between atoms: C_12  and  N_13
REMARK    9  A    between atoms: N_13  and  C_14
REMARK   10  A    between atoms: C_14  and  C_15
REMARK   11  A    between atoms: C_15  and  C_16
REMARK   12  A    between atoms: C_16  and  C_17
REMARK                            x       y       z     vdW  Elec       q    Type
REMARK                         _______ _______ _______ _____ _____    ______ ____
ROOT
ATOM      1  C   UNL     1       4.727   3.910  17.216  0.00  0.00    +0.000 A 
ATOM      2  C   UNL     1       3.461   3.638  16.696  0.00  0.00    +0.000 A 
ATOM      3  C   UNL     1       2.488   3.038  17.492  0.00  0.00    +0.000 A 
ATOM      4  C   UNL     1       2.737   2.714  18.833  0.00  0.00    +0.000 A 
ATOM      5  C   UNL     1       4.037   2.903  19.315  0.00  0.00    +0.000 A 
ATOM      6  C   UNL     1       5.022   3.507  18.523  0.00  0.00    +0.000 A 
ENDROOT
BRANCH   1   8
ATOM      7  O   UNL     1       6.690   4.042  15.856  0.00  0.00    +0.000 OA
ATOM      8  C   UNL     1       5.713   4.592  16.338  0.00  0.00    +0.000 C 
BRANCH   8   9
ATOM      9  O   UNL     1       5.393   5.901  16.204  0.00  0.00    +0.000 OA
BRANCH   9  10
ATOM     10  C   UNL     1       5.770   6.736  17.312  0.00  0.00    +0.000 C 
BRANCH  10  11
ATOM     11  C   UNL     1       7.302   6.766  17.388  0.00  0.00    +0.000 C 
BRANCH  11  12
ATOM     12  O   UNL     1       7.800   8.097  17.201  0.00  0.00    +0.000 OA
ATOM     13  H   UNL     1       8.742   8.038  16.956  0.00  0.00    +0.000 HD
ENDBRANCH  11  12
BRANCH  11  14
ATOM     14  C   UNL     1       7.794   6.214  18.731  0.00  0.00    +0.000 C 
BRANCH  14  15
ATOM     15  O   UNL     1       8.106   4.825  18.658  0.00  0.00    +0.000 OA
ATOM     16  H   UNL     1       8.973   4.687  19.080  0.00  0.00    +0.000 HD
ENDBRANCH  14  15
ENDBRANCH  11  14
ENDBRANCH  10  11
ENDBRANCH   9  10
ENDBRANCH   8   9
ENDBRANCH   1   8
BRANCH   4  17
ATOM     17  N   UNL     1       1.780   2.118  19.671  0.00  0.00    +0.000 N 
ATOM     18  H   UNL     1       2.012   1.149  19.856  0.00  0.00    +0.000 HD
BRANCH  17  19
ATOM     19  C   UNL     1       1.360   2.860  20.861  0.00  0.00    +0.000 C 
BRANCH  19  20
ATOM     20  C   UNL     1       0.911   4.271  20.495  0.00  0.00    +0.000 C 
BRANCH  20  21
ATOM     21  C   UNL     1       1.948   5.289  20.981  0.00  0.00    +0.000 C 
BRANCH  21  22
ATOM     22  C   UNL     1       1.947   6.534  20.133  0.00  0.00    +0.000 A 
ATOM     23  C   UNL     1       1.453   7.739  20.651  0.00  0.00    +0.000 A 
ATOM     24  C   UNL     1       1.410   8.884  19.856  0.00  0.00    +0.000 A 
ATOM     25  C   UNL     1       1.862   8.837  18.539  0.00  0.00    +0.000 A 
ATOM     26  C   UNL     1       2.364   7.645  18.017  0.00  0.00    +0.000 A 
ATOM     27  C   UNL     1       2.403   6.497  18.811  0.00  0.00    +0.000 A 
ENDBRANCH  21  22
ENDBRANCH  20  21
ENDBRANCH  19  20
ENDBRANCH  17  19
ENDBRANCH   4  17
TORSDOF 12
ENDMDL
MODEL 5
REMARK VINA RESULT:      -6.9      5.906      8.838
REMARK  Name = 
REMARK  12 active torsions:
REMARK  status: ('A' for Active; 'I' for Inactive)
REMARK    1  A    between atoms: C_2  and  O_3
REMARK    2  A    between atoms: C_2  and  C_9
REMARK    3  A    between atoms: O_3  and  C_4
REMARK    4  A    between atoms: C_4  and  C_5
REMARK    5  A    between atoms: C_5  and  O_6
REMARK    6  A    between atoms: C_5  and  C_7
REMARK    7  A    between atoms: C_7  and  O_8
REMARK    8  A    between atoms: C_12  and  N_13
REMARK    9  A    between atoms: N_13  and  C_14
REMARK   10  A    between atoms: C_14  and  C_15
REMARK   11  A    between atoms: C_15  and  C_16
REMARK   12  A    between atoms: C_16  and  C_17
REMARK                            x       y       z     vdW  Elec       q    Type
REMARK                         _______ _______ _______ _____ _____    ______ ____
ROOT
ATOM      1  C   UNL     1       4.584   4.723  17.864  0.00  0.00    +0.000 A 
ATOM      2  C   UNL     1       4.340   5.664  16.864  0.00  0.00    +0.000 A 
ATOM      3  C   UNL     1       5.264   6.673  16.608  0.00  0.00    +0.000 A 
ATOM      4  C   UNL     1       6.468   6.762  17.321  0.00  0.00    +0.000 A 
ATOM      5  C   UNL     1       6.659   5.873  18.384  0.00  0.00    +0.000 A 
ATOM      6  C   UNL     1       5.736   4.853  18.649  0.00  0.00    +0.000 A 
ENDROOT
BRANCH   1   8
ATOM      7  O   UNL     1       3.820   2.456  17.886  0.00  0.00    +0.000 OA
ATOM      8  C   UNL     1       3.586   3.640  18.066  0.00  0.00    +0.000 C 
BRANCH   8   9
ATOM      9  O   UNL     1       2.390   4.168  18.420  0.00  0.00    +0.000 OA
BRANCH   9  10
ATOM     10  C   UNL     1       2.371   4.829  19.696  0.00  0.00    +0.000 C 
BRANCH  10  11
ATOM     11  C   UNL     1       1.433   4.047  20.625  0.00  0.00    +0.000 C 
BRANCH  11  12
ATOM     12  O   UNL     1       0.370   3.433  19.885  0.00  0.00    +0.000 OA
ATOM     13  H   UNL     1       0.061   4.068  19.214  0.00  0.00    +0.000 HD
ENDBRANCH  11  12
BRANCH  11  14
ATOM     14  C   UNL     1       2.205   2.976  21.404  0.00  0.00    +0.000 C 
BRANCH  14  15
ATOM     15  O   UNL     1       1.411   2.380  22.428  0.00  0.00    +0.000 OA
ATOM     16  H   UNL     1       2.008   1.944  23.061  0.00  0.00    +0.000 HD
ENDBRANCH  14  15
ENDBRANCH  11  14
ENDBRANCH  10  11
ENDBRANCH   9  10
ENDBRANCH   8   9
ENDBRANCH   1   8
BRANCH   4  17
ATOM     17  N   UNL     1       7.430   7.759  17.086  0.00  0.00    +0.000 N 
ATOM     18  H   UNL     1       7.036   8.526  16.554  0.00  0.00    +0.000 HD
BRANCH  17  19
ATOM     19  C   UNL     1       8.255   8.190  18.216  0.00  0.00    +0.000 C 
BRANCH  19  20
ATOM     20  C   UNL     1       8.526   9.689  18.153  0.00  0.00    +0.000 C 
BRANCH  20  21
ATOM     21  C   UNL     1       9.318  10.128  19.390  0.00  0.00    +0.000 C 
BRANCH  21  22
ATOM     22  C   UNL     1      10.302  11.219  19.064  0.00  0.00    +0.000 A 
ATOM     23  C   UNL     1      10.438  11.675  17.745  0.00  0.00    +0.000 A 
ATOM     24  C   UNL     1      11.379  12.656  17.431  0.00  0.00    +0.000 A 
ATOM     25  C   UNL     1      12.189  13.192  18.429  0.00  0.00    +0.000 A 
ATOM     26  C   UNL     1      12.055  12.752  19.745  0.00  0.00    +0.000 A 
ATOM     27  C   UNL     1      11.117  11.767  20.061  0.00  0.00    +0.000 A 
ENDBRANCH  21  22
ENDBRANCH  20  21
ENDBRANCH  19  20
ENDBRANCH  17  19
ENDBRANCH   4  17
TORSDOF 12
ENDMDL
MODEL 6
REMARK VINA RESULT:      -6.9      1.233      1.685
REMARK  Name = 
REMARK  12 active torsions:
REMARK  status: ('A' for Active; 'I' for Inactive)
REMARK    1  A    between atoms: C_2  and  O_3
REMARK    2  A    between atoms: C_2  and  C_9
REMARK    3  A    between atoms: O_3  and  C_4
REMARK    4  A    between atoms: C_4  and  C_5
REMARK    5  A    between atoms: C_5  and  O_6
REMARK    6  A    between atoms: C_5  and  C_7
REMARK    7  A    between atoms: C_7  and  O_8
REMARK    8  A    between atoms: C_12  and  N_13
REMARK    9  A    between atoms: N_13  and  C_14
REMARK   10  A    between atoms: C_14  and  C_15
REMARK   11  A    between atoms: C_15  and  C_16
REMARK   12  A    between atoms: C_16  and  C_17
REMARK                            x       y       z     vdW  Elec       q    Type
REMARK                         _______ _______ _______ _____ _____    ______ ____
ROOT
ATOM      1  C   UNL     1       5.767   5.512  17.073  0.00  0.00    +0.000 A 
ATOM      2  C   UNL     1       5.868   4.978  18.358  0.00  0.00    +0.000 A 
ATOM      3  C   UNL     1       4.987   5.380  19.358  0.00  0.00    +0.000 A 
ATOM      4  C   UNL     1       3.965   6.306  19.104  0.00  0.00    +0.000 A 
ATOM      5  C   UNL     1       3.932   6.906  17.841  0.00  0.00    +0.000 A 
ATOM      6  C   UNL     1       4.813   6.507  16.828  0.00  0.00    +0.000 A 
ENDROOT
BRANCH   1   8
ATOM      7  O   UNL     1       7.755   4.446  16.278  0.00  0.00    +0.000 OA
ATOM      8  C   UNL     1       6.704   5.016  16.032  0.00  0.00    +0.000 C 
BRANCH   8   9
ATOM      9  O   UNL     1       6.244   5.336  14.799  0.00  0.00    +0.000 OA
BRANCH   9  10
ATOM     10  C   UNL     1       5.804   4.221  14.006  0.00  0.00    +0.000 C 
BRANCH  10  11
ATOM     11  C   UNL     1       6.910   3.887  12.996  0.00  0.00    +0.000 C 
BRANCH  11  12
ATOM     12  O   UNL     1       6.400   3.093  11.918  0.00  0.00    +0.000 OA
ATOM     13  H   UNL     1       5.499   2.804  12.152  0.00  0.00    +0.000 HD
ENDBRANCH  11  12
BRANCH  11  14
ATOM     14  C   UNL     1       7.546   5.166  12.440  0.00  0.00    +0.000 C 
BRANCH  14  15
ATOM     15  O   UNL     1       8.503   5.724  13.337  0.00  0.00    +0.000 OA
ATOM     16  H   UNL     1       8.658   6.650  13.079  0.00  0.00    +0.000 HD
ENDBRANCH  14  15
ENDBRANCH  11  14
ENDBRANCH  10  11
ENDBRANCH   9  10
ENDBRANCH   8   9
ENDBRANCH   1   8
BRANCH   4  17
ATOM     17  N   UNL     1       3.049   6.729  20.083  0.00  0.00    +0.000 N 
ATOM     18  H   UNL     1       3.109   7.732  20.226  0.00  0.00    +0.000 HD
BRANCH  17  19
ATOM     19  C   UNL     1       1.677   6.228  19.995  0.00  0.00    +0.000 C 
BRANCH  19  20
ATOM     20  C   UNL     1       1.462   5.055  20.945  0.00  0.00    +0.000 C 
BRANCH  20  21
ATOM     21  C   UNL     1       0.898   3.857  20.173  0.00  0.00    +0.000 C 
BRANCH  21  22
ATOM     22  C   UNL     1       1.915   3.272  19.229  0.00  0.00    +0.000 A 
ATOM     23  C   UNL     1       1.861   3.573  17.861  0.00  0.00    +0.000 A 
ATOM     24  C   UNL     1       2.774   3.000  16.976  0.00  0.00    +0.000 A 
ATOM     25  C   UNL     1       3.750   2.125  17.449  0.00  0.00    +0.000 A 
ATOM     26  C   UNL     1       3.818   1.827  18.809  0.00  0.00    +0.000 A 
ATOM     27  C   UNL     1       2.901   2.396  19.696  0.00  0.00    +0.000 A 
ENDBRANCH  21  22
ENDBRANCH  20  21
ENDBRANCH  19  20
ENDBRANCH  17  19
ENDBRANCH   4  17
TORSDOF 12
ENDMDL
MODEL 7
REMARK VINA RESULT:      -6.9      5.184      8.115
REMARK  Name = 
REMARK  12 active torsions:
REMARK  status: ('A' for Active; 'I' for Inactive)
REMARK    1  A    between atoms: C_2  and  O_3
REMARK    2  A    between atoms: C_2  and  C_9
REMARK    3  A    between atoms: O_3  and  C_4
REMARK    4  A    between atoms: C_4  and  C_5
REMARK    5  A    between atoms: C_5  and  O_6
REMARK    6  A    between atoms: C_5  and  C_7
REMARK    7  A    between atoms: C_7  and  O_8
REMARK    8  A    between atoms: C_12  and  N_13
REMARK    9  A    between atoms: N_13  and  C_14
REMARK   10  A    between atoms: C_14  and  C_15
REMARK   11  A    between atoms: C_15  and  C_16
REMARK   12  A    between atoms: C_16  and  C_17
REMARK                            x       y       z     vdW  Elec       q    Type
REMARK                         _______ _______ _______ _____ _____    ______ ____
ROOT
ATOM      1  C   UNL     1       1.962   8.065  19.371  0.00  0.00    +0.000 A 
ATOM      2  C   UNL     1       2.515   8.437  18.145  0.00  0.00    +0.000 A 
ATOM      3  C   UNL     1       3.386   7.579  17.479  0.00  0.00    +0.000 A 
ATOM      4  C   UNL     1       3.714   6.319  17.999  0.00  0.00    +0.000 A 
ATOM      5  C   UNL     1       3.231   5.997  19.271  0.00  0.00    +0.000 A 
ATOM      6  C   UNL     1       2.352   6.852  19.950  0.00  0.00    +0.000 A 
ENDROOT
BRANCH   1   8
ATOM      7  O   UNL     1       0.502   9.958  19.456  0.00  0.00    +0.000 OA
ATOM      8  C   UNL     1       1.003   8.997  20.018  0.00  0.00    +0.000 C 
BRANCH   8   9
ATOM      9  O   UNL     1       0.818   8.652  21.315  0.00  0.00    +0.000 OA
BRANCH   9  10
ATOM     10  C   UNL     1      -0.534   8.769  21.789  0.00  0.00    +0.000 C 
BRANCH  10  11
ATOM     11  C   UNL     1      -0.537   9.719  22.994  0.00  0.00    +0.000 C 
BRANCH  11  12
ATOM     12  O   UNL     1       0.704   9.650  23.707  0.00  0.00    +0.000 OA
ATOM     13  H   UNL     1       0.725   8.811  24.203  0.00  0.00    +0.000 HD
ENDBRANCH  11  12
BRANCH  11  14
ATOM     14  C   UNL     1      -0.798  11.163  22.550  0.00  0.00    +0.000 C 
BRANCH  14  15
ATOM     15  O   UNL     1       0.336  11.739  21.906  0.00  0.00    +0.000 OA
ATOM     16  H   UNL     1       0.257  12.708  21.962  0.00  0.00    +0.000 HD
ENDBRANCH  14  15
ENDBRANCH  11  14
ENDBRANCH  10  11
ENDBRANCH   9  10
ENDBRANCH   8   9
ENDBRANCH   1   8
BRANCH   4  17
ATOM     17  N   UNL     1       4.581   5.422  17.352  0.00  0.00    +0.000 N 
ATOM     18  H   UNL     1       5.380   5.203  17.938  0.00  0.00    +0.000 HD
BRANCH  17  19
ATOM     19  C   UNL     1       3.989   4.251  16.703  0.00  0.00    +0.000 C 
BRANCH  19  20
ATOM     20  C   UNL     1       4.424   2.964  17.396  0.00  0.00    +0.000 C 
BRANCH  20  21
ATOM     21  C   UNL     1       3.197   2.104  17.714  0.00  0.00    +0.000 C 
BRANCH  21  22
ATOM     22  C   UNL     1       2.556   2.506  19.016  0.00  0.00    +0.000 A 
ATOM     23  C   UNL     1       3.291   2.455  20.209  0.00  0.00    +0.000 A 
ATOM     24  C   UNL     1       2.690   2.785  21.423  0.00  0.00    +0.000 A 
ATOM     25  C   UNL     1       1.352   3.172  21.458  0.00  0.00    +0.000 A 
ATOM     26  C   UNL     1       0.615   3.235  20.276  0.00  0.00    +0.000 A 
ATOM     27  C   UNL     1       1.214   2.900  19.059  0.00  0.00    +0.000 A 
ENDBRANCH  21  22
ENDBRANCH  20  21
ENDBRANCH  19  20
ENDBRANCH  17  19
ENDBRANCH   4  17
TORSDOF 12
ENDMDL
MODEL 8
REMARK VINA RESULT:      -6.8      5.093      8.026
REMARK  Name = 
REMARK  12 active torsions:
REMARK  status: ('A' for Active; 'I' for Inactive)
REMARK    1  A    between atoms: C_2  and  O_3
REMARK    2  A    between atoms: C_2  and  C_9
REMARK    3  A    between atoms: O_3  and  C_4
REMARK    4  A    between atoms: C_4  and  C_5
REMARK    5  A    between atoms: C_5  and  O_6
REMARK    6  A    between atoms: C_5  and  C_7
REMARK    7  A    between atoms: C_7  and  O_8
REMARK    8  A    between atoms: C_12  and  N_13
REMARK    9  A    between atoms: N_13  and  C_14
REMARK   10  A    between atoms: C_14  and  C_15
REMARK   11  A    between atoms: C_15  and  C_16
REMARK   12  A    between atoms: C_16  and  C_17
REMARK                            x       y       z     vdW  Elec       q    Type
REMARK                         _______ _______ _______ _____ _____    ______ ____
ROOT
ATOM      1  C   UNL     1       3.347   4.642  17.437  0.00  0.00    +0.000 A 
ATOM      2  C   UNL     1       3.122   5.967  17.811  0.00  0.00    +0.000 A 
ATOM      3  C   UNL     1       4.139   6.912  17.697  0.00  0.00    +0.000 A 
ATOM      4  C   UNL     1       5.400   6.573  17.186  0.00  0.00    +0.000 A 
ATOM      5  C   UNL     1       5.644   5.224  16.905  0.00  0.00    +0.000 A 
ATOM      6  C   UNL     1       4.628   4.266  17.015  0.00  0.00    +0.000 A 
ENDROOT
BRANCH   1   8
ATOM      7  O   UNL     1       1.044   3.998  17.395  0.00  0.00    +0.000 OA
ATOM      8  C   UNL     1       2.215   3.685  17.536  0.00  0.00    +0.000 C 
BRANCH   8   9
ATOM      9  O   UNL     1       2.674   2.450  17.854  0.00  0.00    +0.000 OA
BRANCH   9  10
ATOM     10  C   UNL     1       2.205   1.932  19.110  0.00  0.00    +0.000 C 
BRANCH  10  11
ATOM     11  C   UNL     1       2.808   2.784  20.234  0.00  0.00    +0.000 C 
BRANCH  11  12
ATOM     12  O   UNL     1       1.931   2.837  21.366  0.00  0.00    +0.000 OA
ATOM     13  H   UNL     1       2.195   3.594  21.921  0.00  0.00    +0.000 HD
ENDBRANCH  11  12
BRANCH  11  14
ATOM     14  C   UNL     1       4.173   2.236  20.664  0.00  0.00    +0.000 C 
BRANCH  14  15
ATOM     15  O   UNL     1       5.019   1.968  19.548  0.00  0.00    +0.000 OA
ATOM     16  H   UNL     1       4.715   1.145  19.127  0.00  0.00    +0.000 HD
ENDBRANCH  14  15
ENDBRANCH  11  14
ENDBRANCH  10  11
ENDBRANCH   9  10
ENDBRANCH   8   9
ENDBRANCH   1   8
BRANCH   4  17
ATOM     17  N   UNL     1       6.447   7.499  17.046  0.00  0.00    +0.000 N 
ATOM     18  H   UNL     1       6.148   8.429  17.315  0.00  0.00    +0.000 HD
BRANCH  17  19
ATOM     19  C   UNL     1       7.760   7.127  17.578  0.00  0.00    +0.000 C 
BRANCH  19  20
ATOM     20  C   UNL     1       8.325   8.236  18.460  0.00  0.00    +0.000 C 
BRANCH  20  21
ATOM     21  C   UNL     1       8.306   9.567  17.701  0.00  0.00    +0.000 C 
BRANCH  21  22
ATOM     22  C   UNL     1       9.000  10.658  18.471  0.00  0.00    +0.000 A 
ATOM     23  C   UNL     1       9.257  11.895  17.864  0.00  0.00    +0.000 A 
ATOM     24  C   UNL     1       9.938  12.895  18.559  0.00  0.00    +0.000 A 
ATOM     25  C   UNL     1      10.366  12.669  19.866  0.00  0.00    +0.000 A 
ATOM     26  C   UNL     1      10.108  11.445  20.481  0.00  0.00    +0.000 A 
ATOM     27  C   UNL     1       9.430  10.442  19.785  0.00  0.00    +0.000 A 
ENDBRANCH  21  22
ENDBRANCH  20  21
ENDBRANCH  19  20
ENDBRANCH  17  19
ENDBRANCH   4  17
TORSDOF 12
ENDMDL
MODEL 9
REMARK VINA RESULT:      -6.8      5.606      8.661
REMARK  Name = 
REMARK  12 active torsions:
REMARK  status: ('A' for Active; 'I' for Inactive)
REMARK    1  A    between atoms: C_2  and  O_3
REMARK    2  A    between atoms: C_2  and  C_9
REMARK    3  A    between atoms: O_3  and  C_4
REMARK    4  A    between atoms: C_4  and  C_5
REMARK    5  A    between atoms: C_5  and  O_6
REMARK    6  A    between atoms: C_5  and  C_7
REMARK    7  A    between atoms: C_7  and  O_8
REMARK    8  A    between atoms: C_12  and  N_13
REMARK    9  A    between atoms: N_13  and  C_14
REMARK   10  A    between atoms: C_14  and  C_15
REMARK   11  A    between atoms: C_15  and  C_16
REMARK   12  A    between atoms: C_16  and  C_17
REMARK                            x       y       z     vdW  Elec       q    Type
REMARK                         _______ _______ _______ _____ _____    ______ ____
ROOT
ATOM      1  C   UNL     1       4.235   4.247  17.750  0.00  0.00    +0.000 A 
ATOM      2  C   UNL     1       4.860   4.923  18.799  0.00  0.00    +0.000 A 
ATOM      3  C   UNL     1       5.744   5.966  18.535  0.00  0.00    +0.000 A 
ATOM      4  C   UNL     1       6.015   6.382  17.224  0.00  0.00    +0.000 A 
ATOM      5  C   UNL     1       5.459   5.637  16.179  0.00  0.00    +0.000 A 
ATOM      6  C   UNL     1       4.567   4.587  16.433  0.00  0.00    +0.000 A 
ENDROOT
BRANCH   1   8
ATOM      7  O   UNL     1       2.657   2.519  17.257  0.00  0.00    +0.000 OA
ATOM      8  C   UNL     1       3.267   3.173  18.088  0.00  0.00    +0.000 C 
BRANCH   8   9
ATOM      9  O   UNL     1       3.131   3.072  19.432  0.00  0.00    +0.000 OA
BRANCH   9  10
ATOM     10  C   UNL     1       1.986   2.323  19.874  0.00  0.00    +0.000 C 
BRANCH  10  11
ATOM     11  C   UNL     1       1.290   3.124  20.982  0.00  0.00    +0.000 C 
BRANCH  11  12
ATOM     12  O   UNL     1       1.934   2.922  22.246  0.00  0.00    +0.000 OA
ATOM     13  H   UNL     1       2.817   2.543  22.080  0.00  0.00    +0.000 HD
ENDBRANCH  11  12
BRANCH  11  14
ATOM     14  C   UNL     1       1.271   4.620  20.646  0.00  0.00    +0.000 C 
BRANCH  14  15
ATOM     15  O   UNL     1       2.398   5.305  21.187  0.00  0.00    +0.000 OA
ATOM     16  H   UNL     1       2.851   4.704  21.805  0.00  0.00    +0.000 HD
ENDBRANCH  14  15
ENDBRANCH  11  14
ENDBRANCH  10  11
ENDBRANCH   9  10
ENDBRANCH   8   9
ENDBRANCH   1   8
BRANCH   4  17
ATOM     17  N   UNL     1       6.893   7.436  16.917  0.00  0.00    +0.000 N 
ATOM     18  H   UNL     1       6.382   8.258  16.615  0.00  0.00    +0.000 HD
BRANCH  17  19
ATOM     19  C   UNL     1       7.967   7.727  17.869  0.00  0.00    +0.000 C 
BRANCH  19  20
ATOM     20  C   UNL     1       8.179   9.231  18.008  0.00  0.00    +0.000 C 
BRANCH  20  21
ATOM     21  C   UNL     1       9.129   9.517  19.176  0.00  0.00    +0.000 C 
BRANCH  21  22
ATOM     22  C   UNL     1       9.720  10.899  19.089  0.00  0.00    +0.000 A 
ATOM     23  C   UNL     1       9.865  11.678  20.244  0.00  0.00    +0.000 A 
ATOM     24  C   UNL     1      10.373  12.974  20.163  0.00  0.00    +0.000 A 
ATOM     25  C   UNL     1      10.742  13.503  18.928  0.00  0.00    +0.000 A 
ATOM     26  C   UNL     1      10.610  12.733  17.773  0.00  0.00    +0.000 A 
ATOM     27  C   UNL     1      10.098  11.436  17.853  0.00  0.00    +0.000 A 
ENDBRANCH  21  22
ENDBRANCH  20  21
ENDBRANCH  19  20
ENDBRANCH  17  19
ENDBRANCH   4  17
TORSDOF 12
ENDMDL
