MODEL 1
REMARK VINA RESULT:      -8.2      0.000      0.000
REMARK  Name = 
REMARK  0 active torsions:
REMARK  status: ('A' for Active; 'I' for Inactive)
REMARK                            x       y       z     vdW  Elec       q    Type
REMARK                         _______ _______ _______ _____ _____    ______ ____
ROOT
ATOM      1  N   UNL     1       7.485   5.243  14.582  0.00  0.00    +0.000 N 
ATOM      2  C   UNL     1       6.871   4.976  15.777  0.00  0.00    +0.000 A 
ATOM      3  N   UNL     1       7.595   5.119  16.884  0.00  0.00    +0.000 NA
ATOM      4  C   UNL     1       7.000   4.769  18.038  0.00  0.00    +0.000 A 
ATOM      5  N   UNL     1       7.754   4.984  19.203  0.00  0.00    +0.000 N 
ATOM      6  C   UNL     1       5.698   4.291  18.125  0.00  0.00    +0.000 A 
ATOM      7  N   UNL     1       5.128   3.901  19.303  0.00  0.00    +0.000 NA
ATOM      8  C   UNL     1       3.868   3.449  19.243  0.00  0.00    +0.000 A 
ATOM      9  C   UNL     1       3.232   3.037  20.407  0.00  0.00    +0.000 A 
ATOM     10  C   UNL     1       1.919   2.565  20.379  0.00  0.00    +0.000 A 
ATOM     11  C   UNL     1       1.240   2.509  19.170  0.00  0.00    +0.000 A 
ATOM     12  C   UNL     1       1.879   2.919  17.998  0.00  0.00    +0.000 A 
ATOM     13  C   UNL     1       3.186   3.388  18.014  0.00  0.00    +0.000 A 
ATOM     14  N   UNL     1       3.777   3.768  16.862  0.00  0.00    +0.000 NA
ATOM     15  C   UNL     1       5.039   4.218  16.900  0.00  0.00    +0.000 A 
ATOM     16  N   UNL     1       5.609   4.558  15.747  0.00  0.00    +0.000 NA
ATOM     17  H   UNL     1       8.341   5.772  14.646  0.00  0.00    +0.000 HD
ATOM     18  H   UNL     1       6.865   5.360  13.797  0.00  0.00    +0.000 HD
ATOM     19  H   UNL     1       8.718   5.182  18.957  0.00  0.00    +0.000 HD
ATOM     20  H   UNL     1       7.628   4.229  19.871  0.00  0.00    +0.000 HD
ENDROOT
TORSDOF 0
ENDMDL
MODEL 2
REMARK VINA RESULT:      -8.0      2.048      5.056
REMARK  Name = 
REMARK  0 active torsions:
REMARK  status: ('A' for Active; 'I' for Inactive)
REMARK                            x       y       z     vdW  Elec       q    Type
REMARK                         _______ _______ _______ _____ _____    ______ ____
ROOT
ATOM      1  N   UNL     1       0.835   2.380  18.592  0.00  0.00    +0.000 N 
ATOM      2  C   UNL     1       2.140   2.782  18.703  0.00  0.00    +0.000 A 
ATOM      3  N   UNL     1       2.941   2.058  19.480  0.00  0.00    +0.000 NA
ATOM      4  C   UNL     1       4.193   2.520  19.642  0.00  0.00    +0.000 A 
ATOM      5  N   UNL     1       5.046   1.713  20.414  0.00  0.00    +0.000 N 
ATOM      6  C   UNL     1       4.678   3.677  19.044  0.00  0.00    +0.000 A 
ATOM      7  N   UNL     1       5.941   4.150  19.258  0.00  0.00    +0.000 NA
ATOM      8  C   UNL     1       6.275   5.284  18.627  0.00  0.00    +0.000 A 
ATOM      9  C   UNL     1       7.546   5.817  18.803  0.00  0.00    +0.000 A 
ATOM     10  C   UNL     1       7.926   6.994  18.157  0.00  0.00    +0.000 A 
ATOM     11  C   UNL     1       7.021   7.639  17.325  0.00  0.00    +0.000 A 
ATOM     12  C   UNL     1       5.742   7.107  17.150  0.00  0.00    +0.000 A 
ATOM     13  C   UNL     1       5.352   5.937  17.789  0.00  0.00    +0.000 A 
ATOM     14  N   UNL     1       4.105   5.455  17.606  0.00  0.00    +0.000 NA
ATOM     15  C   UNL     1       3.750   4.325  18.233  0.00  0.00    +0.000 A 
ATOM     16  N   UNL     1       2.505   3.886  18.059  0.00  0.00    +0.000 NA
ATOM     17  H   UNL     1       0.649   1.435  18.890  0.00  0.00    +0.000 HD
ATOM     18  H   UNL     1       0.322   2.790  17.829  0.00  0.00    +0.000 HD
ATOM     19  H   UNL     1       4.504   1.004  20.897  0.00  0.00    +0.000 HD
ATOM     20  H   UNL     1       5.648   2.273  21.010  0.00  0.00    +0.000 HD
ENDROOT
TORSDOF 0
ENDMDL
MODEL 3
REMARK VINA RESULT:      -7.8      1.756      2.087
REMARK  Name = 
REMARK  0 active torsions:
REMARK  status: ('A' for Active; 'I' for Inactive)
REMARK                            x       y       z     vdW  Elec       q    Type
REMARK                         _______ _______ _______ _____ _____    ______ ____
ROOT
ATOM      1  N   UNL     1       7.884   8.551  17.054  0.00  0.00    +0.000 N 
ATOM      2  C   UNL     1       7.336   7.462  17.679  0.00  0.00    +0.000 A 
ATOM      3  N   UNL     1       8.027   6.913  18.673  0.00  0.00    +0.000 NA
ATOM      4  C   UNL     1       7.511   5.795  19.215  0.00  0.00    +0.000 A 
ATOM      5  N   UNL     1       8.220   5.261  20.303  0.00  0.00    +0.000 N 
ATOM      6  C   UNL     1       6.319   5.213  18.803  0.00  0.00    +0.000 A 
ATOM      7  N   UNL     1       5.836   4.053  19.337  0.00  0.00    +0.000 NA
ATOM      8  C   UNL     1       4.679   3.595  18.840  0.00  0.00    +0.000 A 
ATOM      9  C   UNL     1       4.134   2.420  19.342  0.00  0.00    +0.000 A 
ATOM     10  C   UNL     1       2.929   1.919  18.848  0.00  0.00    +0.000 A 
ATOM     11  C   UNL     1       2.265   2.607  17.842  0.00  0.00    +0.000 A 
ATOM     12  C   UNL     1       2.813   3.786  17.333  0.00  0.00    +0.000 A 
ATOM     13  C   UNL     1       4.012   4.293  17.816  0.00  0.00    +0.000 A 
ATOM     14  N   UNL     1       4.519   5.431  17.295  0.00  0.00    +0.000 NA
ATOM     15  C   UNL     1       5.677   5.902  17.776  0.00  0.00    +0.000 A 
ATOM     16  N   UNL     1       6.171   7.009  17.226  0.00  0.00    +0.000 NA
ATOM     17  H   UNL     1       8.630   9.006  17.557  0.00  0.00    +0.000 HD
ATOM     18  H   UNL     1       7.249   9.084  16.482  0.00  0.00    +0.000 HD
ATOM     19  H   UNL     1       9.130   5.703  20.371  0.00  0.00    +0.000 HD
ATOM     20  H   UNL     1       8.237   4.246  20.274  0.00  0.00    +0.000 HD
ENDROOT
TORSDOF 0
ENDMDL
MODEL 4
REMARK VINA RESULT:      -7.8      1.183      2.603
REMARK  Name = 
REMARK  0 active torsions:
REMARK  status: ('A' for Active; 'I' for Inactive)
REMARK                            x       y       z     vdW  Elec       q    Type
REMARK                         _______ _______ _______ _____ _____    ______ ____
ROOT
ATOM      1  N   UNL     1       8.252   6.583  19.006  0.00  0.00    +0.000 N 
ATOM      2  C   UNL     1       7.230   5.741  18.653  0.00  0.00    +0.000 A 
ATOM      3  N   UNL     1       7.306   5.147  17.466  0.00  0.00    +0.000 NA
ATOM      4  C   UNL     1       6.253   4.393  17.105  0.00  0.00    +0.000 A 
ATOM      5  N   UNL     1       6.374   3.723  15.877  0.00  0.00    +0.000 N 
ATOM      6  C   UNL     1       5.127   4.204  17.897  0.00  0.00    +0.000 A 
ATOM      7  N   UNL     1       4.049   3.470  17.491  0.00  0.00    +0.000 NA
ATOM      8  C   UNL     1       3.025   3.377  18.349  0.00  0.00    +0.000 A 
ATOM      9  C   UNL     1       1.899   2.643  17.996  0.00  0.00    +0.000 A 
ATOM     10  C   UNL     1       0.817   2.524  18.870  0.00  0.00    +0.000 A 
ATOM     11  C   UNL     1       0.869   3.147  20.110  0.00  0.00    +0.000 A 
ATOM     12  C   UNL     1       1.998   3.887  20.465  0.00  0.00    +0.000 A 
ATOM     13  C   UNL     1       3.079   4.014  19.603  0.00  0.00    +0.000 A 
ATOM     14  N   UNL     1       4.152   4.745  19.974  0.00  0.00    +0.000 NA
ATOM     15  C   UNL     1       5.184   4.855  19.127  0.00  0.00    +0.000 A 
ATOM     16  N   UNL     1       6.217   5.605  19.504  0.00  0.00    +0.000 NA
ATOM     17  H   UNL     1       9.096   6.485  18.464  0.00  0.00    +0.000 HD
ATOM     18  H   UNL     1       8.291   6.826  19.982  0.00  0.00    +0.000 HD
ATOM     19  H   UNL     1       7.170   4.088  15.363  0.00  0.00    +0.000 HD
ATOM     20  H   UNL     1       5.497   3.722  15.365  0.00  0.00    +0.000 HD
ENDROOT
TORSDOF 0
ENDMDL
MODEL 5
REMARK VINA RESULT:      -7.7      1.453      2.342
REMARK  Name = 
REMARK  0 active torsions:
REMARK  status: ('A' for Active; 'I' for Inactive)
REMARK                            x       y       z     vdW  Elec       q    Type
REMARK                         _______ _______ _______ _____ _____    ______ ____
ROOT
ATOM      1  N   UNL     1       7.778   7.274  16.970  0.00  0.00    +0.000 N 
ATOM      2  C   UNL     1       6.866   6.257  17.079  0.00  0.00    +0.000 A 
ATOM      3  N   UNL     1       6.971   5.244  16.223  0.00  0.00    +0.000 NA
ATOM      4  C   UNL     1       6.016   4.301  16.293  0.00  0.00    +0.000 A 
ATOM      5  N   UNL     1       6.174   3.207  15.425  0.00  0.00    +0.000 N 
ATOM      6  C   UNL     1       4.963   4.329  17.198  0.00  0.00    +0.000 A 
ATOM      7  N   UNL     1       3.979   3.382  17.222  0.00  0.00    +0.000 NA
ATOM      8  C   UNL     1       3.016   3.535  18.140  0.00  0.00    +0.000 A 
ATOM      9  C   UNL     1       1.986   2.605  18.216  0.00  0.00    +0.000 A 
ATOM     10  C   UNL     1       0.970   2.735  19.163  0.00  0.00    +0.000 A 
ATOM     11  C   UNL     1       0.991   3.808  20.044  0.00  0.00    +0.000 A 
ATOM     12  C   UNL     1       2.022   4.746  19.967  0.00  0.00    +0.000 A 
ATOM     13  C   UNL     1       3.037   4.628  19.027  0.00  0.00    +0.000 A 
ATOM     14  N   UNL     1       4.015   5.558  18.973  0.00  0.00    +0.000 NA
ATOM     15  C   UNL     1       4.984   5.425  18.058  0.00  0.00    +0.000 A 
ATOM     16  N   UNL     1       5.920   6.369  18.006  0.00  0.00    +0.000 NA
ATOM     17  H   UNL     1       8.603   7.057  16.433  0.00  0.00    +0.000 HD
ATOM     18  H   UNL     1       7.827   7.895  17.761  0.00  0.00    +0.000 HD
ATOM     19  H   UNL     1       6.889   3.415  14.736  0.00  0.00    +0.000 HD
ATOM     20  H   UNL     1       5.283   2.905  15.043  0.00  0.00    +0.000 HD
ENDROOT
TORSDOF 0
ENDMDL
MODEL 6
REMARK VINA RESULT:      -7.5      2.428      5.488
REMARK  Name = 
REMARK  0 active torsions:
REMARK  status: ('A' for Active; 'I' for Inactive)
REMARK                            x       y       z     vdW  Elec       q    Type
REMARK                         _______ _______ _______ _____ _____    ______ ____
ROOT
ATOM      1  N   UNL     1       7.847   5.841  19.899  0.00  0.00    +0.000 N 
ATOM      2  C   UNL     1       7.209   5.355  18.788  0.00  0.00    +0.000 A 
ATOM      3  N   UNL     1       6.146   4.580  18.981  0.00  0.00    +0.000 NA
ATOM      4  C   UNL     1       5.588   4.044  17.881  0.00  0.00    +0.000 A 
ATOM      5  N   UNL     1       4.430   3.279  18.095  0.00  0.00    +0.000 N 
ATOM      6  C   UNL     1       6.051   4.266  16.590  0.00  0.00    +0.000 A 
ATOM      7  N   UNL     1       5.496   3.677  15.490  0.00  0.00    +0.000 NA
ATOM      8  C   UNL     1       6.048   3.970  14.305  0.00  0.00    +0.000 A 
ATOM      9  C   UNL     1       5.528   3.402  13.149  0.00  0.00    +0.000 A 
ATOM     10  C   UNL     1       6.078   3.690  11.899  0.00  0.00    +0.000 A 
ATOM     11  C   UNL     1       7.159   4.557  11.812  0.00  0.00    +0.000 A 
ATOM     12  C   UNL     1       7.685   5.125  12.973  0.00  0.00    +0.000 A 
ATOM     13  C   UNL     1       7.147   4.845  14.222  0.00  0.00    +0.000 A 
ATOM     14  N   UNL     1       7.685   5.404  15.327  0.00  0.00    +0.000 NA
ATOM     15  C   UNL     1       7.151   5.119  16.522  0.00  0.00    +0.000 A 
ATOM     16  N   UNL     1       7.718   5.659  17.598  0.00  0.00    +0.000 NA
ATOM     17  H   UNL     1       7.317   5.793  20.755  0.00  0.00    +0.000 HD
ATOM     18  H   UNL     1       8.485   6.601  19.730  0.00  0.00    +0.000 HD
ATOM     19  H   UNL     1       4.322   3.088  19.085  0.00  0.00    +0.000 HD
ATOM     20  H   UNL     1       4.410   2.460  17.495  0.00  0.00    +0.000 HD
ENDROOT
TORSDOF 0
ENDMDL
MODEL 7
REMARK VINA RESULT:      -7.4      2.491      5.404
REMARK  Name = 
REMARK  0 active torsions:
REMARK  status: ('A' for Active; 'I' for Inactive)
REMARK                            x       y       z     vdW  Elec       q    Type
REMARK                         _______ _______ _______ _____ _____    ______ ____
ROOT
ATOM      1  N   UNL     1       1.748   2.496  21.983  0.00  0.00    +0.000 N 
ATOM      2  C   UNL     1       2.283   3.393  21.097  0.00  0.00    +0.000 A 
ATOM      3  N   UNL     1       1.971   4.676  21.259  0.00  0.00    +0.000 NA
ATOM      4  C   UNL     1       2.437   5.527  20.329  0.00  0.00    +0.000 A 
ATOM      5  N   UNL     1       2.152   6.885  20.547  0.00  0.00    +0.000 N 
ATOM      6  C   UNL     1       3.215   5.141  19.244  0.00  0.00    +0.000 A 
ATOM      7  N   UNL     1       3.641   6.017  18.287  0.00  0.00    +0.000 NA
ATOM      8  C   UNL     1       4.375   5.510  17.289  0.00  0.00    +0.000 A 
ATOM      9  C   UNL     1       4.839   6.350  16.283  0.00  0.00    +0.000 A 
ATOM     10  C   UNL     1       5.610   5.852  15.232  0.00  0.00    +0.000 A 
ATOM     11  C   UNL     1       5.919   4.499  15.192  0.00  0.00    +0.000 A 
ATOM     12  C   UNL     1       5.451   3.653  16.199  0.00  0.00    +0.000 A 
ATOM     13  C   UNL     1       4.681   4.137  17.249  0.00  0.00    +0.000 A 
ATOM     14  N   UNL     1       4.236   3.290  18.202  0.00  0.00    +0.000 NA
ATOM     15  C   UNL     1       3.495   3.777  19.205  0.00  0.00    +0.000 A 
ATOM     16  N   UNL     1       3.044   2.918  20.116  0.00  0.00    +0.000 NA
ATOM     17  H   UNL     1       1.380   2.896  22.832  0.00  0.00    +0.000 HD
ATOM     18  H   UNL     1       2.180   1.586  21.987  0.00  0.00    +0.000 HD
ATOM     19  H   UNL     1       1.456   6.977  21.279  0.00  0.00    +0.000 HD
ATOM     20  H   UNL     1       1.928   7.362  19.679  0.00  0.00    +0.000 HD
ENDROOT
TORSDOF 0
ENDMDL
MODEL 8
REMARK VINA RESULT:      -7.4      1.375      2.789
REMARK  Name = 
REMARK  0 active torsions:
REMARK  status: ('A' for Active; 'I' for Inactive)
REMARK                            x       y       z     vdW  Elec       q    Type
REMARK                         _______ _______ _______ _____ _____    ______ ____
ROOT
ATOM      1  N   UNL     1       8.522   7.045  18.906  0.00  0.00    +0.000 N 
ATOM      2  C   UNL     1       7.386   6.439  18.436  0.00  0.00    +0.000 A 
ATOM      3  N   UNL     1       6.919   6.842  17.258  0.00  0.00    +0.000 NA
ATOM      4  C   UNL     1       5.758   6.296  16.856  0.00  0.00    +0.000 A 
ATOM      5  N   UNL     1       5.309   6.684  15.583  0.00  0.00    +0.000 N 
ATOM      6  C   UNL     1       5.051   5.350  17.588  0.00  0.00    +0.000 A 
ATOM      7  N   UNL     1       3.851   4.840  17.181  0.00  0.00    +0.000 NA
ATOM      8  C   UNL     1       3.272   3.942  17.988  0.00  0.00    +0.000 A 
ATOM      9  C   UNL     1       2.050   3.387  17.630  0.00  0.00    +0.000 A 
ATOM     10  C   UNL     1       1.422   2.446  18.448  0.00  0.00    +0.000 A 
ATOM     11  C   UNL     1       2.030   2.059  19.635  0.00  0.00    +0.000 A 
ATOM     12  C   UNL     1       3.256   2.620  19.998  0.00  0.00    +0.000 A 
ATOM     13  C   UNL     1       3.888   3.558  19.194  0.00  0.00    +0.000 A 
ATOM     14  N   UNL     1       5.069   4.087  19.579  0.00  0.00    +0.000 NA
ATOM     15  C   UNL     1       5.662   4.991  18.788  0.00  0.00    +0.000 A 
ATOM     16  N   UNL     1       6.810   5.519  19.204  0.00  0.00    +0.000 NA
ATOM     17  H   UNL     1       9.055   7.553  18.218  0.00  0.00    +0.000 HD
ATOM     18  H   UNL     1       8.981   6.568  19.665  0.00  0.00    +0.000 HD
ATOM     19  H   UNL     1       5.844   7.483  15.258  0.00  0.00    +0.000 HD
ATOM     20  H   UNL     1       4.301   6.808  15.566  0.00  0.00    +0.000 HD
ENDROOT
TORSDOF 0
ENDMDL
MODEL 9
REMARK VINA RESULT:      -7.3      1.244      1.245
REMARK  Name = 
REMARK  0 active torsions:
REMARK  status: ('A' for Active; 'I' for Inactive)
REMARK                            x       y       z     vdW  Elec       q    Type
REMARK                         _______ _______ _______ _____ _____    ______ ____
ROOT
ATOM      1  N   UNL     1       7.474   5.113  14.001  0.00  0.00    +0.000 N 
ATOM      2  C   UNL     1       6.827   5.268  15.199  0.00  0.00    +0.000 A 
ATOM      3  N   UNL     1       7.480   5.895  16.173  0.00  0.00    +0.000 NA
ATOM      4  C   UNL     1       6.860   5.960  17.364  0.00  0.00    +0.000 A 
ATOM      5  N   UNL     1       7.535   6.679  18.364  0.00  0.00    +0.000 N 
ATOM      6  C   UNL     1       5.601   5.428  17.613  0.00  0.00    +0.000 A 
ATOM      7  N   UNL     1       5.009   5.467  18.843  0.00  0.00    +0.000 NA
ATOM      8  C   UNL     1       3.797   4.906  18.947  0.00  0.00    +0.000 A 
ATOM      9  C   UNL     1       3.141   4.913  20.172  0.00  0.00    +0.000 A 
ATOM     10  C   UNL     1       1.876   4.340  20.312  0.00  0.00    +0.000 A 
ATOM     11  C   UNL     1       1.265   3.757  19.211  0.00  0.00    +0.000 A 
ATOM     12  C   UNL     1       1.924   3.745  17.980  0.00  0.00    +0.000 A 
ATOM     13  C   UNL     1       3.184   4.310  17.829  0.00  0.00    +0.000 A 
ATOM     14  N   UNL     1       3.797   4.274  16.627  0.00  0.00    +0.000 NA
ATOM     15  C   UNL     1       5.012   4.824  16.504  0.00  0.00    +0.000 A 
ATOM     16  N   UNL     1       5.608   4.749  15.317  0.00  0.00    +0.000 NA
ATOM     17  H   UNL     1       8.278   5.706  13.866  0.00  0.00    +0.000 HD
ATOM     18  H   UNL     1       6.886   4.857  13.225  0.00  0.00    +0.000 HD
ATOM     19  H   UNL     1       8.489   6.861  18.073  0.00  0.00    +0.000 HD
ATOM     20  H   UNL     1       7.440   6.231  19.271  0.00  0.00    +0.000 HD
ENDROOT
TORSDOF 0
ENDMDL
