MODEL 1
REMARK VINA RESULT:      -8.0      0.000      0.000
REMARK  Name = 
REMARK  7 active torsions:
REMARK  status: ('A' for Active; 'I' for Inactive)
REMARK    1  A    between atoms: C_1  and  O_2
REMARK    2  A    between atoms: O_2  and  C_3
REMARK    3  A    between atoms: C_6  and  C_7
REMARK    4  A    between atoms: N_8  and  C_9
REMARK    5  A    between atoms: C_9  and  C_10
REMARK    6  A    between atoms: N_22  and  C_23
REMARK    7  A    between atoms: C_23  and  C_24
REMARK                            x       y       z     vdW  Elec       q    Type
REMARK                         _______ _______ _______ _____ _____    ______ ____
ROOT
ATOM      1  C   UNL     1       4.631   4.923  18.842  0.00  0.00    +0.000 C 
ATOM      2  N   UNL     1       4.485   3.875  17.768  0.00  0.00    +0.000 N 
ATOM      3  C   UNL     1       3.265   3.253  18.227  0.00  0.00    +0.000 A 
ATOM      4  C   UNL     1       2.801   2.006  17.848  0.00  0.00    +0.000 A 
ATOM      5  C   UNL     1       1.500   1.644  18.173  0.00  0.00    +0.000 A 
ATOM      6  C   UNL     1       0.712   2.538  18.905  0.00  0.00    +0.000 A 
ATOM      7  C   UNL     1       1.221   3.781  19.333  0.00  0.00    +0.000 A 
ATOM      8  C   UNL     1       2.514   4.146  18.990  0.00  0.00    +0.000 A 
ATOM      9  N   UNL     1       3.252   5.328  19.211  0.00  0.00    +0.000 N 
ENDROOT
BRANCH   1  13
ATOM     10  C   UNL     1       7.565   8.011  17.719  0.00  0.00    +0.000 A 
ATOM     11  C   UNL     1       7.971   6.896  18.454  0.00  0.00    +0.000 A 
ATOM     12  C   UNL     1       7.057   5.886  18.823  0.00  0.00    +0.000 A 
ATOM     13  C   UNL     1       5.706   5.967  18.466  0.00  0.00    +0.000 A 
ATOM     14  C   UNL     1       5.396   7.003  17.553  0.00  0.00    +0.000 A 
ATOM     15  C   UNL     1       6.265   8.049  17.254  0.00  0.00    +0.000 A 
BRANCH  10  17
ATOM     16  C   UNL     1       8.744   9.903  18.533  0.00  0.00    +0.000 C 
ATOM     17  O   UNL     1       8.512   8.968  17.480  0.00  0.00    +0.000 OA
ENDBRANCH  10  17
ENDBRANCH   1  13
BRANCH   2  18
ATOM     18  C   UNL     1       4.197   4.318  16.358  0.00  0.00    +0.000 C 
BRANCH  18  19
ATOM     19  C   UNL     1       5.427   4.005  15.501  0.00  0.00    +0.000 A 
ATOM     20  C   UNL     1       6.666   4.549  15.856  0.00  0.00    +0.000 A 
ATOM     21  C   UNL     1       7.587   4.845  14.854  0.00  0.00    +0.000 A 
ATOM     22  C   UNL     1       7.293   4.541  13.522  0.00  0.00    +0.000 A 
ATOM     23  C   UNL     1       6.158   3.796  13.208  0.00  0.00    +0.000 A 
ATOM     24  C   UNL     1       5.251   3.472  14.210  0.00  0.00    +0.000 A 
ENDBRANCH  18  19
ENDBRANCH   2  18
BRANCH   9  25
ATOM     25  C   UNL     1       2.895   6.233  20.290  0.00  0.00    +0.000 C 
BRANCH  25  26
ATOM     26  C   UNL     1       2.186   7.530  19.940  0.00  0.00    +0.000 A 
ATOM     27  C   UNL     1       2.204   7.992  18.608  0.00  0.00    +0.000 A 
ATOM     28  C   UNL     1       1.458   9.099  18.217  0.00  0.00    +0.000 A 
ATOM     29  C   UNL     1       0.680   9.791  19.144  0.00  0.00    +0.000 A 
ATOM     30  C   UNL     1       0.637   9.350  20.461  0.00  0.00    +0.000 A 
ATOM     31  C   UNL     1       1.386   8.231  20.851  0.00  0.00    +0.000 A 
ENDBRANCH  25  26
ENDBRANCH   9  25
TORSDOF 6
ENDMDL
MODEL 2
REMARK VINA RESULT:      -7.9      7.899     12.441
REMARK  Name = 
REMARK  7 active torsions:
REMARK  status: ('A' for Active; 'I' for Inactive)
REMARK    1  A    between atoms: C_1  and  O_2
REMARK    2  A    between atoms: O_2  and  C_3
REMARK    3  A    between atoms: C_6  and  C_7
REMARK    4  A    between atoms: N_8  and  C_9
REMARK    5  A    between atoms: C_9  and  C_10
REMARK    6  A    between atoms: N_22  and  C_23
REMARK    7  A    between atoms: C_23  and  C_24
REMARK                            x       y       z     vdW  Elec       q    Type
REMARK                         _______ _______ _______ _____ _____    ______ ____
ROOT
ATOM      1  C   UNL     1      -3.361  12.909  19.438  0.00  0.00    +0.000 C 
ATOM      2  N   UNL     1      -4.562  12.405  18.679  0.00  0.00    +0.000 N 
ATOM      3  C   UNL     1      -3.879  11.634  17.666  0.00  0.00    +0.000 A 
ATOM      4  C   UNL     1      -4.427  11.206  16.470  0.00  0.00    +0.000 A 
ATOM      5  C   UNL     1      -3.738  10.269  15.711  0.00  0.00    +0.000 A 
ATOM      6  C   UNL     1      -2.494   9.815  16.162  0.00  0.00    +0.000 A 
ATOM      7  C   UNL     1      -1.924  10.307  17.354  0.00  0.00    +0.000 A 
ATOM      8  C   UNL     1      -2.624  11.228  18.118  0.00  0.00    +0.000 A 
ATOM      9  N   UNL     1      -2.345  11.829  19.364  0.00  0.00    +0.000 N 
ENDROOT
BRANCH   1  13
ATOM     10  C   UNL     1      -4.599  14.843  23.198  0.00  0.00    +0.000 A 
ATOM     11  C   UNL     1      -4.180  13.511  23.201  0.00  0.00    +0.000 A 
ATOM     12  C   UNL     1      -3.771  12.866  22.015  0.00  0.00    +0.000 A 
ATOM     13  C   UNL     1      -3.772  13.539  20.788  0.00  0.00    +0.000 A 
ATOM     14  C   UNL     1      -4.004  14.931  20.877  0.00  0.00    +0.000 A 
ATOM     15  C   UNL     1      -4.492  15.558  22.020  0.00  0.00    +0.000 A 
BRANCH  10  17
ATOM     16  C   UNL     1      -5.833  16.539  24.307  0.00  0.00    +0.000 C 
ATOM     17  O   UNL     1      -5.049  15.350  24.385  0.00  0.00    +0.000 OA
ENDBRANCH  10  17
ENDBRANCH   1  13
BRANCH   2  18
ATOM     18  C   UNL     1      -5.491  11.432  19.357  0.00  0.00    +0.000 C 
BRANCH  18  19
ATOM     19  C   UNL     1      -6.694  12.217  19.888  0.00  0.00    +0.000 A 
ATOM     20  C   UNL     1      -7.126  13.356  19.201  0.00  0.00    +0.000 A 
ATOM     21  C   UNL     1      -7.708  14.399  19.920  0.00  0.00    +0.000 A 
ATOM     22  C   UNL     1      -7.909  14.273  21.296  0.00  0.00    +0.000 A 
ATOM     23  C   UNL     1      -7.685  13.051  21.927  0.00  0.00    +0.000 A 
ATOM     24  C   UNL     1      -7.132  11.998  21.207  0.00  0.00    +0.000 A 
ENDBRANCH  18  19
ENDBRANCH   2  18
BRANCH   9  25
ATOM     25  C   UNL     1      -0.980  11.914  19.855  0.00  0.00    +0.000 C 
BRANCH  25  26
ATOM     26  C   UNL     1      -0.524  10.908  20.898  0.00  0.00    +0.000 A 
ATOM     27  C   UNL     1      -0.914  11.077  22.242  0.00  0.00    +0.000 A 
ATOM     28  C   UNL     1      -0.634  10.111  23.203  0.00  0.00    +0.000 A 
ATOM     29  C   UNL     1       0.059   8.951  22.859  0.00  0.00    +0.000 A 
ATOM     30  C   UNL     1       0.446   8.756  21.538  0.00  0.00    +0.000 A 
ATOM     31  C   UNL     1       0.157   9.729  20.571  0.00  0.00    +0.000 A 
ENDBRANCH  25  26
ENDBRANCH   9  25
TORSDOF 6
ENDMDL
MODEL 3
REMARK VINA RESULT:      -7.8      7.293     12.119
REMARK  Name = 
REMARK  7 active torsions:
REMARK  status: ('A' for Active; 'I' for Inactive)
REMARK    1  A    between atoms: C_1  and  O_2
REMARK    2  A    between atoms: O_2  and  C_3
REMARK    3  A    between atoms: C_6  and  C_7
REMARK    4  A    between atoms: N_8  and  C_9
REMARK    5  A    between atoms: C_9  and  C_10
REMARK    6  A    between atoms: N_22  and  C_23
REMARK    7  A    between atoms: C_23  and  C_24
REMARK                            x       y       z     vdW  Elec       q    Type
REMARK                         _______ _______ _______ _____ _____    ______ ____
ROOT
ATOM      1  C   UNL     1      -3.220  12.745  19.329  0.00  0.00    +0.000 C 
ATOM      2  N   UNL     1      -4.453  12.213  18.644  0.00  0.00    +0.000 N 
ATOM      3  C   UNL     1      -3.815  11.472  17.580  0.00  0.00    +0.000 A 
ATOM      4  C   UNL     1      -4.428  11.039  16.418  0.00  0.00    +0.000 A 
ATOM      5  C   UNL     1      -3.762  10.130  15.605  0.00  0.00    +0.000 A 
ATOM      6  C   UNL     1      -2.478   9.710  15.969  0.00  0.00    +0.000 A 
ATOM      7  C   UNL     1      -1.847  10.207  17.127  0.00  0.00    +0.000 A 
ATOM      8  C   UNL     1      -2.522  11.100  17.946  0.00  0.00    +0.000 A 
ATOM      9  N   UNL     1      -2.180  11.697  19.177  0.00  0.00    +0.000 N 
ENDROOT
BRANCH   1  13
ATOM     10  C   UNL     1      -4.090  14.345  23.341  0.00  0.00    +0.000 A 
ATOM     11  C   UNL     1      -4.433  15.081  22.205  0.00  0.00    +0.000 A 
ATOM     12  C   UNL     1      -4.174  14.593  20.907  0.00  0.00    +0.000 A 
ATOM     13  C   UNL     1      -3.560  13.350  20.710  0.00  0.00    +0.000 A 
ATOM     14  C   UNL     1      -3.426  12.565  21.878  0.00  0.00    +0.000 A 
ATOM     15  C   UNL     1      -3.595  13.067  23.166  0.00  0.00    +0.000 A 
BRANCH  10  17
ATOM     16  C   UNL     1      -3.162  15.442  25.229  0.00  0.00    +0.000 C 
ATOM     17  O   UNL     1      -4.313  14.941  24.550  0.00  0.00    +0.000 OA
ENDBRANCH  10  17
ENDBRANCH   1  13
BRANCH   2  18
ATOM     18  C   UNL     1      -5.307  11.207  19.370  0.00  0.00    +0.000 C 
BRANCH  18  19
ATOM     19  C   UNL     1      -6.560  11.925  19.877  0.00  0.00    +0.000 A 
ATOM     20  C   UNL     1      -7.117  12.954  19.110  0.00  0.00    +0.000 A 
ATOM     21  C   UNL     1      -7.770  14.002  19.755  0.00  0.00    +0.000 A 
ATOM     22  C   UNL     1      -7.916  13.985  21.145  0.00  0.00    +0.000 A 
ATOM     23  C   UNL     1      -7.561  12.850  21.872  0.00  0.00    +0.000 A 
ATOM     24  C   UNL     1      -6.935  11.790  21.226  0.00  0.00    +0.000 A 
ENDBRANCH  18  19
ENDBRANCH   2  18
BRANCH   9  25
ATOM     25  C   UNL     1      -0.789  11.819  19.579  0.00  0.00    +0.000 C 
BRANCH  25  26
ATOM     26  C   UNL     1      -0.199  10.740  20.472  0.00  0.00    +0.000 A 
ATOM     27  C   UNL     1      -0.594  10.666  21.824  0.00  0.00    +0.000 A 
ATOM     28  C   UNL     1      -0.185   9.617  22.640  0.00  0.00    +0.000 A 
ATOM     29  C   UNL     1       0.646   8.615  22.140  0.00  0.00    +0.000 A 
ATOM     30  C   UNL     1       1.041   8.660  20.808  0.00  0.00    +0.000 A 
ATOM     31  C   UNL     1       0.623   9.715  19.987  0.00  0.00    +0.000 A 
ENDBRANCH  25  26
ENDBRANCH   9  25
TORSDOF 6
ENDMDL
MODEL 4
REMARK VINA RESULT:      -7.6      5.895     11.235
REMARK  Name = 
REMARK  7 active torsions:
REMARK  status: ('A' for Active; 'I' for Inactive)
REMARK    1  A    between atoms: C_1  and  O_2
REMARK    2  A    between atoms: O_2  and  C_3
REMARK    3  A    between atoms: C_6  and  C_7
REMARK    4  A    between atoms: N_8  and  C_9
REMARK    5  A    between atoms: C_9  and  C_10
REMARK    6  A    between atoms: N_22  and  C_23
REMARK    7  A    between atoms: C_23  and  C_24
REMARK                            x       y       z     vdW  Elec       q    Type
REMARK                         _______ _______ _______ _____ _____    ______ ____
ROOT
ATOM      1  C   UNL     1      -1.820  12.702  19.291  0.00  0.00    +0.000 C 
ATOM      2  N   UNL     1      -3.287  12.540  18.982  0.00  0.00    +0.000 N 
ATOM      3  C   UNL     1      -3.176  11.720  17.798  0.00  0.00    +0.000 A 
ATOM      4  C   UNL     1      -4.171  11.521  16.858  0.00  0.00    +0.000 A 
ATOM      5  C   UNL     1      -4.011  10.517  15.911  0.00  0.00    +0.000 A 
ATOM      6  C   UNL     1      -2.833   9.764  15.916  0.00  0.00    +0.000 A 
ATOM      7  C   UNL     1      -1.805  10.019  16.846  0.00  0.00    +0.000 A 
ATOM      8  C   UNL     1      -1.977  11.010  17.802  0.00  0.00    +0.000 A 
ATOM      9  N   UNL     1      -1.171  11.432  18.880  0.00  0.00    +0.000 N 
ENDROOT
BRANCH   1  13
ATOM     10  C   UNL     1      -1.122  14.253  23.356  0.00  0.00    +0.000 A 
ATOM     11  C   UNL     1      -1.577  15.107  22.349  0.00  0.00    +0.000 A 
ATOM     12  C   UNL     1      -1.817  14.639  21.040  0.00  0.00    +0.000 A 
ATOM     13  C   UNL     1      -1.604  13.298  20.701  0.00  0.00    +0.000 A 
ATOM     14  C   UNL     1      -1.346  12.444  21.798  0.00  0.00    +0.000 A 
ATOM     15  C   UNL     1      -1.022  12.905  23.072  0.00  0.00    +0.000 A 
BRANCH  10  17
ATOM     16  C   UNL     1      -1.953  15.401  25.259  0.00  0.00    +0.000 C 
ATOM     17  O   UNL     1      -0.847  14.822  24.568  0.00  0.00    +0.000 OA
ENDBRANCH  10  17
ENDBRANCH   1  13
BRANCH   2  18
ATOM     18  C   UNL     1      -4.144  11.749  19.934  0.00  0.00    +0.000 C 
BRANCH  18  19
ATOM     19  C   UNL     1      -4.975  12.737  20.758  0.00  0.00    +0.000 A 
ATOM     20  C   UNL     1      -5.461  13.898  20.149  0.00  0.00    +0.000 A 
ATOM     21  C   UNL     1      -5.615  15.051  20.916  0.00  0.00    +0.000 A 
ATOM     22  C   UNL     1      -5.345  15.020  22.287  0.00  0.00    +0.000 A 
ATOM     23  C   UNL     1      -5.082  13.808  22.921  0.00  0.00    +0.000 A 
ATOM     24  C   UNL     1      -4.957  12.649  22.163  0.00  0.00    +0.000 A 
ENDBRANCH  18  19
ENDBRANCH   2  18
BRANCH   9  25
ATOM     25  C   UNL     1       0.259  11.172  18.882  0.00  0.00    +0.000 C 
BRANCH  25  26
ATOM     26  C   UNL     1       0.744   9.816  19.367  0.00  0.00    +0.000 A 
ATOM     27  C   UNL     1       1.581   9.042  18.537  0.00  0.00    +0.000 A 
ATOM     28  C   UNL     1       2.158   7.860  18.991  0.00  0.00    +0.000 A 
ATOM     29  C   UNL     1       1.905   7.403  20.284  0.00  0.00    +0.000 A 
ATOM     30  C   UNL     1       1.091   8.152  21.125  0.00  0.00    +0.000 A 
ATOM     31  C   UNL     1       0.517   9.345  20.666  0.00  0.00    +0.000 A 
ENDBRANCH  25  26
ENDBRANCH   9  25
TORSDOF 6
ENDMDL
MODEL 5
REMARK VINA RESULT:      -7.6      6.065     11.808
REMARK  Name = 
REMARK  7 active torsions:
REMARK  status: ('A' for Active; 'I' for Inactive)
REMARK    1  A    between atoms: C_1  and  O_2
REMARK    2  A    between atoms: O_2  and  C_3
REMARK    3  A    between atoms: C_6  and  C_7
REMARK    4  A    between atoms: N_8  and  C_9
REMARK    5  A    between atoms: C_9  and  C_10
REMARK    6  A    between atoms: N_22  and  C_23
REMARK    7  A    between atoms: C_23  and  C_24
REMARK                            x       y       z     vdW  Elec       q    Type
REMARK                         _______ _______ _______ _____ _____    ______ ____
ROOT
ATOM      1  C   UNL     1      -0.042  12.713  20.916  0.00  0.00    +0.000 C 
ATOM      2  N   UNL     1       0.600  14.039  21.237  0.00  0.00    +0.000 N 
ATOM      3  C   UNL     1       1.750  13.946  20.368  0.00  0.00    +0.000 A 
ATOM      4  C   UNL     1       2.899  14.710  20.465  0.00  0.00    +0.000 A 
ATOM      5  C   UNL     1       3.813  14.686  19.419  0.00  0.00    +0.000 A 
ATOM      6  C   UNL     1       3.560  13.862  18.317  0.00  0.00    +0.000 A 
ATOM      7  C   UNL     1       2.412  13.046  18.263  0.00  0.00    +0.000 A 
ATOM      8  C   UNL     1       1.493  13.087  19.300  0.00  0.00    +0.000 A 
ATOM      9  N   UNL     1       0.246  12.452  19.484  0.00  0.00    +0.000 N 
ENDROOT
BRANCH   1  13
ATOM     10  C   UNL     1      -4.075  12.488  22.677  0.00  0.00    +0.000 A 
ATOM     11  C   UNL     1      -3.919  12.765  21.318  0.00  0.00    +0.000 A 
ATOM     12  C   UNL     1      -2.642  12.836  20.722  0.00  0.00    +0.000 A 
ATOM     13  C   UNL     1      -1.480  12.634  21.476  0.00  0.00    +0.000 A 
ATOM     14  C   UNL     1      -1.702  12.156  22.789  0.00  0.00    +0.000 A 
ATOM     15  C   UNL     1      -2.949  12.166  23.410  0.00  0.00    +0.000 A 
BRANCH  10  17
ATOM     16  C   UNL     1      -5.788  13.763  23.711  0.00  0.00    +0.000 C 
ATOM     17  O   UNL     1      -5.349  12.518  23.170  0.00  0.00    +0.000 OA
ENDBRANCH  10  17
ENDBRANCH   1  13
BRANCH   2  18
ATOM     18  C   UNL     1      -0.106  15.304  20.825  0.00  0.00    +0.000 C 
BRANCH  18  19
ATOM     19  C   UNL     1      -0.831  15.864  22.052  0.00  0.00    +0.000 A 
ATOM     20  C   UNL     1      -0.302  15.630  23.326  0.00  0.00    +0.000 A 
ATOM     21  C   UNL     1      -1.171  15.523  24.409  0.00  0.00    +0.000 A 
ATOM     22  C   UNL     1      -2.543  15.709  24.226  0.00  0.00    +0.000 A 
ATOM     23  C   UNL     1      -3.031  16.164  23.003  0.00  0.00    +0.000 A 
ATOM     24  C   UNL     1      -2.162  16.302  21.926  0.00  0.00    +0.000 A 
ENDBRANCH  18  19
ENDBRANCH   2  18
BRANCH   9  25
ATOM     25  C   UNL     1      -0.076  11.232  18.763  0.00  0.00    +0.000 C 
BRANCH  25  26
ATOM     26  C   UNL     1       0.805  10.013  18.976  0.00  0.00    +0.000 A 
ATOM     27  C   UNL     1       0.828   9.387  20.239  0.00  0.00    +0.000 A 
ATOM     28  C   UNL     1       1.513   8.193  20.442  0.00  0.00    +0.000 A 
ATOM     29  C   UNL     1       2.212   7.593  19.396  0.00  0.00    +0.000 A 
ATOM     30  C   UNL     1       2.198   8.186  18.139  0.00  0.00    +0.000 A 
ATOM     31  C   UNL     1       1.502   9.385  17.936  0.00  0.00    +0.000 A 
ENDBRANCH  25  26
ENDBRANCH   9  25
TORSDOF 6
ENDMDL
MODEL 6
REMARK VINA RESULT:      -7.5      6.251     11.240
REMARK  Name = 
REMARK  7 active torsions:
REMARK  status: ('A' for Active; 'I' for Inactive)
REMARK    1  A    between atoms: C_1  and  O_2
REMARK    2  A    between atoms: O_2  and  C_3
REMARK    3  A    between atoms: C_6  and  C_7
REMARK    4  A    between atoms: N_8  and  C_9
REMARK    5  A    between atoms: C_9  and  C_10
REMARK    6  A    between atoms: N_22  and  C_23
REMARK    7  A    between atoms: C_23  and  C_24
REMARK                            x       y       z     vdW  Elec       q    Type
REMARK                         _______ _______ _______ _____ _____    ______ ____
ROOT
ATOM      1  C   UNL     1      -2.019  11.748  20.074  0.00  0.00    +0.000 C 
ATOM      2  N   UNL     1      -3.195  12.313  20.829  0.00  0.00    +0.000 N 
ATOM      3  C   UNL     1      -2.480  12.958  21.906  0.00  0.00    +0.000 A 
ATOM      4  C   UNL     1      -3.027  13.362  23.110  0.00  0.00    +0.000 A 
ATOM      5  C   UNL     1      -2.283  14.187  23.944  0.00  0.00    +0.000 A 
ATOM      6  C   UNL     1      -0.990  14.553  23.556  0.00  0.00    +0.000 A 
ATOM      7  C   UNL     1      -0.428  14.083  22.352  0.00  0.00    +0.000 A 
ATOM      8  C   UNL     1      -1.181  13.275  21.514  0.00  0.00    +0.000 A 
ATOM      9  N   UNL     1      -0.915  12.726  20.241  0.00  0.00    +0.000 N 
ENDROOT
BRANCH   1  13
ATOM     10  C   UNL     1      -3.331  10.182  16.170  0.00  0.00    +0.000 A 
ATOM     11  C   UNL     1      -2.555  11.341  16.234  0.00  0.00    +0.000 A 
ATOM     12  C   UNL     1      -2.113  11.863  17.468  0.00  0.00    +0.000 A 
ATOM     13  C   UNL     1      -2.440  11.238  18.677  0.00  0.00    +0.000 A 
ATOM     14  C   UNL     1      -3.044   9.967  18.541  0.00  0.00    +0.000 A 
ATOM     15  C   UNL     1      -3.560   9.485  17.341  0.00  0.00    +0.000 A 
BRANCH  10  17
ATOM     16  C   UNL     1      -2.830   9.915  13.866  0.00  0.00    +0.000 C 
ATOM     17  O   UNL     1      -3.771   9.804  14.933  0.00  0.00    +0.000 OA
ENDBRANCH  10  17
ENDBRANCH   1  13
BRANCH   2  18
ATOM     18  C   UNL     1      -4.013  13.403  20.187  0.00  0.00    +0.000 C 
BRANCH  18  19
ATOM     19  C   UNL     1      -5.334  12.790  19.716  0.00  0.00    +0.000 A 
ATOM     20  C   UNL     1      -6.028  11.921  20.566  0.00  0.00    +0.000 A 
ATOM     21  C   UNL     1      -6.791  10.897  20.009  0.00  0.00    +0.000 A 
ATOM     22  C   UNL     1      -6.907  10.787  18.621  0.00  0.00    +0.000 A 
ATOM     23  C   UNL     1      -6.401  11.788  17.794  0.00  0.00    +0.000 A 
ATOM     24  C   UNL     1      -5.664  12.828  18.349  0.00  0.00    +0.000 A 
ENDBRANCH  18  19
ENDBRANCH   2  18
BRANCH   9  25
ATOM     25  C   UNL     1       0.452  12.548  19.783  0.00  0.00    +0.000 C 
BRANCH  25  26
ATOM     26  C   UNL     1       0.962  11.133  19.567  0.00  0.00    +0.000 A 
ATOM     27  C   UNL     1       0.878  10.197  20.618  0.00  0.00    +0.000 A 
ATOM     28  C   UNL     1       1.206   8.860  20.424  0.00  0.00    +0.000 A 
ATOM     29  C   UNL     1       1.645   8.414  19.178  0.00  0.00    +0.000 A 
ATOM     30  C   UNL     1       1.728   9.314  18.123  0.00  0.00    +0.000 A 
ATOM     31  C   UNL     1       1.391  10.660  18.320  0.00  0.00    +0.000 A 
ENDBRANCH  25  26
ENDBRANCH   9  25
TORSDOF 6
ENDMDL
MODEL 7
REMARK VINA RESULT:      -7.4      8.558     12.662
REMARK  Name = 
REMARK  7 active torsions:
REMARK  status: ('A' for Active; 'I' for Inactive)
REMARK    1  A    between atoms: C_1  and  O_2
REMARK    2  A    between atoms: O_2  and  C_3
REMARK    3  A    between atoms: C_6  and  C_7
REMARK    4  A    between atoms: N_8  and  C_9
REMARK    5  A    between atoms: C_9  and  C_10
REMARK    6  A    between atoms: N_22  and  C_23
REMARK    7  A    between atoms: C_23  and  C_24
REMARK                            x       y       z     vdW  Elec       q    Type
REMARK                         _______ _______ _______ _____ _____    ______ ____
ROOT
ATOM      1  C   UNL     1      -1.242  12.787  21.430  0.00  0.00    +0.000 C 
ATOM      2  N   UNL     1      -0.682  14.186  21.453  0.00  0.00    +0.000 N 
ATOM      3  C   UNL     1       0.382  14.017  20.491  0.00  0.00    +0.000 A 
ATOM      4  C   UNL     1       1.469  14.858  20.333  0.00  0.00    +0.000 A 
ATOM      5  C   UNL     1       2.276  14.711  19.211  0.00  0.00    +0.000 A 
ATOM      6  C   UNL     1       1.984  13.694  18.296  0.00  0.00    +0.000 A 
ATOM      7  C   UNL     1       0.907  12.810  18.505  0.00  0.00    +0.000 A 
ATOM      8  C   UNL     1       0.093  12.971  19.615  0.00  0.00    +0.000 A 
ATOM      9  N   UNL     1      -1.074  12.300  20.038  0.00  0.00    +0.000 N 
ENDROOT
BRANCH   1  13
ATOM     10  C   UNL     1      -5.212  12.549  23.327  0.00  0.00    +0.000 A 
ATOM     11  C   UNL     1      -4.059  12.569  24.115  0.00  0.00    +0.000 A 
ATOM     12  C   UNL     1      -2.775  12.652  23.538  0.00  0.00    +0.000 A 
ATOM     13  C   UNL     1      -2.608  12.715  22.150  0.00  0.00    +0.000 A 
ATOM     14  C   UNL     1      -3.804  12.901  21.418  0.00  0.00    +0.000 A 
ATOM     15  C   UNL     1      -5.074  12.733  21.965  0.00  0.00    +0.000 A 
BRANCH  10  17
ATOM     16  C   UNL     1      -7.257  13.530  24.023  0.00  0.00    +0.000 C 
ATOM     17  O   UNL     1      -6.401  12.389  23.980  0.00  0.00    +0.000 OA
ENDBRANCH  10  17
ENDBRANCH   1  13
BRANCH   2  18
ATOM     18  C   UNL     1      -1.526  15.313  20.916  0.00  0.00    +0.000 C 
BRANCH  18  19
ATOM     19  C   UNL     1      -2.125  16.066  22.107  0.00  0.00    +0.000 A 
ATOM     20  C   UNL     1      -1.411  16.128  23.308  0.00  0.00    +0.000 A 
ATOM     21  C   UNL     1      -2.113  16.190  24.510  0.00  0.00    +0.000 A 
ATOM     22  C   UNL     1      -3.509  16.252  24.502  0.00  0.00    +0.000 A 
ATOM     23  C   UNL     1      -4.195  16.419  23.301  0.00  0.00    +0.000 A 
ATOM     24  C   UNL     1      -3.495  16.388  22.101  0.00  0.00    +0.000 A 
ENDBRANCH  18  19
ENDBRANCH   2  18
BRANCH   9  25
ATOM     25  C   UNL     1      -1.365  10.955  19.569  0.00  0.00    +0.000 C 
BRANCH  25  26
ATOM     26  C   UNL     1      -2.220  10.794  18.324  0.00  0.00    +0.000 A 
ATOM     27  C   UNL     1      -3.413  11.535  18.201  0.00  0.00    +0.000 A 
ATOM     28  C   UNL     1      -4.155  11.521  17.025  0.00  0.00    +0.000 A 
ATOM     29  C   UNL     1      -3.740  10.755  15.936  0.00  0.00    +0.000 A 
ATOM     30  C   UNL     1      -2.562  10.024  16.028  0.00  0.00    +0.000 A 
ATOM     31  C   UNL     1      -1.814  10.044  17.213  0.00  0.00    +0.000 A 
ENDBRANCH  25  26
ENDBRANCH   9  25
TORSDOF 6
ENDMDL
MODEL 8
REMARK VINA RESULT:      -7.3      8.544     12.814
REMARK  Name = 
REMARK  7 active torsions:
REMARK  status: ('A' for Active; 'I' for Inactive)
REMARK    1  A    between atoms: C_1  and  O_2
REMARK    2  A    between atoms: O_2  and  C_3
REMARK    3  A    between atoms: C_6  and  C_7
REMARK    4  A    between atoms: N_8  and  C_9
REMARK    5  A    between atoms: C_9  and  C_10
REMARK    6  A    between atoms: N_22  and  C_23
REMARK    7  A    between atoms: C_23  and  C_24
REMARK                            x       y       z     vdW  Elec       q    Type
REMARK                         _______ _______ _______ _____ _____    ______ ____
ROOT
ATOM      1  C   UNL     1      -3.775  12.701  20.770  0.00  0.00    +0.000 C 
ATOM      2  N   UNL     1      -2.268  12.697  20.822  0.00  0.00    +0.000 N 
ATOM      3  C   UNL     1      -2.011  11.760  19.752  0.00  0.00    +0.000 A 
ATOM      4  C   UNL     1      -0.823  11.085  19.539  0.00  0.00    +0.000 A 
ATOM      5  C   UNL     1      -0.638  10.412  18.337  0.00  0.00    +0.000 A 
ATOM      6  C   UNL     1      -1.673  10.409  17.396  0.00  0.00    +0.000 A 
ATOM      7  C   UNL     1      -2.899  11.055  17.656  0.00  0.00    +0.000 A 
ATOM      8  C   UNL     1      -3.073  11.741  18.849  0.00  0.00    +0.000 A 
ATOM      9  N   UNL     1      -4.138  12.523  19.343  0.00  0.00    +0.000 N 
ENDROOT
BRANCH   1  13
ATOM     10  C   UNL     1      -5.381  15.913  23.323  0.00  0.00    +0.000 A 
ATOM     11  C   UNL     1      -5.410  16.043  21.933  0.00  0.00    +0.000 A 
ATOM     12  C   UNL     1      -4.911  15.029  21.088  0.00  0.00    +0.000 A 
ATOM     13  C   UNL     1      -4.363  13.853  21.615  0.00  0.00    +0.000 A 
ATOM     14  C   UNL     1      -4.548  13.687  23.007  0.00  0.00    +0.000 A 
ATOM     15  C   UNL     1      -4.958  14.712  23.857  0.00  0.00    +0.000 A 
BRANCH  10  17
ATOM     16  C   UNL     1      -4.959  17.428  25.099  0.00  0.00    +0.000 C 
ATOM     17  O   UNL     1      -5.818  16.985  24.050  0.00  0.00    +0.000 OA
ENDBRANCH  10  17
ENDBRANCH   1  13
BRANCH   2  18
ATOM     18  C   UNL     1      -1.527  13.950  20.438  0.00  0.00    +0.000 C 
BRANCH  18  19
ATOM     19  C   UNL     1      -1.064  14.641  21.724  0.00  0.00    +0.000 A 
ATOM     20  C   UNL     1      -0.972  13.898  22.905  0.00  0.00    +0.000 A 
ATOM     21  C   UNL     1      -1.202  14.533  24.123  0.00  0.00    +0.000 A 
ATOM     22  C   UNL     1      -1.459  15.906  24.159  0.00  0.00    +0.000 A 
ATOM     23  C   UNL     1      -1.322  16.673  23.003  0.00  0.00    +0.000 A 
ATOM     24  C   UNL     1      -1.063  16.046  21.790  0.00  0.00    +0.000 A 
ENDBRANCH  18  19
ENDBRANCH   2  18
BRANCH   9  25
ATOM     25  C   UNL     1      -5.485  12.349  18.826  0.00  0.00    +0.000 C 
BRANCH  25  26
ATOM     26  C   UNL     1      -6.408  11.370  19.532  0.00  0.00    +0.000 A 
ATOM     27  C   UNL     1      -6.404  10.013  19.148  0.00  0.00    +0.000 A 
ATOM     28  C   UNL     1      -7.130   9.060  19.854  0.00  0.00    +0.000 A 
ATOM     29  C   UNL     1      -7.897   9.430  20.957  0.00  0.00    +0.000 A 
ATOM     30  C   UNL     1      -7.911  10.759  21.362  0.00  0.00    +0.000 A 
ATOM     31  C   UNL     1      -7.174  11.717  20.652  0.00  0.00    +0.000 A 
ENDBRANCH  25  26
ENDBRANCH   9  25
TORSDOF 6
ENDMDL
MODEL 9
REMARK VINA RESULT:      -7.3      8.501     12.044
REMARK  Name = 
REMARK  7 active torsions:
REMARK  status: ('A' for Active; 'I' for Inactive)
REMARK    1  A    between atoms: C_1  and  O_2
REMARK    2  A    between atoms: O_2  and  C_3
REMARK    3  A    between atoms: C_6  and  C_7
REMARK    4  A    between atoms: N_8  and  C_9
REMARK    5  A    between atoms: C_9  and  C_10
REMARK    6  A    between atoms: N_22  and  C_23
REMARK    7  A    between atoms: C_23  and  C_24
REMARK                            x       y       z     vdW  Elec       q    Type
REMARK                         _______ _______ _______ _____ _____    ______ ____
ROOT
ATOM      1  C   UNL     1      -2.765  12.587  19.653  0.00  0.00    +0.000 C 
ATOM      2  N   UNL     1      -4.080  12.417  18.935  0.00  0.00    +0.000 N 
ATOM      3  C   UNL     1      -3.619  11.653  17.800  0.00  0.00    +0.000 A 
ATOM      4  C   UNL     1      -4.302  11.482  16.610  0.00  0.00    +0.000 A 
ATOM      5  C   UNL     1      -3.855  10.525  15.708  0.00  0.00    +0.000 A 
ATOM      6  C   UNL     1      -2.705   9.789  16.016  0.00  0.00    +0.000 A 
ATOM      7  C   UNL     1      -1.988  10.018  17.209  0.00  0.00    +0.000 A 
ATOM      8  C   UNL     1      -2.449  10.961  18.114  0.00  0.00    +0.000 A 
ATOM      9  N   UNL     1      -1.992  11.347  19.392  0.00  0.00    +0.000 N 
ENDROOT
BRANCH   1  13
ATOM     10  C   UNL     1      -3.279  13.965  23.806  0.00  0.00    +0.000 A 
ATOM     11  C   UNL     1      -3.485  14.849  22.745  0.00  0.00    +0.000 A 
ATOM     12  C   UNL     1      -3.335  14.436  21.404  0.00  0.00    +0.000 A 
ATOM     13  C   UNL     1      -2.971  13.122  21.088  0.00  0.00    +0.000 A 
ATOM     14  C   UNL     1      -2.979  12.226  22.182  0.00  0.00    +0.000 A 
ATOM     15  C   UNL     1      -3.039  12.637  23.511  0.00  0.00    +0.000 A 
BRANCH  10  17
ATOM     16  C   UNL     1      -2.663  15.699  25.304  0.00  0.00    +0.000 C 
ATOM     17  O   UNL     1      -3.373  14.485  25.066  0.00  0.00    +0.000 OA
ENDBRANCH  10  17
ENDBRANCH   1  13
BRANCH   2  18
ATOM     18  C   UNL     1      -5.150  11.571  19.574  0.00  0.00    +0.000 C 
BRANCH  18  19
ATOM     19  C   UNL     1      -6.216  12.507  20.149  0.00  0.00    +0.000 A 
ATOM     20  C   UNL     1      -6.499  13.709  19.491  0.00  0.00    +0.000 A 
ATOM     21  C   UNL     1      -6.909  14.810  20.241  0.00  0.00    +0.000 A 
ATOM     22  C   UNL     1      -7.092  14.688  21.620  0.00  0.00    +0.000 A 
ATOM     23  C   UNL     1      -7.028  13.435  22.227  0.00  0.00    +0.000 A 
ATOM     24  C   UNL     1      -6.648  12.328  21.477  0.00  0.00    +0.000 A 
ENDBRANCH  18  19
ENDBRANCH   2  18
BRANCH   9  25
ATOM     25  C   UNL     1      -0.614  11.108  19.788  0.00  0.00    +0.000 C 
BRANCH  25  26
ATOM     26  C   UNL     1       0.328  12.297  19.875  0.00  0.00    +0.000 A 
ATOM     27  C   UNL     1       0.782  12.910  18.688  0.00  0.00    +0.000 A 
ATOM     28  C   UNL     1       1.534  14.079  18.721  0.00  0.00    +0.000 A 
ATOM     29  C   UNL     1       1.873  14.667  19.939  0.00  0.00    +0.000 A 
ATOM     30  C   UNL     1       1.430  14.088  21.122  0.00  0.00    +0.000 A 
ATOM     31  C   UNL     1       0.668  12.913  21.085  0.00  0.00    +0.000 A 
ENDBRANCH  25  26
ENDBRANCH   9  25
TORSDOF 6
ENDMDL
