MODEL 1
REMARK VINA RESULT:      -8.4      0.000      0.000
REMARK  Name = 
REMARK  7 active torsions:
REMARK  status: ('A' for Active; 'I' for Inactive)
REMARK    1  A    between atoms: C_1  and  C_2
REMARK    2  A    between atoms: C_2  and  C_3
REMARK    3  A    between atoms: C_6  and  C_7
REMARK    4  A    between atoms: C_8  and  C_9
REMARK    5  A    between atoms: N_11  and  C_12
REMARK    6  A    between atoms: C_12  and  C_13
REMARK    7  A    between atoms: C_13  and  C_14
REMARK                            x       y       z     vdW  Elec       q    Type
REMARK                         _______ _______ _______ _____ _____    ______ ____
ROOT
ATOM      1  C   UNL     1       5.528   3.896  17.725  0.00  0.00    +0.000 C 
ATOM      2  O   UNL     1       5.571   3.938  18.950  0.00  0.00    +0.000 OA
ATOM      3  N   UNL     1       4.660   3.045  17.070  0.00  0.00    +0.000 N 
ATOM      4  H   UNL     1       4.568   3.057  16.067  0.00  0.00    +0.000 HD
ENDROOT
BRANCH   1  10
ATOM      5  C   UNL     1       6.542   4.677  15.486  0.00  0.00    +0.000 A 
ATOM      6  N   UNL     1       7.377   5.622  15.038  0.00  0.00    +0.000 NA
ATOM      7  O   UNL     1       7.801   6.307  16.151  0.00  0.00    +0.000 OA
ATOM      8  C   UNL     1       7.228   5.781  17.266  0.00  0.00    +0.000 A 
ATOM      9  C   UNL     1       7.642   6.430  18.527  0.00  0.00    +0.000 C 
ATOM     10  C   UNL     1       6.386   4.742  16.908  0.00  0.00    +0.000 A 
BRANCH   5  12
ATOM     11  C   UNL     1       6.447   3.930  13.086  0.00  0.00    +0.000 C 
ATOM     12  C   UNL     1       5.944   3.720  14.505  0.00  0.00    +0.000 C 
ENDBRANCH   5  12
ENDBRANCH   1  10
BRANCH   3  13
ATOM     13  C   UNL     1       3.798   2.159  17.833  0.00  0.00    +0.000 C 
BRANCH  13  14
ATOM     14  C   UNL     1       2.332   2.598  17.893  0.00  0.00    +0.000 C 
BRANCH  14  15
ATOM     15  C   UNL     1       2.009   3.506  19.044  0.00  0.00    +0.000 A 
ATOM     16  C   UNL     1       1.586   3.108  20.298  0.00  0.00    +0.000 A 
ATOM     17  N   UNL     1       1.403   4.223  21.068  0.00  0.00    +0.000 N 
ATOM     18  C   UNL     1       1.708   5.353  20.348  0.00  0.00    +0.000 A 
ATOM     19  C   UNL     1       1.667   6.699  20.734  0.00  0.00    +0.000 A 
ATOM     20  C   UNL     1       2.058   7.655  19.791  0.00  0.00    +0.000 A 
ATOM     21  C   UNL     1       2.476   7.274  18.519  0.00  0.00    +0.000 A 
ATOM     22  C   UNL     1       2.509   5.923  18.151  0.00  0.00    +0.000 A 
ATOM     23  C   UNL     1       2.109   4.937  19.079  0.00  0.00    +0.000 A 
ATOM     24  H   UNL     1       1.096   4.222  22.032  0.00  0.00    +0.000 HD
ENDBRANCH  14  15
ENDBRANCH  13  14
ENDBRANCH   3  13
TORSDOF 5
ENDMDL
MODEL 2
REMARK VINA RESULT:      -8.2      1.641      3.805
REMARK  Name = 
REMARK  7 active torsions:
REMARK  status: ('A' for Active; 'I' for Inactive)
REMARK    1  A    between atoms: C_1  and  C_2
REMARK    2  A    between atoms: C_2  and  C_3
REMARK    3  A    between atoms: C_6  and  C_7
REMARK    4  A    between atoms: C_8  and  C_9
REMARK    5  A    between atoms: N_11  and  C_12
REMARK    6  A    between atoms: C_12  and  C_13
REMARK    7  A    between atoms: C_13  and  C_14
REMARK                            x       y       z     vdW  Elec       q    Type
REMARK                         _______ _______ _______ _____ _____    ______ ____
ROOT
ATOM      1  C   UNL     1       5.200   6.597  16.349  0.00  0.00    +0.000 C 
ATOM      2  O   UNL     1       4.912   7.158  15.296  0.00  0.00    +0.000 OA
ATOM      3  N   UNL     1       4.515   6.874  17.516  0.00  0.00    +0.000 N 
ATOM      4  H   UNL     1       4.696   6.365  18.365  0.00  0.00    +0.000 HD
ENDROOT
BRANCH   1  10
ATOM      5  C   UNL     1       7.324   5.562  17.382  0.00  0.00    +0.000 A 
ATOM      6  N   UNL     1       8.124   4.508  17.185  0.00  0.00    +0.000 NA
ATOM      7  O   UNL     1       7.628   3.862  16.078  0.00  0.00    +0.000 OA
ATOM      8  C   UNL     1       6.536   4.520  15.606  0.00  0.00    +0.000 A 
ATOM      9  C   UNL     1       5.941   3.921  14.394  0.00  0.00    +0.000 C 
ATOM     10  C   UNL     1       6.270   5.612  16.413  0.00  0.00    +0.000 A 
BRANCH   5  12
ATOM     11  C   UNL     1       8.033   7.890  18.015  0.00  0.00    +0.000 C 
ATOM     12  C   UNL     1       7.636   6.505  18.499  0.00  0.00    +0.000 C 
ENDBRANCH   5  12
ENDBRANCH   1  10
BRANCH   3  13
ATOM     13  C   UNL     1       3.454   7.866  17.517  0.00  0.00    +0.000 C 
BRANCH  13  14
ATOM     14  C   UNL     1       2.085   7.331  17.946  0.00  0.00    +0.000 C 
BRANCH  14  15
ATOM     15  C   UNL     1       2.146   6.260  18.996  0.00  0.00    +0.000 A 
ATOM     16  C   UNL     1       2.154   6.463  20.362  0.00  0.00    +0.000 A 
ATOM     17  N   UNL     1       2.209   5.245  20.982  0.00  0.00    +0.000 N 
ATOM     18  C   UNL     1       2.228   4.237  20.048  0.00  0.00    +0.000 A 
ATOM     19  C   UNL     1       2.278   2.849  20.229  0.00  0.00    +0.000 A 
ATOM     20  C   UNL     1       2.263   2.046  19.084  0.00  0.00    +0.000 A 
ATOM     21  C   UNL     1       2.194   2.613  17.814  0.00  0.00    +0.000 A 
ATOM     22  C   UNL     1       2.145   4.004  17.653  0.00  0.00    +0.000 A 
ATOM     23  C   UNL     1       2.171   4.839  18.790  0.00  0.00    +0.000 A 
ATOM     24  H   UNL     1       2.226   5.100  21.982  0.00  0.00    +0.000 HD
ENDBRANCH  14  15
ENDBRANCH  13  14
ENDBRANCH   3  13
TORSDOF 5
ENDMDL
MODEL 3
REMARK VINA RESULT:      -8.1      0.525      2.255
REMARK  Name = 
REMARK  7 active torsions:
REMARK  status: ('A' for Active; 'I' for Inactive)
REMARK    1  A    between atoms: C_1  and  C_2
REMARK    2  A    between atoms: C_2  and  C_3
REMARK    3  A    between atoms: C_6  and  C_7
REMARK    4  A    between atoms: C_8  and  C_9
REMARK    5  A    between atoms: N_11  and  C_12
REMARK    6  A    between atoms: C_12  and  C_13
REMARK    7  A    between atoms: C_13  and  C_14
REMARK                            x       y       z     vdW  Elec       q    Type
REMARK                         _______ _______ _______ _____ _____    ______ ____
ROOT
ATOM      1  C   UNL     1       5.438   3.793  17.615  0.00  0.00    +0.000 C 
ATOM      2  O   UNL     1       5.568   3.831  18.834  0.00  0.00    +0.000 OA
ATOM      3  N   UNL     1       4.514   2.956  17.021  0.00  0.00    +0.000 N 
ATOM      4  H   UNL     1       4.351   2.973  16.028  0.00  0.00    +0.000 HD
ENDROOT
BRANCH   1  10
ATOM      5  C   UNL     1       7.044   5.754  17.135  0.00  0.00    +0.000 A 
ATOM      6  N   UNL     1       7.697   6.284  16.095  0.00  0.00    +0.000 NA
ATOM      7  O   UNL     1       7.327   5.540  15.001  0.00  0.00    +0.000 OA
ATOM      8  C   UNL     1       6.455   4.566  15.374  0.00  0.00    +0.000 A 
ATOM      9  C   UNL     1       5.970   3.724  14.262  0.00  0.00    +0.000 C 
ATOM     10  C   UNL     1       6.247   4.631  16.741  0.00  0.00    +0.000 A 
BRANCH   5  12
ATOM     11  C   UNL     1       8.223   7.509  18.497  0.00  0.00    +0.000 C 
ATOM     12  C   UNL     1       7.202   6.383  18.482  0.00  0.00    +0.000 C 
ENDBRANCH   5  12
ENDBRANCH   1  10
BRANCH   3  13
ATOM     13  C   UNL     1       3.697   2.079  17.842  0.00  0.00    +0.000 C 
BRANCH  13  14
ATOM     14  C   UNL     1       2.233   2.511  17.968  0.00  0.00    +0.000 C 
BRANCH  14  15
ATOM     15  C   UNL     1       1.969   3.468  19.094  0.00  0.00    +0.000 A 
ATOM     16  C   UNL     1       1.589   3.126  20.377  0.00  0.00    +0.000 A 
ATOM     17  N   UNL     1       1.453   4.273  21.110  0.00  0.00    +0.000 N 
ATOM     18  C   UNL     1       1.747   5.369  20.335  0.00  0.00    +0.000 A 
ATOM     19  C   UNL     1       1.741   6.730  20.669  0.00  0.00    +0.000 A 
ATOM     20  C   UNL     1       2.110   7.641  19.675  0.00  0.00    +0.000 A 
ATOM     21  C   UNL     1       2.472   7.205  18.404  0.00  0.00    +0.000 A 
ATOM     22  C   UNL     1       2.470   5.840  18.088  0.00  0.00    +0.000 A 
ATOM     23  C   UNL     1       2.092   4.898  19.068  0.00  0.00    +0.000 A 
ATOM     24  H   UNL     1       1.184   4.314  22.084  0.00  0.00    +0.000 HD
ENDBRANCH  14  15
ENDBRANCH  13  14
ENDBRANCH   3  13
TORSDOF 5
ENDMDL
MODEL 4
REMARK VINA RESULT:      -8.0      1.531      3.091
REMARK  Name = 
REMARK  7 active torsions:
REMARK  status: ('A' for Active; 'I' for Inactive)
REMARK    1  A    between atoms: C_1  and  C_2
REMARK    2  A    between atoms: C_2  and  C_3
REMARK    3  A    between atoms: C_6  and  C_7
REMARK    4  A    between atoms: C_8  and  C_9
REMARK    5  A    between atoms: N_11  and  C_12
REMARK    6  A    between atoms: C_12  and  C_13
REMARK    7  A    between atoms: C_13  and  C_14
REMARK                            x       y       z     vdW  Elec       q    Type
REMARK                         _______ _______ _______ _____ _____    ______ ____
ROOT
ATOM      1  C   UNL     1       5.168   6.652  16.427  0.00  0.00    +0.000 C 
ATOM      2  O   UNL     1       4.920   7.221  15.369  0.00  0.00    +0.000 OA
ATOM      3  N   UNL     1       4.431   6.910  17.566  0.00  0.00    +0.000 N 
ATOM      4  H   UNL     1       4.581   6.394  18.418  0.00  0.00    +0.000 HD
ENDROOT
BRANCH   1  10
ATOM      5  C   UNL     1       6.456   4.548  15.672  0.00  0.00    +0.000 A 
ATOM      6  N   UNL     1       7.559   3.872  16.011  0.00  0.00    +0.000 NA
ATOM      7  O   UNL     1       8.079   4.525  17.103  0.00  0.00    +0.000 OA
ATOM      8  C   UNL     1       7.296   5.589  17.425  0.00  0.00    +0.000 A 
ATOM      9  C   UNL     1       7.753   6.345  18.608  0.00  0.00    +0.000 C 
ATOM     10  C   UNL     1       6.244   5.677  16.529  0.00  0.00    +0.000 A 
BRANCH   5  12
ATOM     11  C   UNL     1       6.405   3.933  13.234  0.00  0.00    +0.000 C 
ATOM     12  C   UNL     1       5.625   4.049  14.534  0.00  0.00    +0.000 C 
ENDBRANCH   5  12
ENDBRANCH   1  10
BRANCH   3  13
ATOM     13  C   UNL     1       3.361   7.891  17.532  0.00  0.00    +0.000 C 
BRANCH  13  14
ATOM     14  C   UNL     1       2.008   7.372  18.026  0.00  0.00    +0.000 C 
BRANCH  14  15
ATOM     15  C   UNL     1       2.106   6.270  19.040  0.00  0.00    +0.000 A 
ATOM     16  C   UNL     1       2.108   6.428  20.413  0.00  0.00    +0.000 A 
ATOM     17  N   UNL     1       2.205   5.192  20.992  0.00  0.00    +0.000 N 
ATOM     18  C   UNL     1       2.257   4.218  20.024  0.00  0.00    +0.000 A 
ATOM     19  C   UNL     1       2.356   2.826  20.159  0.00  0.00    +0.000 A 
ATOM     20  C   UNL     1       2.367   2.062  18.988  0.00  0.00    +0.000 A 
ATOM     21  C   UNL     1       2.278   2.668  17.738  0.00  0.00    +0.000 A 
ATOM     22  C   UNL     1       2.181   4.062  17.623  0.00  0.00    +0.000 A 
ATOM     23  C   UNL     1       2.179   4.859  18.788  0.00  0.00    +0.000 A 
ATOM     24  H   UNL     1       2.227   5.015  21.987  0.00  0.00    +0.000 HD
ENDBRANCH  14  15
ENDBRANCH  13  14
ENDBRANCH   3  13
TORSDOF 5
ENDMDL
MODEL 5
REMARK VINA RESULT:      -7.7      1.191      1.251
REMARK  Name = 
REMARK  7 active torsions:
REMARK  status: ('A' for Active; 'I' for Inactive)
REMARK    1  A    between atoms: C_1  and  C_2
REMARK    2  A    between atoms: C_2  and  C_3
REMARK    3  A    between atoms: C_6  and  C_7
REMARK    4  A    between atoms: C_8  and  C_9
REMARK    5  A    between atoms: N_11  and  C_12
REMARK    6  A    between atoms: C_12  and  C_13
REMARK    7  A    between atoms: C_13  and  C_14
REMARK                            x       y       z     vdW  Elec       q    Type
REMARK                         _______ _______ _______ _____ _____    ______ ____
ROOT
ATOM      1  C   UNL     1       4.761   3.904  16.535  0.00  0.00    +0.000 C 
ATOM      2  O   UNL     1       3.619   4.306  16.338  0.00  0.00    +0.000 OA
ATOM      3  N   UNL     1       4.998   2.767  17.283  0.00  0.00    +0.000 N 
ATOM      4  H   UNL     1       5.926   2.390  17.388  0.00  0.00    +0.000 HD
ENDROOT
BRANCH   1  10
ATOM      5  C   UNL     1       6.402   4.519  14.643  0.00  0.00    +0.000 A 
ATOM      6  N   UNL     1       7.459   5.317  14.452  0.00  0.00    +0.000 NA
ATOM      7  O   UNL     1       7.699   5.918  15.664  0.00  0.00    +0.000 OA
ATOM      8  C   UNL     1       6.796   5.487  16.584  0.00  0.00    +0.000 A 
ATOM      9  C   UNL     1       6.985   6.054  17.935  0.00  0.00    +0.000 C 
ATOM     10  C   UNL     1       5.914   4.602  15.988  0.00  0.00    +0.000 A 
BRANCH   5  12
ATOM     11  C   UNL     1       6.735   3.866  12.238  0.00  0.00    +0.000 C 
ATOM     12  C   UNL     1       5.919   3.678  13.506  0.00  0.00    +0.000 C 
ENDBRANCH   5  12
ENDBRANCH   1  10
BRANCH   3  13
ATOM     13  C   UNL     1       3.887   2.043  17.876  0.00  0.00    +0.000 C 
BRANCH  13  14
ATOM     14  C   UNL     1       3.850   2.081  19.406  0.00  0.00    +0.000 C 
BRANCH  14  15
ATOM     15  C   UNL     1       2.770   2.955  19.974  0.00  0.00    +0.000 A 
ATOM     16  C   UNL     1       1.662   2.523  20.677  0.00  0.00    +0.000 A 
ATOM     17  N   UNL     1       0.919   3.615  21.031  0.00  0.00    +0.000 N 
ATOM     18  C   UNL     1       1.523   4.765  20.582  0.00  0.00    +0.000 A 
ATOM     19  C   UNL     1       1.119   6.100  20.718  0.00  0.00    +0.000 A 
ATOM     20  C   UNL     1       1.950   7.085  20.174  0.00  0.00    +0.000 A 
ATOM     21  C   UNL     1       3.134   6.745  19.528  0.00  0.00    +0.000 A 
ATOM     22  C   UNL     1       3.521   5.404  19.401  0.00  0.00    +0.000 A 
ATOM     23  C   UNL     1       2.697   4.388  19.929  0.00  0.00    +0.000 A 
ATOM     24  H   UNL     1       0.054   3.588  21.554  0.00  0.00    +0.000 HD
ENDBRANCH  14  15
ENDBRANCH  13  14
ENDBRANCH   3  13
TORSDOF 5
ENDMDL
MODEL 6
REMARK VINA RESULT:      -7.6      2.177      5.897
REMARK  Name = 
REMARK  7 active torsions:
REMARK  status: ('A' for Active; 'I' for Inactive)
REMARK    1  A    between atoms: C_1  and  C_2
REMARK    2  A    between atoms: C_2  and  C_3
REMARK    3  A    between atoms: C_6  and  C_7
REMARK    4  A    between atoms: C_8  and  C_9
REMARK    5  A    between atoms: N_11  and  C_12
REMARK    6  A    between atoms: C_12  and  C_13
REMARK    7  A    between atoms: C_13  and  C_14
REMARK                            x       y       z     vdW  Elec       q    Type
REMARK                         _______ _______ _______ _____ _____    ______ ____
ROOT
ATOM      1  C   UNL     1       2.543   4.316  17.953  0.00  0.00    +0.000 C 
ATOM      2  O   UNL     1       1.711   3.956  17.126  0.00  0.00    +0.000 OA
ATOM      3  N   UNL     1       3.829   3.812  17.938  0.00  0.00    +0.000 N 
ATOM      4  H   UNL     1       4.536   4.156  18.566  0.00  0.00    +0.000 HD
ENDROOT
BRANCH   1  10
ATOM      5  C   UNL     1       1.630   5.019  20.260  0.00  0.00    +0.000 A 
ATOM      6  N   UNL     1       1.492   6.134  20.987  0.00  0.00    +0.000 NA
ATOM      7  O   UNL     1       1.959   7.157  20.198  0.00  0.00    +0.000 OA
ATOM      8  C   UNL     1       2.376   6.667  19.000  0.00  0.00    +0.000 A 
ATOM      9  C   UNL     1       2.873   7.694  18.062  0.00  0.00    +0.000 C 
ATOM     10  C   UNL     1       2.215   5.293  18.981  0.00  0.00    +0.000 A 
BRANCH   5  12
ATOM     11  C   UNL     1       2.273   2.910  21.468  0.00  0.00    +0.000 C 
ATOM     12  C   UNL     1       1.157   3.722  20.833  0.00  0.00    +0.000 C 
ENDBRANCH   5  12
ENDBRANCH   1  10
BRANCH   3  13
ATOM     13  C   UNL     1       4.206   2.816  16.950  0.00  0.00    +0.000 C 
BRANCH  13  14
ATOM     14  C   UNL     1       5.378   3.224  16.054  0.00  0.00    +0.000 C 
BRANCH  14  15
ATOM     15  C   UNL     1       5.740   4.679  16.139  0.00  0.00    +0.000 A 
ATOM     16  C   UNL     1       5.282   5.679  15.304  0.00  0.00    +0.000 A 
ATOM     17  N   UNL     1       5.831   6.866  15.706  0.00  0.00    +0.000 N 
ATOM     18  C   UNL     1       6.638   6.669  16.800  0.00  0.00    +0.000 A 
ATOM     19  C   UNL     1       7.390   7.593  17.537  0.00  0.00    +0.000 A 
ATOM     20  C   UNL     1       8.112   7.113  18.634  0.00  0.00    +0.000 A 
ATOM     21  C   UNL     1       8.075   5.765  18.978  0.00  0.00    +0.000 A 
ATOM     22  C   UNL     1       7.318   4.854  18.229  0.00  0.00    +0.000 A 
ATOM     23  C   UNL     1       6.589   5.309  17.110  0.00  0.00    +0.000 A 
ATOM     24  H   UNL     1       5.665   7.763  15.270  0.00  0.00    +0.000 HD
ENDBRANCH  14  15
ENDBRANCH  13  14
ENDBRANCH   3  13
TORSDOF 5
ENDMDL
MODEL 7
REMARK VINA RESULT:      -7.6      4.610      7.748
REMARK  Name = 
REMARK  7 active torsions:
REMARK  status: ('A' for Active; 'I' for Inactive)
REMARK    1  A    between atoms: C_1  and  C_2
REMARK    2  A    between atoms: C_2  and  C_3
REMARK    3  A    between atoms: C_6  and  C_7
REMARK    4  A    between atoms: C_8  and  C_9
REMARK    5  A    between atoms: N_11  and  C_12
REMARK    6  A    between atoms: C_12  and  C_13
REMARK    7  A    between atoms: C_13  and  C_14
REMARK                            x       y       z     vdW  Elec       q    Type
REMARK                         _______ _______ _______ _____ _____    ______ ____
ROOT
ATOM      1  C   UNL     1       7.100   6.040  18.394  0.00  0.00    +0.000 C 
ATOM      2  O   UNL     1       7.803   5.520  19.255  0.00  0.00    +0.000 OA
ATOM      3  N   UNL     1       7.352   7.321  17.944  0.00  0.00    +0.000 N 
ATOM      4  H   UNL     1       6.826   7.727  17.188  0.00  0.00    +0.000 HD
ENDROOT
BRANCH   1  10
ATOM      5  C   UNL     1       5.941   4.700  16.519  0.00  0.00    +0.000 A 
ATOM      6  N   UNL     1       4.767   4.099  16.294  0.00  0.00    +0.000 NA
ATOM      7  O   UNL     1       4.002   4.340  17.410  0.00  0.00    +0.000 OA
ATOM      8  C   UNL     1       4.707   5.083  18.305  0.00  0.00    +0.000 A 
ATOM      9  C   UNL     1       3.961   5.424  19.534  0.00  0.00    +0.000 C 
ATOM     10  C   UNL     1       5.974   5.330  17.806  0.00  0.00    +0.000 A 
BRANCH   5  12
ATOM     11  C   UNL     1       6.447   4.209  14.105  0.00  0.00    +0.000 C 
ATOM     12  C   UNL     1       6.988   4.660  15.453  0.00  0.00    +0.000 C 
ENDBRANCH   5  12
ENDBRANCH   1  10
BRANCH   3  13
ATOM     13  C   UNL     1       8.447   8.088  18.514  0.00  0.00    +0.000 C 
BRANCH  13  14
ATOM     14  C   UNL     1       8.458   9.567  18.119  0.00  0.00    +0.000 C 
BRANCH  14  15
ATOM     15  C   UNL     1       9.241  10.446  19.050  0.00  0.00    +0.000 A 
ATOM     16  C   UNL     1       9.107  10.495  20.425  0.00  0.00    +0.000 A 
ATOM     17  N   UNL     1       9.997  11.411  20.916  0.00  0.00    +0.000 N 
ATOM     18  C   UNL     1      10.725  11.962  19.889  0.00  0.00    +0.000 A 
ATOM     19  C   UNL     1      11.739  12.929  19.928  0.00  0.00    +0.000 A 
ATOM     20  C   UNL     1      12.332  13.294  18.716  0.00  0.00    +0.000 A 
ATOM     21  C   UNL     1      11.929  12.710  17.519  0.00  0.00    +0.000 A 
ATOM     22  C   UNL     1      10.913  11.745  17.499  0.00  0.00    +0.000 A 
ATOM     23  C   UNL     1      10.289  11.365  18.706  0.00  0.00    +0.000 A 
ATOM     24  H   UNL     1      10.113  11.646  21.892  0.00  0.00    +0.000 HD
ENDBRANCH  14  15
ENDBRANCH  13  14
ENDBRANCH   3  13
TORSDOF 5
ENDMDL
MODEL 8
REMARK VINA RESULT:      -7.6      2.246      5.783
REMARK  Name = 
REMARK  7 active torsions:
REMARK  status: ('A' for Active; 'I' for Inactive)
REMARK    1  A    between atoms: C_1  and  C_2
REMARK    2  A    between atoms: C_2  and  C_3
REMARK    3  A    between atoms: C_6  and  C_7
REMARK    4  A    between atoms: C_8  and  C_9
REMARK    5  A    between atoms: N_11  and  C_12
REMARK    6  A    between atoms: C_12  and  C_13
REMARK    7  A    between atoms: C_13  and  C_14
REMARK                            x       y       z     vdW  Elec       q    Type
REMARK                         _______ _______ _______ _____ _____    ______ ____
ROOT
ATOM      1  C   UNL     1       2.587   4.277  17.973  0.00  0.00    +0.000 C 
ATOM      2  O   UNL     1       1.754   3.974  17.125  0.00  0.00    +0.000 OA
ATOM      3  N   UNL     1       3.868   3.761  17.931  0.00  0.00    +0.000 N 
ATOM      4  H   UNL     1       4.577   4.061  18.580  0.00  0.00    +0.000 HD
ENDROOT
BRANCH   1  10
ATOM      5  C   UNL     1       2.414   6.620  19.038  0.00  0.00    +0.000 A 
ATOM      6  N   UNL     1       1.991   7.173  20.180  0.00  0.00    +0.000 NA
ATOM      7  O   UNL     1       1.581   6.130  20.974  0.00  0.00    +0.000 OA
ATOM      8  C   UNL     1       1.755   4.951  20.319  0.00  0.00    +0.000 A 
ATOM      9  C   UNL     1       1.371   3.758  21.100  0.00  0.00    +0.000 C 
ATOM     10  C   UNL     1       2.266   5.195  19.056  0.00  0.00    +0.000 A 
BRANCH   5  12
ATOM     11  C   UNL     1       2.174   8.780  17.772  0.00  0.00    +0.000 C 
ATOM     12  C   UNL     1       2.977   7.504  17.972  0.00  0.00    +0.000 C 
ENDBRANCH   5  12
ENDBRANCH   1  10
BRANCH   3  13
ATOM     13  C   UNL     1       4.238   2.821  16.888  0.00  0.00    +0.000 C 
BRANCH  13  14
ATOM     14  C   UNL     1       5.400   3.281  16.003  0.00  0.00    +0.000 C 
BRANCH  14  15
ATOM     15  C   UNL     1       5.734   4.738  16.135  0.00  0.00    +0.000 A 
ATOM     16  C   UNL     1       5.240   5.759  15.345  0.00  0.00    +0.000 A 
ATOM     17  N   UNL     1       5.773   6.941  15.780  0.00  0.00    +0.000 N 
ATOM     18  C   UNL     1       6.604   6.721  16.852  0.00  0.00    +0.000 A 
ATOM     19  C   UNL     1       7.352   7.633  17.607  0.00  0.00    +0.000 A 
ATOM     20  C   UNL     1       8.105   7.128  18.672  0.00  0.00    +0.000 A 
ATOM     21  C   UNL     1       8.102   5.768  18.967  0.00  0.00    +0.000 A 
ATOM     22  C   UNL     1       7.349   4.870  18.199  0.00  0.00    +0.000 A 
ATOM     23  C   UNL     1       6.589   5.350  17.112  0.00  0.00    +0.000 A 
ATOM     24  H   UNL     1       5.580   7.849  15.381  0.00  0.00    +0.000 HD
ENDBRANCH  14  15
ENDBRANCH  13  14
ENDBRANCH   3  13
TORSDOF 5
ENDMDL
MODEL 9
REMARK VINA RESULT:      -7.6      2.494      3.680
REMARK  Name = 
REMARK  7 active torsions:
REMARK  status: ('A' for Active; 'I' for Inactive)
REMARK    1  A    between atoms: C_1  and  C_2
REMARK    2  A    between atoms: C_2  and  C_3
REMARK    3  A    between atoms: C_6  and  C_7
REMARK    4  A    between atoms: C_8  and  C_9
REMARK    5  A    between atoms: N_11  and  C_12
REMARK    6  A    between atoms: C_12  and  C_13
REMARK    7  A    between atoms: C_13  and  C_14
REMARK                            x       y       z     vdW  Elec       q    Type
REMARK                         _______ _______ _______ _____ _____    ______ ____
ROOT
ATOM      1  C   UNL     1       4.747   5.214  17.407  0.00  0.00    +0.000 C 
ATOM      2  O   UNL     1       4.603   4.151  18.003  0.00  0.00    +0.000 OA
ATOM      3  N   UNL     1       3.787   6.205  17.472  0.00  0.00    +0.000 N 
ATOM      4  H   UNL     1       3.931   7.106  17.046  0.00  0.00    +0.000 HD
ENDROOT
BRANCH   1  10
ATOM      5  C   UNL     1       6.197   5.002  15.284  0.00  0.00    +0.000 A 
ATOM      6  N   UNL     1       7.365   5.459  14.818  0.00  0.00    +0.000 NA
ATOM      7  O   UNL     1       7.900   6.222  15.827  0.00  0.00    +0.000 OA
ATOM      8  C   UNL     1       7.064   6.226  16.900  0.00  0.00    +0.000 A 
ATOM      9  C   UNL     1       7.562   6.998  18.057  0.00  0.00    +0.000 C 
ATOM     10  C   UNL     1       5.935   5.479  16.610  0.00  0.00    +0.000 A 
BRANCH   5  12
ATOM     11  C   UNL     1       6.111   3.659  13.160  0.00  0.00    +0.000 C 
ATOM     12  C   UNL     1       5.386   4.087  14.425  0.00  0.00    +0.000 C 
ENDBRANCH   5  12
ENDBRANCH   1  10
BRANCH   3  13
ATOM     13  C   UNL     1       2.569   5.986  18.232  0.00  0.00    +0.000 C 
BRANCH  13  14
ATOM     14  C   UNL     1       2.413   6.893  19.456  0.00  0.00    +0.000 C 
BRANCH  14  15
ATOM     15  C   UNL     1       1.783   8.223  19.159  0.00  0.00    +0.000 A 
ATOM     16  C   UNL     1       1.795   8.873  17.940  0.00  0.00    +0.000 A 
ATOM     17  N   UNL     1       1.113  10.051  18.069  0.00  0.00    +0.000 N 
ATOM     18  C   UNL     1       0.640  10.187  19.352  0.00  0.00    +0.000 A 
ATOM     19  C   UNL     1      -0.106  11.225  19.926  0.00  0.00    +0.000 A 
ATOM     20  C   UNL     1      -0.476  11.091  21.268  0.00  0.00    +0.000 A 
ATOM     21  C   UNL     1      -0.116   9.962  21.999  0.00  0.00    +0.000 A 
ATOM     22  C   UNL     1       0.632   8.934  21.408  0.00  0.00    +0.000 A 
ATOM     23  C   UNL     1       1.028   9.049  20.058  0.00  0.00    +0.000 A 
ATOM     24  H   UNL     1       0.967  10.724  17.329  0.00  0.00    +0.000 HD
ENDBRANCH  14  15
ENDBRANCH  13  14
ENDBRANCH   3  13
TORSDOF 5
ENDMDL
