MODEL 1
REMARK VINA RESULT:      -8.5      0.000      0.000
REMARK  Name = 
REMARK  2 active torsions:
REMARK  status: ('A' for Active; 'I' for Inactive)
REMARK    1  A    between atoms: N_5  and  C_6
REMARK    2  A    between atoms: N_15  and  C_16
REMARK                            x       y       z     vdW  Elec       q    Type
REMARK                         _______ _______ _______ _____ _____    ______ ____
ROOT
ATOM      1  N   UNL     1      -1.088  10.562  17.840  0.00  0.00    +0.000 NA
ATOM      2  C   UNL     1      -0.731  10.802  19.056  0.00  0.00    +0.000 C 
ATOM      3  C   UNL     1      -1.381  11.808  19.940  0.00  0.00    +0.000 C 
ATOM      4  S   UNL     1      -2.890  12.386  19.564  0.00  0.00    +0.000 S 
ATOM      5  N   UNL     1      -0.547  11.975  20.999  0.00  0.00    +0.000 N 
ATOM      6  C   UNL     1       0.467  11.013  20.947  0.00  0.00    +0.000 C 
ATOM      7  O   UNL     1       1.324  10.863  21.807  0.00  0.00    +0.000 OA
ATOM      8  N   UNL     1       0.330  10.293  19.750  0.00  0.00    +0.000 N 
ATOM      9  H   UNL     1      -1.903  11.148  17.603  0.00  0.00    +0.000 HD
ENDROOT
BRANCH   8  10
ATOM     10  C   UNL     1       1.208   9.275  19.265  0.00  0.00    +0.000 A 
ATOM     11  C   UNL     1       1.869   9.389  18.026  0.00  0.00    +0.000 A 
ATOM     12  C   UNL     1       2.704   8.369  17.525  0.00  0.00    +0.000 A 
ATOM     13  C   UNL     1       2.883   7.225  18.279  0.00  0.00    +0.000 A 
ATOM     14  C   UNL     1       2.237   7.098  19.521  0.00  0.00    +0.000 A 
ATOM     15  C   UNL     1       1.416   8.104  20.017  0.00  0.00    +0.000 A 
ATOM     16  C   UNL     1       2.560   5.762  20.156  0.00  0.00    +0.000 C 
ATOM     17  C   UNL     1       3.502   5.154  19.135  0.00  0.00    +0.000 A 
ATOM     18  C   UNL     1       4.147   3.930  19.189  0.00  0.00    +0.000 A 
ATOM     19  C   UNL     1       4.983   3.586  18.125  0.00  0.00    +0.000 A 
ATOM     20  C   UNL     1       5.152   4.457  17.034  0.00  0.00    +0.000 A 
ATOM     21  C   UNL     1       4.490   5.688  16.985  0.00  0.00    +0.000 A 
ATOM     22  C   UNL     1       3.667   6.033  18.042  0.00  0.00    +0.000 A 
ENDBRANCH   8  10
BRANCH   5  23
ATOM     23  C   UNL     1      -0.635  13.024  21.941  0.00  0.00    +0.000 A 
ATOM     24  C   UNL     1       0.124  14.188  21.726  0.00  0.00    +0.000 A 
ATOM     25  C   UNL     1       0.020  15.284  22.582  0.00  0.00    +0.000 A 
ATOM     26  C   UNL     1      -0.852  15.227  23.660  0.00  0.00    +0.000 A 
ATOM     27  I   UNL     1      -1.065  16.892  24.883  0.00  0.00    +0.000 I 
ATOM     28  C   UNL     1      -1.587  14.065  23.911  0.00  0.00    +0.000 A 
ATOM     29  C   UNL     1      -1.460  12.953  23.065  0.00  0.00    +0.000 A 
ENDBRANCH   5  23
TORSDOF 2
ENDMDL
MODEL 2
REMARK VINA RESULT:      -8.2      0.946      1.201
REMARK  Name = 
REMARK  2 active torsions:
REMARK  status: ('A' for Active; 'I' for Inactive)
REMARK    1  A    between atoms: N_5  and  C_6
REMARK    2  A    between atoms: N_15  and  C_16
REMARK                            x       y       z     vdW  Elec       q    Type
REMARK                         _______ _______ _______ _____ _____    ______ ____
ROOT
ATOM      1  N   UNL     1      -0.283  10.078  17.681  0.00  0.00    +0.000 NA
ATOM      2  C   UNL     1      -0.146  10.351  18.934  0.00  0.00    +0.000 C 
ATOM      3  C   UNL     1      -0.759  11.529  19.609  0.00  0.00    +0.000 C 
ATOM      4  S   UNL     1      -2.017  12.334  18.885  0.00  0.00    +0.000 S 
ATOM      5  N   UNL     1      -0.146  11.632  20.816  0.00  0.00    +0.000 N 
ATOM      6  C   UNL     1       0.651  10.503  21.031  0.00  0.00    +0.000 C 
ATOM      7  O   UNL     1       1.266  10.275  22.064  0.00  0.00    +0.000 OA
ATOM      8  N   UNL     1       0.630   9.722  19.865  0.00  0.00    +0.000 N 
ATOM      9  H   UNL     1      -0.902  10.779  17.245  0.00  0.00    +0.000 HD
ENDROOT
BRANCH   8  10
ATOM     10  C   UNL     1       1.375   8.526  19.630  0.00  0.00    +0.000 A 
ATOM     11  C   UNL     1       2.245   8.394  18.529  0.00  0.00    +0.000 A 
ATOM     12  C   UNL     1       2.952   7.202  18.271  0.00  0.00    +0.000 A 
ATOM     13  C   UNL     1       2.789   6.132  19.129  0.00  0.00    +0.000 A 
ATOM     14  C   UNL     1       1.931   6.249  20.236  0.00  0.00    +0.000 A 
ATOM     15  C   UNL     1       1.236   7.424  20.494  0.00  0.00    +0.000 A 
ATOM     16  C   UNL     1       1.894   4.953  21.020  0.00  0.00    +0.000 C 
ATOM     17  C   UNL     1       2.867   4.091  20.240  0.00  0.00    +0.000 A 
ATOM     18  C   UNL     1       3.259   2.790  20.505  0.00  0.00    +0.000 A 
ATOM     19  C   UNL     1       4.185   2.199  19.643  0.00  0.00    +0.000 A 
ATOM     20  C   UNL     1       4.692   2.907  18.539  0.00  0.00    +0.000 A 
ATOM     21  C   UNL     1       4.283   4.219  18.274  0.00  0.00    +0.000 A 
ATOM     22  C   UNL     1       3.371   4.808  19.132  0.00  0.00    +0.000 A 
ENDBRANCH   8  10
BRANCH   5  23
ATOM     23  C   UNL     1      -0.223  12.755  21.669  0.00  0.00    +0.000 A 
ATOM     24  C   UNL     1       0.594  13.867  21.397  0.00  0.00    +0.000 A 
ATOM     25  C   UNL     1       0.507  15.030  22.160  0.00  0.00    +0.000 A 
ATOM     26  C   UNL     1      -0.408  15.096  23.201  0.00  0.00    +0.000 A 
ATOM     27  I   UNL     1      -0.594  16.861  24.281  0.00  0.00    +0.000 I 
ATOM     28  C   UNL     1      -1.204  13.989  23.511  0.00  0.00    +0.000 A 
ATOM     29  C   UNL     1      -1.094  12.809  22.760  0.00  0.00    +0.000 A 
ENDBRANCH   5  23
TORSDOF 2
ENDMDL
MODEL 3
REMARK VINA RESULT:      -8.0      2.501      3.060
REMARK  Name = 
REMARK  2 active torsions:
REMARK  status: ('A' for Active; 'I' for Inactive)
REMARK    1  A    between atoms: N_5  and  C_6
REMARK    2  A    between atoms: N_15  and  C_16
REMARK                            x       y       z     vdW  Elec       q    Type
REMARK                         _______ _______ _______ _____ _____    ______ ____
ROOT
ATOM      1  N   UNL     1       1.887  12.009  21.137  0.00  0.00    +0.000 NA
ATOM      2  C   UNL     1       0.721  11.837  20.615  0.00  0.00    +0.000 C 
ATOM      3  C   UNL     1      -0.443  12.738  20.841  0.00  0.00    +0.000 C 
ATOM      4  S   UNL     1      -0.201  14.267  21.437  0.00  0.00    +0.000 S 
ATOM      5  N   UNL     1      -1.533  12.068  20.384  0.00  0.00    +0.000 N 
ATOM      6  C   UNL     1      -1.120  10.913  19.711  0.00  0.00    +0.000 C 
ATOM      7  O   UNL     1      -1.872  10.148  19.124  0.00  0.00    +0.000 OA
ATOM      8  N   UNL     1       0.271  10.794  19.855  0.00  0.00    +0.000 N 
ATOM      9  H   UNL     1       1.884  12.875  21.698  0.00  0.00    +0.000 HD
ENDROOT
BRANCH   8  10
ATOM     10  C   UNL     1       1.084   9.715  19.392  0.00  0.00    +0.000 A 
ATOM     11  C   UNL     1       1.711   9.742  18.130  0.00  0.00    +0.000 A 
ATOM     12  C   UNL     1       2.482   8.662  17.653  0.00  0.00    +0.000 A 
ATOM     13  C   UNL     1       2.630   7.545  18.452  0.00  0.00    +0.000 A 
ATOM     14  C   UNL     1       2.018   7.504  19.717  0.00  0.00    +0.000 A 
ATOM     15  C   UNL     1       1.261   8.569  20.190  0.00  0.00    +0.000 A 
ATOM     16  C   UNL     1       2.298   6.183  20.403  0.00  0.00    +0.000 C 
ATOM     17  C   UNL     1       3.178   5.486  19.384  0.00  0.00    +0.000 A 
ATOM     18  C   UNL     1       3.767   4.236  19.476  0.00  0.00    +0.000 A 
ATOM     19  C   UNL     1       4.552   3.805  18.405  0.00  0.00    +0.000 A 
ATOM     20  C   UNL     1       4.728   4.618  17.270  0.00  0.00    +0.000 A 
ATOM     21  C   UNL     1       4.123   5.877  17.184  0.00  0.00    +0.000 A 
ATOM     22  C   UNL     1       3.350   6.307  18.247  0.00  0.00    +0.000 A 
ENDBRANCH   8  10
BRANCH   5  23
ATOM     23  C   UNL     1      -2.873  12.431  20.643  0.00  0.00    +0.000 A 
ATOM     24  C   UNL     1      -3.754  12.577  19.556  0.00  0.00    +0.000 A 
ATOM     25  C   UNL     1      -5.104  12.862  19.756  0.00  0.00    +0.000 A 
ATOM     26  C   UNL     1      -5.589  12.995  21.049  0.00  0.00    +0.000 A 
ATOM     27  I   UNL     1      -7.617  13.335  21.344  0.00  0.00    +0.000 I 
ATOM     28  C   UNL     1      -4.722  12.889  22.141  0.00  0.00    +0.000 A 
ATOM     29  C   UNL     1      -3.358  12.632  21.937  0.00  0.00    +0.000 A 
ENDBRANCH   5  23
TORSDOF 2
ENDMDL
MODEL 4
REMARK VINA RESULT:      -8.0      0.650      1.840
REMARK  Name = 
REMARK  2 active torsions:
REMARK  status: ('A' for Active; 'I' for Inactive)
REMARK    1  A    between atoms: N_5  and  C_6
REMARK    2  A    between atoms: N_15  and  C_16
REMARK                            x       y       z     vdW  Elec       q    Type
REMARK                         _______ _______ _______ _____ _____    ______ ____
ROOT
ATOM      1  N   UNL     1      -0.788  10.260  17.895  0.00  0.00    +0.000 NA
ATOM      2  C   UNL     1      -0.644  10.504  19.153  0.00  0.00    +0.000 C 
ATOM      3  C   UNL     1      -1.367  11.579  19.888  0.00  0.00    +0.000 C 
ATOM      4  S   UNL     1      -2.730  12.258  19.229  0.00  0.00    +0.000 S 
ATOM      5  N   UNL     1      -0.733  11.710  21.082  0.00  0.00    +0.000 N 
ATOM      6  C   UNL     1       0.194  10.674  21.233  0.00  0.00    +0.000 C 
ATOM      7  O   UNL     1       0.862  10.483  22.240  0.00  0.00    +0.000 OA
ATOM      8  N   UNL     1       0.226   9.936  20.040  0.00  0.00    +0.000 N 
ATOM      9  H   UNL     1      -1.495  10.899  17.502  0.00  0.00    +0.000 HD
ENDROOT
BRANCH   8  10
ATOM     10  C   UNL     1       1.096   8.843  19.739  0.00  0.00    +0.000 A 
ATOM     11  C   UNL     1       1.261   7.757  20.622  0.00  0.00    +0.000 A 
ATOM     12  C   UNL     1       2.148   6.696  20.348  0.00  0.00    +0.000 A 
ATOM     13  C   UNL     1       2.873   6.721  19.172  0.00  0.00    +0.000 A 
ATOM     14  C   UNL     1       2.715   7.793  18.276  0.00  0.00    +0.000 A 
ATOM     15  C   UNL     1       1.839   8.838  18.543  0.00  0.00    +0.000 A 
ATOM     16  C   UNL     1       3.619   7.620  17.073  0.00  0.00    +0.000 C 
ATOM     17  C   UNL     1       4.289   6.295  17.378  0.00  0.00    +0.000 A 
ATOM     18  C   UNL     1       5.214   5.608  16.610  0.00  0.00    +0.000 A 
ATOM     19  C   UNL     1       5.688   4.388  17.095  0.00  0.00    +0.000 A 
ATOM     20  C   UNL     1       5.241   3.884  18.330  0.00  0.00    +0.000 A 
ATOM     21  C   UNL     1       4.312   4.589  19.103  0.00  0.00    +0.000 A 
ATOM     22  C   UNL     1       3.837   5.795  18.619  0.00  0.00    +0.000 A 
ENDBRANCH   8  10
BRANCH   5  23
ATOM     23  C   UNL     1      -0.912  12.787  21.979  0.00  0.00    +0.000 A 
ATOM     24  C   UNL     1      -1.921  12.692  22.954  0.00  0.00    +0.000 A 
ATOM     25  C   UNL     1      -2.095  13.690  23.911  0.00  0.00    +0.000 A 
ATOM     26  C   UNL     1      -1.253  14.793  23.906  0.00  0.00    +0.000 A 
ATOM     27  I   UNL     1      -1.462  16.237  25.386  0.00  0.00    +0.000 I 
ATOM     28  C   UNL     1      -0.268  14.924  22.924  0.00  0.00    +0.000 A 
ATOM     29  C   UNL     1      -0.113  13.932  21.943  0.00  0.00    +0.000 A 
ENDBRANCH   5  23
TORSDOF 2
ENDMDL
MODEL 5
REMARK VINA RESULT:      -8.0      1.556      1.722
REMARK  Name = 
REMARK  2 active torsions:
REMARK  status: ('A' for Active; 'I' for Inactive)
REMARK    1  A    between atoms: N_5  and  C_6
REMARK    2  A    between atoms: N_15  and  C_16
REMARK                            x       y       z     vdW  Elec       q    Type
REMARK                         _______ _______ _______ _____ _____    ______ ____
ROOT
ATOM      1  N   UNL     1       2.266  11.919  18.061  0.00  0.00    +0.000 NA
ATOM      2  C   UNL     1       1.277  11.674  18.851  0.00  0.00    +0.000 C 
ATOM      3  C   UNL     1       0.376  12.715  19.418  0.00  0.00    +0.000 C 
ATOM      4  S   UNL     1       0.319  14.223  18.728  0.00  0.00    +0.000 S 
ATOM      5  N   UNL     1      -0.322  12.108  20.412  0.00  0.00    +0.000 N 
ATOM      6  C   UNL     1      -0.077  10.732  20.379  0.00  0.00    +0.000 C 
ATOM      7  O   UNL     1      -0.626   9.913  21.104  0.00  0.00    +0.000 OA
ATOM      8  N   UNL     1       0.901  10.483  19.404  0.00  0.00    +0.000 N 
ATOM      9  H   UNL     1       2.306  12.931  17.868  0.00  0.00    +0.000 HD
ENDROOT
BRANCH   8  10
ATOM     10  C   UNL     1       1.500   9.221  19.104  0.00  0.00    +0.000 A 
ATOM     11  C   UNL     1       2.063   8.944  17.842  0.00  0.00    +0.000 A 
ATOM     12  C   UNL     1       2.619   7.687  17.529  0.00  0.00    +0.000 A 
ATOM     13  C   UNL     1       2.616   6.698  18.494  0.00  0.00    +0.000 A 
ATOM     14  C   UNL     1       2.065   6.959  19.760  0.00  0.00    +0.000 A 
ATOM     15  C   UNL     1       1.519   8.198  20.072  0.00  0.00    +0.000 A 
ATOM     16  C   UNL     1       2.152   5.732  20.643  0.00  0.00    +0.000 C 
ATOM     17  C   UNL     1       2.855   4.745  19.732  0.00  0.00    +0.000 A 
ATOM     18  C   UNL     1       3.230   3.441  20.010  0.00  0.00    +0.000 A 
ATOM     19  C   UNL     1       3.882   2.721  19.007  0.00  0.00    +0.000 A 
ATOM     20  C   UNL     1       4.138   3.306  17.754  0.00  0.00    +0.000 A 
ATOM     21  C   UNL     1       3.748   4.622  17.479  0.00  0.00    +0.000 A 
ATOM     22  C   UNL     1       3.108   5.338  18.475  0.00  0.00    +0.000 A 
ENDBRANCH   8  10
BRANCH   5  23
ATOM     23  C   UNL     1      -1.089  12.781  21.389  0.00  0.00    +0.000 A 
ATOM     24  C   UNL     1      -0.421  13.422  22.448  0.00  0.00    +0.000 A 
ATOM     25  C   UNL     1      -1.121  14.163  23.398  0.00  0.00    +0.000 A 
ATOM     26  C   UNL     1      -2.500  14.277  23.294  0.00  0.00    +0.000 A 
ATOM     27  I   UNL     1      -3.529  15.452  24.664  0.00  0.00    +0.000 I 
ATOM     28  C   UNL     1      -3.186  13.618  22.270  0.00  0.00    +0.000 A 
ATOM     29  C   UNL     1      -2.483  12.849  21.331  0.00  0.00    +0.000 A 
ENDBRANCH   5  23
TORSDOF 2
ENDMDL
MODEL 6
REMARK VINA RESULT:      -7.8      2.035      2.407
REMARK  Name = 
REMARK  2 active torsions:
REMARK  status: ('A' for Active; 'I' for Inactive)
REMARK    1  A    between atoms: N_5  and  C_6
REMARK    2  A    between atoms: N_15  and  C_16
REMARK                            x       y       z     vdW  Elec       q    Type
REMARK                         _______ _______ _______ _____ _____    ______ ____
ROOT
ATOM      1  N   UNL     1       2.216  12.325  18.962  0.00  0.00    +0.000 NA
ATOM      2  C   UNL     1       1.042  11.898  19.280  0.00  0.00    +0.000 C 
ATOM      3  C   UNL     1      -0.080  12.772  19.723  0.00  0.00    +0.000 C 
ATOM      4  S   UNL     1      -0.024  14.403  19.424  0.00  0.00    +0.000 S 
ATOM      5  N   UNL     1      -1.020  11.943  20.245  0.00  0.00    +0.000 N 
ATOM      6  C   UNL     1      -0.667  10.615  19.982  0.00  0.00    +0.000 C 
ATOM      7  O   UNL     1      -1.359   9.646  20.262  0.00  0.00    +0.000 OA
ATOM      8  N   UNL     1       0.599  10.609  19.378  0.00  0.00    +0.000 N 
ATOM      9  H   UNL     1       2.235  13.354  19.034  0.00  0.00    +0.000 HD
ENDROOT
BRANCH   8  10
ATOM     10  C   UNL     1       1.366   9.457  19.022  0.00  0.00    +0.000 A 
ATOM     11  C   UNL     1       1.996   9.339  17.768  0.00  0.00    +0.000 A 
ATOM     12  C   UNL     1       2.720   8.187  17.397  0.00  0.00    +0.000 A 
ATOM     13  C   UNL     1       2.817   7.144  18.298  0.00  0.00    +0.000 A 
ATOM     14  C   UNL     1       2.200   7.247  19.557  0.00  0.00    +0.000 A 
ATOM     15  C   UNL     1       1.490   8.383  19.924  0.00  0.00    +0.000 A 
ATOM     16  C   UNL     1       2.420   5.985  20.363  0.00  0.00    +0.000 C 
ATOM     17  C   UNL     1       3.272   5.158  19.419  0.00  0.00    +0.000 A 
ATOM     18  C   UNL     1       3.804   3.898  19.630  0.00  0.00    +0.000 A 
ATOM     19  C   UNL     1       4.573   3.336  18.609  0.00  0.00    +0.000 A 
ATOM     20  C   UNL     1       4.787   4.031  17.405  0.00  0.00    +0.000 A 
ATOM     21  C   UNL     1       4.238   5.302  17.199  0.00  0.00    +0.000 A 
ATOM     22  C   UNL     1       3.482   5.862  18.213  0.00  0.00    +0.000 A 
ENDBRANCH   8  10
BRANCH   5  23
ATOM     23  C   UNL     1      -2.125  12.359  21.021  0.00  0.00    +0.000 A 
ATOM     24  C   UNL     1      -3.302  12.756  20.362  0.00  0.00    +0.000 A 
ATOM     25  C   UNL     1      -4.446  13.106  21.077  0.00  0.00    +0.000 A 
ATOM     26  C   UNL     1      -4.426  13.054  22.464  0.00  0.00    +0.000 A 
ATOM     27  I   UNL     1      -6.158  13.494  23.522  0.00  0.00    +0.000 I 
ATOM     28  C   UNL     1      -3.255  12.696  23.138  0.00  0.00    +0.000 A 
ATOM     29  C   UNL     1      -2.095  12.373  22.417  0.00  0.00    +0.000 A 
ENDBRANCH   5  23
TORSDOF 2
ENDMDL
MODEL 7
REMARK VINA RESULT:      -7.8      2.842      3.972
REMARK  Name = 
REMARK  2 active torsions:
REMARK  status: ('A' for Active; 'I' for Inactive)
REMARK    1  A    between atoms: N_5  and  C_6
REMARK    2  A    between atoms: N_15  and  C_16
REMARK                            x       y       z     vdW  Elec       q    Type
REMARK                         _______ _______ _______ _____ _____    ______ ____
ROOT
ATOM      1  N   UNL     1       1.208  11.848  20.876  0.00  0.00    +0.000 NA
ATOM      2  C   UNL     1       0.215  11.565  20.104  0.00  0.00    +0.000 C 
ATOM      3  C   UNL     1      -0.951  12.461  19.871  0.00  0.00    +0.000 C 
ATOM      4  S   UNL     1      -0.844  14.073  20.253  0.00  0.00    +0.000 S 
ATOM      5  N   UNL     1      -1.897  11.700  19.263  0.00  0.00    +0.000 N 
ATOM      6  C   UNL     1      -1.345  10.462  18.917  0.00  0.00    +0.000 C 
ATOM      7  O   UNL     1      -1.932   9.593  18.287  0.00  0.00    +0.000 OA
ATOM      8  N   UNL     1      -0.041  10.402  19.434  0.00  0.00    +0.000 N 
ATOM      9  H   UNL     1       1.076  12.793  21.268  0.00  0.00    +0.000 HD
ENDROOT
BRANCH   8  10
ATOM     10  C   UNL     1       0.844   9.283  19.379  0.00  0.00    +0.000 A 
ATOM     11  C   UNL     1       0.991   8.394  20.463  0.00  0.00    +0.000 A 
ATOM     12  C   UNL     1       1.893   7.311  20.428  0.00  0.00    +0.000 A 
ATOM     13  C   UNL     1       2.652   7.113  19.291  0.00  0.00    +0.000 A 
ATOM     14  C   UNL     1       2.513   7.986  18.197  0.00  0.00    +0.000 A 
ATOM     15  C   UNL     1       1.623   9.051  18.229  0.00  0.00    +0.000 A 
ATOM     16  C   UNL     1       3.454   7.591  17.078  0.00  0.00    +0.000 C 
ATOM     17  C   UNL     1       4.124   6.360  17.656  0.00  0.00    +0.000 A 
ATOM     18  C   UNL     1       5.076   5.547  17.064  0.00  0.00    +0.000 A 
ATOM     19  C   UNL     1       5.544   4.453  17.794  0.00  0.00    +0.000 A 
ATOM     20  C   UNL     1       5.064   4.196  19.091  0.00  0.00    +0.000 A 
ATOM     21  C   UNL     1       4.107   5.028  19.684  0.00  0.00    +0.000 A 
ATOM     22  C   UNL     1       3.638   6.109  18.958  0.00  0.00    +0.000 A 
ENDBRANCH   8  10
BRANCH   5  23
ATOM     23  C   UNL     1      -3.251  12.067  19.103  0.00  0.00    +0.000 A 
ATOM     24  C   UNL     1      -3.908  12.704  20.171  0.00  0.00    +0.000 A 
ATOM     25  C   UNL     1      -5.221  13.155  20.043  0.00  0.00    +0.000 A 
ATOM     26  C   UNL     1      -5.889  12.979  18.840  0.00  0.00    +0.000 A 
ATOM     27  I   UNL     1      -7.815  13.728  18.628  0.00  0.00    +0.000 I 
ATOM     28  C   UNL     1      -5.266  12.317  17.778  0.00  0.00    +0.000 A 
ATOM     29  C   UNL     1      -3.954  11.837  17.918  0.00  0.00    +0.000 A 
ENDBRANCH   5  23
TORSDOF 2
ENDMDL
MODEL 8
REMARK VINA RESULT:      -7.8      1.077      2.079
REMARK  Name = 
REMARK  2 active torsions:
REMARK  status: ('A' for Active; 'I' for Inactive)
REMARK    1  A    between atoms: N_5  and  C_6
REMARK    2  A    between atoms: N_15  and  C_16
REMARK                            x       y       z     vdW  Elec       q    Type
REMARK                         _______ _______ _______ _____ _____    ______ ____
ROOT
ATOM      1  N   UNL     1      -1.781  10.149  18.615  0.00  0.00    +0.000 NA
ATOM      2  C   UNL     1      -1.155  10.838  19.507  0.00  0.00    +0.000 C 
ATOM      3  C   UNL     1      -1.612  12.158  20.023  0.00  0.00    +0.000 C 
ATOM      4  S   UNL     1      -3.186  12.632  19.800  0.00  0.00    +0.000 S 
ATOM      5  N   UNL     1      -0.557  12.685  20.697  0.00  0.00    +0.000 N 
ATOM      6  C   UNL     1       0.449  11.720  20.814  0.00  0.00    +0.000 C 
ATOM      7  O   UNL     1       1.489  11.876  21.438  0.00  0.00    +0.000 OA
ATOM      8  N   UNL     1       0.058  10.587  20.084  0.00  0.00    +0.000 N 
ATOM      9  H   UNL     1      -2.648  10.641  18.351  0.00  0.00    +0.000 HD
ENDROOT
BRANCH   8  10
ATOM     10  C   UNL     1       0.830   9.404  19.873  0.00  0.00    +0.000 A 
ATOM     11  C   UNL     1       0.920   8.388  20.846  0.00  0.00    +0.000 A 
ATOM     12  C   UNL     1       1.713   7.238  20.657  0.00  0.00    +0.000 A 
ATOM     13  C   UNL     1       2.419   7.101  19.477  0.00  0.00    +0.000 A 
ATOM     14  C   UNL     1       2.334   8.102  18.493  0.00  0.00    +0.000 A 
ATOM     15  C   UNL     1       1.551   9.234  18.676  0.00  0.00    +0.000 A 
ATOM     16  C   UNL     1       3.202   7.751  17.302  0.00  0.00    +0.000 C 
ATOM     17  C   UNL     1       3.766   6.406  17.715  0.00  0.00    +0.000 A 
ATOM     18  C   UNL     1       4.620   5.582  17.001  0.00  0.00    +0.000 A 
ATOM     19  C   UNL     1       5.000   4.373  17.588  0.00  0.00    +0.000 A 
ATOM     20  C   UNL     1       4.533   4.016  18.865  0.00  0.00    +0.000 A 
ATOM     21  C   UNL     1       3.677   4.859  19.582  0.00  0.00    +0.000 A 
ATOM     22  C   UNL     1       3.294   6.054  18.999  0.00  0.00    +0.000 A 
ENDBRANCH   8  10
BRANCH   5  23
ATOM     23  C   UNL     1      -0.456  14.030  21.118  0.00  0.00    +0.000 A 
ATOM     24  C   UNL     1      -0.672  14.330  22.475  0.00  0.00    +0.000 A 
ATOM     25  C   UNL     1      -0.513  15.627  22.961  0.00  0.00    +0.000 A 
ATOM     26  C   UNL     1      -0.128  16.638  22.092  0.00  0.00    +0.000 A 
ATOM     27  I   UNL     1       0.190  18.551  22.837  0.00  0.00    +0.000 I 
ATOM     28  C   UNL     1       0.057  16.367  20.733  0.00  0.00    +0.000 A 
ATOM     29  C   UNL     1      -0.132  15.066  20.241  0.00  0.00    +0.000 A 
ENDBRANCH   5  23
TORSDOF 2
ENDMDL
MODEL 9
REMARK VINA RESULT:      -7.7      2.579      3.090
REMARK  Name = 
REMARK  2 active torsions:
REMARK  status: ('A' for Active; 'I' for Inactive)
REMARK    1  A    between atoms: N_5  and  C_6
REMARK    2  A    between atoms: N_15  and  C_16
REMARK                            x       y       z     vdW  Elec       q    Type
REMARK                         _______ _______ _______ _____ _____    ______ ____
ROOT
ATOM      1  N   UNL     1      -0.458   9.744  21.407  0.00  0.00    +0.000 NA
ATOM      2  C   UNL     1       0.291  10.566  20.755  0.00  0.00    +0.000 C 
ATOM      3  C   UNL     1       0.207  12.049  20.866  0.00  0.00    +0.000 C 
ATOM      4  S   UNL     1      -0.567  12.738  22.163  0.00  0.00    +0.000 S 
ATOM      5  N   UNL     1       0.925  12.546  19.826  0.00  0.00    +0.000 N 
ATOM      6  C   UNL     1       1.613  11.504  19.196  0.00  0.00    +0.000 C 
ATOM      7  O   UNL     1       2.403  11.654  18.274  0.00  0.00    +0.000 OA
ATOM      8  N   UNL     1       1.218  10.295  19.789  0.00  0.00    +0.000 N 
ATOM      9  H   UNL     1      -1.088  10.276  22.028  0.00  0.00    +0.000 HD
ENDROOT
BRANCH   8  10
ATOM     10  C   UNL     1       1.618   8.983  19.391  0.00  0.00    +0.000 A 
ATOM     11  C   UNL     1       1.951   8.678  18.056  0.00  0.00    +0.000 A 
ATOM     12  C   UNL     1       2.308   7.375  17.651  0.00  0.00    +0.000 A 
ATOM     13  C   UNL     1       2.335   6.368  18.597  0.00  0.00    +0.000 A 
ATOM     14  C   UNL     1       2.013   6.656  19.934  0.00  0.00    +0.000 A 
ATOM     15  C   UNL     1       1.665   7.940  20.335  0.00  0.00    +0.000 A 
ATOM     16  C   UNL     1       2.090   5.404  20.782  0.00  0.00    +0.000 C 
ATOM     17  C   UNL     1       2.532   4.369  19.767  0.00  0.00    +0.000 A 
ATOM     18  C   UNL     1       2.793   3.025  19.974  0.00  0.00    +0.000 A 
ATOM     19  C   UNL     1       3.201   2.263  18.878  0.00  0.00    +0.000 A 
ATOM     20  C   UNL     1       3.333   2.848  17.606  0.00  0.00    +0.000 A 
ATOM     21  C   UNL     1       3.059   4.206  17.405  0.00  0.00    +0.000 A 
ATOM     22  C   UNL     1       2.661   4.962  18.492  0.00  0.00    +0.000 A 
ENDBRANCH   8  10
BRANCH   5  23
ATOM     23  C   UNL     1       0.894  13.890  19.391  0.00  0.00    +0.000 A 
ATOM     24  C   UNL     1      -0.325  14.422  18.933  0.00  0.00    +0.000 A 
ATOM     25  C   UNL     1      -0.432  15.761  18.561  0.00  0.00    +0.000 A 
ATOM     26  C   UNL     1       0.681  16.585  18.651  0.00  0.00    +0.000 A 
ATOM     27  I   UNL     1       0.496  18.599  18.176  0.00  0.00    +0.000 I 
ATOM     28  C   UNL     1       1.910  16.066  19.069  0.00  0.00    +0.000 A 
ATOM     29  C   UNL     1       2.023  14.711  19.416  0.00  0.00    +0.000 A 
ENDBRANCH   5  23
TORSDOF 2
ENDMDL
