MODEL 1
REMARK VINA RESULT:      -8.3      0.000      0.000
REMARK  Name = 
REMARK  6 active torsions:
REMARK  status: ('A' for Active; 'I' for Inactive)
REMARK    1  A    between atoms: C_1  and  C_2
REMARK    2  A    between atoms: N_4  and  C_5
REMARK    3  A    between atoms: C_5  and  C_6
REMARK    4  A    between atoms: C_10  and  C_11
REMARK    5  A    between atoms: N_18  and  C_19
REMARK    6  A    between atoms: C_19  and  C_20
REMARK                            x       y       z     vdW  Elec       q    Type
REMARK                         _______ _______ _______ _____ _____    ______ ____
ROOT
ATOM      1  C   UNL     1      -0.651  12.264  21.532  0.00  0.00    +0.000 A 
ATOM      2  C   UNL     1      -0.610  12.658  20.211  0.00  0.00    +0.000 A 
ATOM      3  S   UNL     1       0.349  11.580  19.305  0.00  0.00    +0.000 S 
ATOM      4  C   UNL     1       0.629  10.628  20.718  0.00  0.00    +0.000 A 
ATOM      5  N   UNL     1       1.297   9.452  20.715  0.00  0.00    +0.000 N 
ATOM      6  C   UNL     1       1.695   8.651  19.693  0.00  0.00    +0.000 C 
ATOM      7  N   UNL     1       1.724   8.942  18.436  0.00  0.00    +0.000 NA
ATOM      8  N   UNL     1       2.099   7.426  20.122  0.00  0.00    +0.000 N 
ATOM      9  N   UNL     1       0.111  11.136  21.816  0.00  0.00    +0.000 NA
ATOM     10  H   UNL     1       1.542   9.105  21.634  0.00  0.00    +0.000 HD
ATOM     11  H   UNL     1       1.390   9.900  18.312  0.00  0.00    +0.000 HD
ATOM     12  H   UNL     1       1.405   6.950  20.692  0.00  0.00    +0.000 HD
ENDROOT
BRANCH   1  17
ATOM     13  C   UNL     1      -3.346  12.874  24.102  0.00  0.00    +0.000 A 
ATOM     14  C   UNL     1      -3.007  14.155  24.556  0.00  0.00    +0.000 A 
ATOM     15  C   UNL     1      -1.916  14.827  24.013  0.00  0.00    +0.000 A 
ATOM     16  C   UNL     1      -1.139  14.220  23.024  0.00  0.00    +0.000 A 
ATOM     17  C   UNL     1      -1.439  12.928  22.569  0.00  0.00    +0.000 A 
ATOM     18  C   UNL     1      -2.549  12.267  23.119  0.00  0.00    +0.000 A 
BRANCH  13  19
ATOM     19  C   UNL     1      -4.532  12.147  24.673  0.00  0.00    +0.000 C 
BRANCH  19  23
ATOM     20  C   UNL     1      -7.914  13.720  24.118  0.00  0.00    +0.000 C 
ATOM     21  C   UNL     1      -6.764  12.772  23.899  0.00  0.00    +0.000 C 
ATOM     22  O   UNL     1      -6.791  11.885  23.055  0.00  0.00    +0.000 OA
ATOM     23  N   UNL     1      -5.701  12.996  24.736  0.00  0.00    +0.000 N 
ATOM     24  H   UNL     1      -5.739  13.723  25.438  0.00  0.00    +0.000 HD
ENDBRANCH  19  23
ENDBRANCH  13  19
ENDBRANCH   1  17
BRANCH   8  25
ATOM     25  C   UNL     1       2.724   6.513  19.179  0.00  0.00    +0.000 C 
BRANCH  25  26
ATOM     26  C   UNL     1       2.108   5.150  19.350  0.00  0.00    +0.000 A 
ATOM     27  C   UNL     1       1.913   4.298  18.257  0.00  0.00    +0.000 A 
ATOM     28  C   UNL     1       1.309   3.054  18.442  0.00  0.00    +0.000 A 
ATOM     29  C   UNL     1       0.895   2.657  19.714  0.00  0.00    +0.000 A 
ATOM     30  C   UNL     1       1.087   3.498  20.807  0.00  0.00    +0.000 A 
ATOM     31  C   UNL     1       1.690   4.740  20.624  0.00  0.00    +0.000 A 
ENDBRANCH  25  26
ENDBRANCH   8  25
TORSDOF 5
ENDMDL
MODEL 2
REMARK VINA RESULT:      -8.2      4.754     10.869
REMARK  Name = 
REMARK  6 active torsions:
REMARK  status: ('A' for Active; 'I' for Inactive)
REMARK    1  A    between atoms: C_1  and  C_2
REMARK    2  A    between atoms: N_4  and  C_5
REMARK    3  A    between atoms: C_5  and  C_6
REMARK    4  A    between atoms: C_10  and  C_11
REMARK    5  A    between atoms: N_18  and  C_19
REMARK    6  A    between atoms: C_19  and  C_20
REMARK                            x       y       z     vdW  Elec       q    Type
REMARK                         _______ _______ _______ _____ _____    ______ ____
ROOT
ATOM      1  C   UNL     1       2.692   6.774  18.897  0.00  0.00    +0.000 A 
ATOM      2  C   UNL     1       2.293   6.579  20.203  0.00  0.00    +0.000 A 
ATOM      3  S   UNL     1       1.369   7.904  20.740  0.00  0.00    +0.000 S 
ATOM      4  C   UNL     1       1.521   8.650  19.190  0.00  0.00    +0.000 A 
ATOM      5  N   UNL     1       0.895   9.797  18.839  0.00  0.00    +0.000 N 
ATOM      6  C   UNL     1      -0.101  10.493  19.444  0.00  0.00    +0.000 C 
ATOM      7  N   UNL     1      -0.547  10.339  20.646  0.00  0.00    +0.000 NA
ATOM      8  N   UNL     1      -0.634  11.445  18.633  0.00  0.00    +0.000 N 
ATOM      9  N   UNL     1       2.292   7.989  18.353  0.00  0.00    +0.000 NA
ATOM     10  H   UNL     1       1.223  10.207  17.974  0.00  0.00    +0.000 HD
ATOM     11  H   UNL     1      -0.024   9.586  21.097  0.00  0.00    +0.000 HD
ATOM     12  H   UNL     1      -0.952  11.080  17.739  0.00  0.00    +0.000 HD
ENDROOT
BRANCH   1  17
ATOM     13  C   UNL     1       5.508   5.205  16.935  0.00  0.00    +0.000 A 
ATOM     14  C   UNL     1       4.939   3.979  16.570  0.00  0.00    +0.000 A 
ATOM     15  C   UNL     1       3.634   3.671  16.946  0.00  0.00    +0.000 A 
ATOM     16  C   UNL     1       2.891   4.576  17.705  0.00  0.00    +0.000 A 
ATOM     17  C   UNL     1       3.444   5.800  18.107  0.00  0.00    +0.000 A 
ATOM     18  C   UNL     1       4.757   6.101  17.711  0.00  0.00    +0.000 A 
BRANCH  13  19
ATOM     19  C   UNL     1       6.912   5.552  16.521  0.00  0.00    +0.000 C 
BRANCH  19  23
ATOM     20  C   UNL     1       8.053   8.892  17.849  0.00  0.00    +0.000 C 
ATOM     21  C   UNL     1       7.803   7.407  17.840  0.00  0.00    +0.000 C 
ATOM     22  O   UNL     1       8.128   6.677  18.768  0.00  0.00    +0.000 OA
ATOM     23  N   UNL     1       7.189   6.960  16.697  0.00  0.00    +0.000 N 
ATOM     24  H   UNL     1       6.968   7.599  15.945  0.00  0.00    +0.000 HD
ENDBRANCH  19  23
ENDBRANCH  13  19
ENDBRANCH   1  17
BRANCH   8  25
ATOM     25  C   UNL     1      -1.585  12.397  19.184  0.00  0.00    +0.000 C 
BRANCH  25  26
ATOM     26  C   UNL     1      -2.963  12.035  18.698  0.00  0.00    +0.000 A 
ATOM     27  C   UNL     1      -4.093  12.240  19.499  0.00  0.00    +0.000 A 
ATOM     28  C   UNL     1      -5.354  11.863  19.035  0.00  0.00    +0.000 A 
ATOM     29  C   UNL     1      -5.492  11.278  17.776  0.00  0.00    +0.000 A 
ATOM     30  C   UNL     1      -4.373  11.073  16.973  0.00  0.00    +0.000 A 
ATOM     31  C   UNL     1      -3.114  11.448  17.434  0.00  0.00    +0.000 A 
ENDBRANCH  25  26
ENDBRANCH   8  25
TORSDOF 5
ENDMDL
MODEL 3
REMARK VINA RESULT:      -8.2      5.098      6.903
REMARK  Name = 
REMARK  6 active torsions:
REMARK  status: ('A' for Active; 'I' for Inactive)
REMARK    1  A    between atoms: C_1  and  C_2
REMARK    2  A    between atoms: N_4  and  C_5
REMARK    3  A    between atoms: C_5  and  C_6
REMARK    4  A    between atoms: C_10  and  C_11
REMARK    5  A    between atoms: N_18  and  C_19
REMARK    6  A    between atoms: C_19  and  C_20
REMARK                            x       y       z     vdW  Elec       q    Type
REMARK                         _______ _______ _______ _____ _____    ______ ____
ROOT
ATOM      1  C   UNL     1       1.541   9.237  18.661  0.00  0.00    +0.000 A 
ATOM      2  C   UNL     1       1.580   8.326  19.695  0.00  0.00    +0.000 A 
ATOM      3  S   UNL     1       2.632   7.043  19.310  0.00  0.00    +0.000 S 
ATOM      4  C   UNL     1       3.004   7.790  17.798  0.00  0.00    +0.000 A 
ATOM      5  N   UNL     1       3.933   7.322  16.934  0.00  0.00    +0.000 N 
ATOM      6  C   UNL     1       4.897   6.377  17.081  0.00  0.00    +0.000 C 
ATOM      7  N   UNL     1       5.014   5.520  18.040  0.00  0.00    +0.000 NA
ATOM      8  N   UNL     1       5.798   6.393  16.063  0.00  0.00    +0.000 N 
ATOM      9  N   UNL     1       2.314   8.886  17.560  0.00  0.00    +0.000 NA
ATOM     10  H   UNL     1       3.909   7.752  16.018  0.00  0.00    +0.000 HD
ATOM     11  H   UNL     1       4.248   5.660  18.702  0.00  0.00    +0.000 HD
ATOM     12  H   UNL     1       6.220   7.306  15.914  0.00  0.00    +0.000 HD
ENDROOT
BRANCH   1  17
ATOM     13  C   UNL     1      -1.305  11.683  18.262  0.00  0.00    +0.000 A 
ATOM     14  C   UNL     1      -0.709  12.871  18.702  0.00  0.00    +0.000 A 
ATOM     15  C   UNL     1       0.622  12.881  19.110  0.00  0.00    +0.000 A 
ATOM     16  C   UNL     1       1.367  11.700  19.100  0.00  0.00    +0.000 A 
ATOM     17  C   UNL     1       0.789  10.490  18.689  0.00  0.00    +0.000 A 
ATOM     18  C   UNL     1      -0.552  10.499  18.270  0.00  0.00    +0.000 A 
BRANCH  13  19
ATOM     19  C   UNL     1      -2.738  11.667  17.806  0.00  0.00    +0.000 C 
BRANCH  19  23
ATOM     20  C   UNL     1      -3.235  10.250  14.347  0.00  0.00    +0.000 C 
ATOM     21  C   UNL     1      -3.124  10.255  15.849  0.00  0.00    +0.000 C 
ATOM     22  O   UNL     1      -3.280   9.247  16.526  0.00  0.00    +0.000 OA
ATOM     23  N   UNL     1      -2.842  11.490  16.375  0.00  0.00    +0.000 N 
ATOM     24  H   UNL     1      -2.753  12.300  15.775  0.00  0.00    +0.000 HD
ENDBRANCH  19  23
ENDBRANCH  13  19
ENDBRANCH   1  17
BRANCH   8  25
ATOM     25  C   UNL     1       6.788   5.333  15.974  0.00  0.00    +0.000 C 
BRANCH  25  26
ATOM     26  C   UNL     1       6.824   4.827  14.556  0.00  0.00    +0.000 A 
ATOM     27  C   UNL     1       7.728   5.347  13.622  0.00  0.00    +0.000 A 
ATOM     28  C   UNL     1       7.715   4.882  12.306  0.00  0.00    +0.000 A 
ATOM     29  C   UNL     1       6.800   3.904  11.917  0.00  0.00    +0.000 A 
ATOM     30  C   UNL     1       5.899   3.380  12.841  0.00  0.00    +0.000 A 
ATOM     31  C   UNL     1       5.910   3.842  14.154  0.00  0.00    +0.000 A 
ENDBRANCH  25  26
ENDBRANCH   8  25
TORSDOF 5
ENDMDL
MODEL 4
REMARK VINA RESULT:      -8.2      4.631      6.943
REMARK  Name = 
REMARK  6 active torsions:
REMARK  status: ('A' for Active; 'I' for Inactive)
REMARK    1  A    between atoms: C_1  and  C_2
REMARK    2  A    between atoms: N_4  and  C_5
REMARK    3  A    between atoms: C_5  and  C_6
REMARK    4  A    between atoms: C_10  and  C_11
REMARK    5  A    between atoms: N_18  and  C_19
REMARK    6  A    between atoms: C_19  and  C_20
REMARK                            x       y       z     vdW  Elec       q    Type
REMARK                         _______ _______ _______ _____ _____    ______ ____
ROOT
ATOM      1  C   UNL     1       1.889   7.385  19.997  0.00  0.00    +0.000 A 
ATOM      2  C   UNL     1       1.900   6.148  20.606  0.00  0.00    +0.000 A 
ATOM      3  S   UNL     1       2.945   5.092  19.774  0.00  0.00    +0.000 S 
ATOM      4  C   UNL     1       3.352   6.352  18.666  0.00  0.00    +0.000 A 
ATOM      5  N   UNL     1       4.292   6.234  17.700  0.00  0.00    +0.000 N 
ATOM      6  C   UNL     1       5.242   5.289  17.488  0.00  0.00    +0.000 C 
ATOM      7  N   UNL     1       5.333   4.129  18.048  0.00  0.00    +0.000 NA
ATOM      8  N   UNL     1       6.162   5.677  16.564  0.00  0.00    +0.000 N 
ATOM      9  N   UNL     1       2.678   7.467  18.855  0.00  0.00    +0.000 NA
ATOM     10  H   UNL     1       4.289   6.982  17.018  0.00  0.00    +0.000 HD
ATOM     11  H   UNL     1       4.557   4.018  18.703  0.00  0.00    +0.000 HD
ATOM     12  H   UNL     1       6.596   6.570  16.780  0.00  0.00    +0.000 HD
ENDROOT
BRANCH   1  17
ATOM     13  C   UNL     1       0.016  10.661  20.017  0.00  0.00    +0.000 A 
ATOM     14  C   UNL     1      -0.261  10.810  21.381  0.00  0.00    +0.000 A 
ATOM     15  C   UNL     1       0.178   9.857  22.296  0.00  0.00    +0.000 A 
ATOM     16  C   UNL     1       0.882   8.734  21.855  0.00  0.00    +0.000 A 
ATOM     17  C   UNL     1       1.150   8.545  20.492  0.00  0.00    +0.000 A 
ATOM     18  C   UNL     1       0.710   9.521  19.583  0.00  0.00    +0.000 A 
BRANCH  13  19
ATOM     19  C   UNL     1      -0.442  11.693  19.024  0.00  0.00    +0.000 C 
BRANCH  19  23
ATOM     20  C   UNL     1      -2.500  10.309  16.183  0.00  0.00    +0.000 C 
ATOM     21  C   UNL     1      -2.215  10.917  17.532  0.00  0.00    +0.000 C 
ATOM     22  O   UNL     1      -3.102  11.233  18.314  0.00  0.00    +0.000 OA
ATOM     23  N   UNL     1      -0.878  11.088  17.785  0.00  0.00    +0.000 N 
ATOM     24  H   UNL     1      -0.184  10.840  17.092  0.00  0.00    +0.000 HD
ENDBRANCH  19  23
ENDBRANCH  13  19
ENDBRANCH   1  17
BRANCH   8  25
ATOM     25  C   UNL     1       7.141   4.714  16.089  0.00  0.00    +0.000 C 
BRANCH  25  26
ATOM     26  C   UNL     1       6.957   4.533  14.606  0.00  0.00    +0.000 A 
ATOM     27  C   UNL     1       6.005   3.643  14.095  0.00  0.00    +0.000 A 
ATOM     28  C   UNL     1       5.881   3.472  12.715  0.00  0.00    +0.000 A 
ATOM     29  C   UNL     1       6.706   4.181  11.843  0.00  0.00    +0.000 A 
ATOM     30  C   UNL     1       7.654   5.070  12.344  0.00  0.00    +0.000 A 
ATOM     31  C   UNL     1       7.780   5.243  13.720  0.00  0.00    +0.000 A 
ENDBRANCH  25  26
ENDBRANCH   8  25
TORSDOF 5
ENDMDL
MODEL 5
REMARK VINA RESULT:      -8.2      4.129     11.035
REMARK  Name = 
REMARK  6 active torsions:
REMARK  status: ('A' for Active; 'I' for Inactive)
REMARK    1  A    between atoms: C_1  and  C_2
REMARK    2  A    between atoms: N_4  and  C_5
REMARK    3  A    between atoms: C_5  and  C_6
REMARK    4  A    between atoms: C_10  and  C_11
REMARK    5  A    between atoms: N_18  and  C_19
REMARK    6  A    between atoms: C_19  and  C_20
REMARK                            x       y       z     vdW  Elec       q    Type
REMARK                         _______ _______ _______ _____ _____    ______ ____
ROOT
ATOM      1  C   UNL     1       2.354   7.442  19.039  0.00  0.00    +0.000 A 
ATOM      2  C   UNL     1       2.382   8.194  17.884  0.00  0.00    +0.000 A 
ATOM      3  S   UNL     1       1.582   9.678  18.127  0.00  0.00    +0.000 S 
ATOM      4  C   UNL     1       1.272   9.252  19.772  0.00  0.00    +0.000 A 
ATOM      5  N   UNL     1       0.702  10.084  20.673  0.00  0.00    +0.000 N 
ATOM      6  C   UNL     1       0.448  11.416  20.623  0.00  0.00    +0.000 C 
ATOM      7  N   UNL     1       0.490  12.185  19.586  0.00  0.00    +0.000 NA
ATOM      8  N   UNL     1       0.110  11.925  21.839  0.00  0.00    +0.000 N 
ATOM      9  N   UNL     1       1.664   8.036  20.091  0.00  0.00    +0.000 NA
ATOM     10  H   UNL     1       0.417   9.638  21.535  0.00  0.00    +0.000 HD
ATOM     11  H   UNL     1       0.756  11.626  18.773  0.00  0.00    +0.000 HD
ATOM     12  H   UNL     1       0.795  11.723  22.563  0.00  0.00    +0.000 HD
ENDROOT
BRANCH   1  17
ATOM     13  C   UNL     1       4.895   4.675  18.686  0.00  0.00    +0.000 A 
ATOM     14  C   UNL     1       4.304   3.661  19.448  0.00  0.00    +0.000 A 
ATOM     15  C   UNL     1       3.071   3.869  20.060  0.00  0.00    +0.000 A 
ATOM     16  C   UNL     1       2.424   5.100  19.933  0.00  0.00    +0.000 A 
ATOM     17  C   UNL     1       3.005   6.143  19.198  0.00  0.00    +0.000 A 
ATOM     18  C   UNL     1       4.244   5.914  18.577  0.00  0.00    +0.000 A 
BRANCH  13  19
ATOM     19  C   UNL     1       6.220   4.453  18.009  0.00  0.00    +0.000 C 
BRANCH  19  23
ATOM     20  C   UNL     1       6.412   4.016  14.269  0.00  0.00    +0.000 C 
ATOM     21  C   UNL     1       6.651   4.654  15.613  0.00  0.00    +0.000 C 
ATOM     22  O   UNL     1       7.321   5.669  15.751  0.00  0.00    +0.000 OA
ATOM     23  N   UNL     1       6.056   3.985  16.652  0.00  0.00    +0.000 N 
ATOM     24  H   UNL     1       5.537   3.132  16.489  0.00  0.00    +0.000 HD
ENDBRANCH  19  23
ENDBRANCH  13  19
ENDBRANCH   1  17
BRANCH   8  25
ATOM     25  C   UNL     1      -0.366  13.294  21.929  0.00  0.00    +0.000 C 
BRANCH  25  26
ATOM     26  C   UNL     1      -1.558  13.329  22.848  0.00  0.00    +0.000 A 
ATOM     27  C   UNL     1      -1.798  14.424  23.687  0.00  0.00    +0.000 A 
ATOM     28  C   UNL     1      -2.892  14.413  24.552  0.00  0.00    +0.000 A 
ATOM     29  C   UNL     1      -3.747  13.311  24.588  0.00  0.00    +0.000 A 
ATOM     30  C   UNL     1      -3.517  12.219  23.755  0.00  0.00    +0.000 A 
ATOM     31  C   UNL     1      -2.425  12.228  22.890  0.00  0.00    +0.000 A 
ENDBRANCH  25  26
ENDBRANCH   8  25
TORSDOF 5
ENDMDL
MODEL 6
REMARK VINA RESULT:      -8.1      4.600     10.755
REMARK  Name = 
REMARK  6 active torsions:
REMARK  status: ('A' for Active; 'I' for Inactive)
REMARK    1  A    between atoms: C_1  and  C_2
REMARK    2  A    between atoms: N_4  and  C_5
REMARK    3  A    between atoms: C_5  and  C_6
REMARK    4  A    between atoms: C_10  and  C_11
REMARK    5  A    between atoms: N_18  and  C_19
REMARK    6  A    between atoms: C_19  and  C_20
REMARK                            x       y       z     vdW  Elec       q    Type
REMARK                         _______ _______ _______ _____ _____    ______ ____
ROOT
ATOM      1  C   UNL     1       2.492   7.030  18.975  0.00  0.00    +0.000 A 
ATOM      2  C   UNL     1       2.170   6.884  20.307  0.00  0.00    +0.000 A 
ATOM      3  S   UNL     1       1.278   8.230  20.848  0.00  0.00    +0.000 S 
ATOM      4  C   UNL     1       1.341   8.919  19.266  0.00  0.00    +0.000 A 
ATOM      5  N   UNL     1       0.695  10.053  18.910  0.00  0.00    +0.000 N 
ATOM      6  C   UNL     1      -0.264  10.773  19.547  0.00  0.00    +0.000 C 
ATOM      7  N   UNL     1      -0.639  10.664  20.777  0.00  0.00    +0.000 NA
ATOM      8  N   UNL     1      -0.843  11.697  18.734  0.00  0.00    +0.000 N 
ATOM      9  N   UNL     1       2.062   8.226  18.410  0.00  0.00    +0.000 NA
ATOM     10  H   UNL     1       0.972  10.431  18.014  0.00  0.00    +0.000 HD
ATOM     11  H   UNL     1      -0.091   9.927  21.224  0.00  0.00    +0.000 HD
ATOM     12  H   UNL     1      -1.212  11.300  17.874  0.00  0.00    +0.000 HD
ENDROOT
BRANCH   1  17
ATOM     13  C   UNL     1       5.181   5.393  16.893  0.00  0.00    +0.000 A 
ATOM     14  C   UNL     1       4.599   4.148  16.623  0.00  0.00    +0.000 A 
ATOM     15  C   UNL     1       3.326   3.849  17.101  0.00  0.00    +0.000 A 
ATOM     16  C   UNL     1       2.628   4.783  17.869  0.00  0.00    +0.000 A 
ATOM     17  C   UNL     1       3.197   6.027  18.178  0.00  0.00    +0.000 A 
ATOM     18  C   UNL     1       4.477   6.318  17.680  0.00  0.00    +0.000 A 
BRANCH  13  19
ATOM     19  C   UNL     1       6.550   5.729  16.369  0.00  0.00    +0.000 C 
BRANCH  19  23
ATOM     20  C   UNL     1       8.016   8.843  17.909  0.00  0.00    +0.000 C 
ATOM     21  C   UNL     1       7.693   7.379  17.762  0.00  0.00    +0.000 C 
ATOM     22  O   UNL     1       8.100   6.532  18.547  0.00  0.00    +0.000 OA
ATOM     23  N   UNL     1       6.917   7.095  16.668  0.00  0.00    +0.000 N 
ATOM     24  H   UNL     1       6.632   7.828  16.031  0.00  0.00    +0.000 HD
ENDBRANCH  19  23
ENDBRANCH  13  19
ENDBRANCH   1  17
BRANCH   8  25
ATOM     25  C   UNL     1      -1.760  12.670  19.303  0.00  0.00    +0.000 C 
BRANCH  25  26
ATOM     26  C   UNL     1      -3.169  12.190  19.080  0.00  0.00    +0.000 A 
ATOM     27  C   UNL     1      -3.508  11.426  17.957  0.00  0.00    +0.000 A 
ATOM     28  C   UNL     1      -4.830  11.025  17.760  0.00  0.00    +0.000 A 
ATOM     29  C   UNL     1      -5.817  11.387  18.677  0.00  0.00    +0.000 A 
ATOM     30  C   UNL     1      -5.487  12.146  19.797  0.00  0.00    +0.000 A 
ATOM     31  C   UNL     1      -4.169  12.547  19.996  0.00  0.00    +0.000 A 
ENDBRANCH  25  26
ENDBRANCH   8  25
TORSDOF 5
ENDMDL
MODEL 7
REMARK VINA RESULT:      -8.1      4.871      6.691
REMARK  Name = 
REMARK  6 active torsions:
REMARK  status: ('A' for Active; 'I' for Inactive)
REMARK    1  A    between atoms: C_1  and  C_2
REMARK    2  A    between atoms: N_4  and  C_5
REMARK    3  A    between atoms: C_5  and  C_6
REMARK    4  A    between atoms: C_10  and  C_11
REMARK    5  A    between atoms: N_18  and  C_19
REMARK    6  A    between atoms: C_19  and  C_20
REMARK                            x       y       z     vdW  Elec       q    Type
REMARK                         _______ _______ _______ _____ _____    ______ ____
ROOT
ATOM      1  C   UNL     1       1.588   9.300  18.726  0.00  0.00    +0.000 A 
ATOM      2  C   UNL     1       1.550   8.331  19.705  0.00  0.00    +0.000 A 
ATOM      3  S   UNL     1       2.557   7.025  19.280  0.00  0.00    +0.000 S 
ATOM      4  C   UNL     1       3.016   7.840  17.828  0.00  0.00    +0.000 A 
ATOM      5  N   UNL     1       3.954   7.380  16.968  0.00  0.00    +0.000 N 
ATOM      6  C   UNL     1       4.868   6.385  17.091  0.00  0.00    +0.000 C 
ATOM      7  N   UNL     1       4.913   5.469  18.000  0.00  0.00    +0.000 NA
ATOM      8  N   UNL     1       5.805   6.417  16.106  0.00  0.00    +0.000 N 
ATOM      9  N   UNL     1       2.384   8.978  17.632  0.00  0.00    +0.000 NA
ATOM     10  H   UNL     1       3.981   7.863  16.079  0.00  0.00    +0.000 HD
ATOM     11  H   UNL     1       4.131   5.606  18.644  0.00  0.00    +0.000 HD
ATOM     12  H   UNL     1       6.272   7.317  16.026  0.00  0.00    +0.000 HD
ENDROOT
BRANCH   1  17
ATOM     13  C   UNL     1      -1.205  11.837  18.662  0.00  0.00    +0.000 A 
ATOM     14  C   UNL     1      -0.506  13.022  18.923  0.00  0.00    +0.000 A 
ATOM     15  C   UNL     1       0.874  12.998  19.101  0.00  0.00    +0.000 A 
ATOM     16  C   UNL     1       1.569  11.789  19.037  0.00  0.00    +0.000 A 
ATOM     17  C   UNL     1       0.892  10.584  18.804  0.00  0.00    +0.000 A 
ATOM     18  C   UNL     1      -0.499  10.625  18.616  0.00  0.00    +0.000 A 
BRANCH  13  19
ATOM     19  C   UNL     1      -2.695  11.856  18.454  0.00  0.00    +0.000 C 
BRANCH  19  23
ATOM     20  C   UNL     1      -3.766  10.498  15.104  0.00  0.00    +0.000 C 
ATOM     21  C   UNL     1      -3.397  10.476  16.564  0.00  0.00    +0.000 C 
ATOM     22  O   UNL     1      -3.423   9.452  17.236  0.00  0.00    +0.000 OA
ATOM     23  N   UNL     1      -3.043  11.704  17.060  0.00  0.00    +0.000 N 
ATOM     24  H   UNL     1      -3.067  12.527  16.470  0.00  0.00    +0.000 HD
ENDBRANCH  19  23
ENDBRANCH  13  19
ENDBRANCH   1  17
BRANCH   8  25
ATOM     25  C   UNL     1       6.749   5.319  15.986  0.00  0.00    +0.000 C 
BRANCH  25  26
ATOM     26  C   UNL     1       6.738   4.829  14.563  0.00  0.00    +0.000 A 
ATOM     27  C   UNL     1       5.823   3.860  14.135  0.00  0.00    +0.000 A 
ATOM     28  C   UNL     1       5.860   3.401  12.818  0.00  0.00    +0.000 A 
ATOM     29  C   UNL     1       6.809   3.900  11.926  0.00  0.00    +0.000 A 
ATOM     30  C   UNL     1       7.722   4.865  12.345  0.00  0.00    +0.000 A 
ATOM     31  C   UNL     1       7.687   5.326  13.658  0.00  0.00    +0.000 A 
ENDBRANCH  25  26
ENDBRANCH   8  25
TORSDOF 5
ENDMDL
MODEL 8
REMARK VINA RESULT:      -8.0      4.292     11.023
REMARK  Name = 
REMARK  6 active torsions:
REMARK  status: ('A' for Active; 'I' for Inactive)
REMARK    1  A    between atoms: C_1  and  C_2
REMARK    2  A    between atoms: N_4  and  C_5
REMARK    3  A    between atoms: C_5  and  C_6
REMARK    4  A    between atoms: C_10  and  C_11
REMARK    5  A    between atoms: N_18  and  C_19
REMARK    6  A    between atoms: C_19  and  C_20
REMARK                            x       y       z     vdW  Elec       q    Type
REMARK                         _______ _______ _______ _____ _____    ______ ____
ROOT
ATOM      1  C   UNL     1       2.487   7.371  18.923  0.00  0.00    +0.000 A 
ATOM      2  C   UNL     1       2.537   8.158  17.793  0.00  0.00    +0.000 A 
ATOM      3  S   UNL     1       1.686   9.611  18.049  0.00  0.00    +0.000 S 
ATOM      4  C   UNL     1       1.326   9.126  19.666  0.00  0.00    +0.000 A 
ATOM      5  N   UNL     1       0.698   9.914  20.568  0.00  0.00    +0.000 N 
ATOM      6  C   UNL     1       0.407  11.240  20.549  0.00  0.00    +0.000 C 
ATOM      7  N   UNL     1       0.467  12.040  19.538  0.00  0.00    +0.000 NA
ATOM      8  N   UNL     1       0.008  11.700  21.765  0.00  0.00    +0.000 N 
ATOM      9  N   UNL     1       1.741   7.913  19.965  0.00  0.00    +0.000 NA
ATOM     10  H   UNL     1       0.393   9.433  21.405  0.00  0.00    +0.000 HD
ATOM     11  H   UNL     1       0.780  11.514  18.720  0.00  0.00    +0.000 HD
ATOM     12  H   UNL     1       0.671  11.496  22.509  0.00  0.00    +0.000 HD
ENDROOT
BRANCH   1  17
ATOM     13  C   UNL     1       5.056   4.642  18.481  0.00  0.00    +0.000 A 
ATOM     14  C   UNL     1       4.524   3.631  19.291  0.00  0.00    +0.000 A 
ATOM     15  C   UNL     1       3.322   3.829  19.965  0.00  0.00    +0.000 A 
ATOM     16  C   UNL     1       2.647   5.047  19.851  0.00  0.00    +0.000 A 
ATOM     17  C   UNL     1       3.169   6.086  19.069  0.00  0.00    +0.000 A 
ATOM     18  C   UNL     1       4.377   5.867  18.387  0.00  0.00    +0.000 A 
BRANCH  13  19
ATOM     19  C   UNL     1       6.346   4.430  17.739  0.00  0.00    +0.000 C 
BRANCH  19  23
ATOM     20  C   UNL     1       6.385   3.948  13.999  0.00  0.00    +0.000 C 
ATOM     21  C   UNL     1       6.692   4.593  15.325  0.00  0.00    +0.000 C 
ATOM     22  O   UNL     1       7.396   5.590  15.427  0.00  0.00    +0.000 OA
ATOM     23  N   UNL     1       6.117   3.953  16.393  0.00  0.00    +0.000 N 
ATOM     24  H   UNL     1       5.569   3.114  16.260  0.00  0.00    +0.000 HD
ENDBRANCH  19  23
ENDBRANCH  13  19
ENDBRANCH   1  17
BRANCH   8  25
ATOM     25  C   UNL     1      -0.511  13.053  21.877  0.00  0.00    +0.000 C 
BRANCH  25  26
ATOM     26  C   UNL     1      -2.005  12.982  22.053  0.00  0.00    +0.000 A 
ATOM     27  C   UNL     1      -2.580  12.818  23.319  0.00  0.00    +0.000 A 
ATOM     28  C   UNL     1      -3.966  12.721  23.446  0.00  0.00    +0.000 A 
ATOM     29  C   UNL     1      -4.781  12.783  22.316  0.00  0.00    +0.000 A 
ATOM     30  C   UNL     1      -4.216  12.948  21.054  0.00  0.00    +0.000 A 
ATOM     31  C   UNL     1      -2.833  13.045  20.924  0.00  0.00    +0.000 A 
ENDBRANCH  25  26
ENDBRANCH   8  25
TORSDOF 5
ENDMDL
MODEL 9
REMARK VINA RESULT:      -8.0      5.448     11.661
REMARK  Name = 
REMARK  6 active torsions:
REMARK  status: ('A' for Active; 'I' for Inactive)
REMARK    1  A    between atoms: C_1  and  C_2
REMARK    2  A    between atoms: N_4  and  C_5
REMARK    3  A    between atoms: C_5  and  C_6
REMARK    4  A    between atoms: C_10  and  C_11
REMARK    5  A    between atoms: N_18  and  C_19
REMARK    6  A    between atoms: C_19  and  C_20
REMARK                            x       y       z     vdW  Elec       q    Type
REMARK                         _______ _______ _______ _____ _____    ______ ____
ROOT
ATOM      1  C   UNL     1       2.251   6.900  18.976  0.00  0.00    +0.000 A 
ATOM      2  C   UNL     1       1.901   6.932  20.310  0.00  0.00    +0.000 A 
ATOM      3  S   UNL     1       1.336   8.482  20.733  0.00  0.00    +0.000 S 
ATOM      4  C   UNL     1       1.556   9.016  19.106  0.00  0.00    +0.000 A 
ATOM      5  N   UNL     1       1.185  10.237  18.655  0.00  0.00    +0.000 N 
ATOM      6  C   UNL     1       0.412  11.201  19.218  0.00  0.00    +0.000 C 
ATOM      7  N   UNL     1       0.019  11.273  20.445  0.00  0.00    +0.000 NA
ATOM      8  N   UNL     1       0.060  12.166  18.328  0.00  0.00    +0.000 N 
ATOM      9  N   UNL     1       2.104   8.116  18.317  0.00  0.00    +0.000 NA
ATOM     10  H   UNL     1       1.543  10.473  17.739  0.00  0.00    +0.000 HD
ATOM     11  H   UNL     1       0.384  10.467  20.956  0.00  0.00    +0.000 HD
ATOM     12  H   UNL     1      -0.388  11.799  17.492  0.00  0.00    +0.000 HD
ENDROOT
BRANCH   1  17
ATOM     13  C   UNL     1       4.479   4.572  17.012  0.00  0.00    +0.000 A 
ATOM     14  C   UNL     1       3.655   3.448  16.882  0.00  0.00    +0.000 A 
ATOM     15  C   UNL     1       2.369   3.454  17.415  0.00  0.00    +0.000 A 
ATOM     16  C   UNL     1       1.899   4.577  18.101  0.00  0.00    +0.000 A 
ATOM     17  C   UNL     1       2.712   5.706  18.270  0.00  0.00    +0.000 A 
ATOM     18  C   UNL     1       4.003   5.689  17.717  0.00  0.00    +0.000 A 
BRANCH  13  19
ATOM     19  C   UNL     1       5.864   4.579  16.427  0.00  0.00    +0.000 C 
BRANCH  19  23
ATOM     20  C   UNL     1       6.687   3.864  12.817  0.00  0.00    +0.000 C 
ATOM     21  C   UNL     1       6.782   4.535  14.162  0.00  0.00    +0.000 C 
ATOM     22  O   UNL     1       7.598   5.415  14.405  0.00  0.00    +0.000 OA
ATOM     23  N   UNL     1       5.878   4.060  15.077  0.00  0.00    +0.000 N 
ATOM     24  H   UNL     1       5.243   3.309  14.837  0.00  0.00    +0.000 HD
ENDBRANCH  19  23
ENDBRANCH  13  19
ENDBRANCH   1  17
BRANCH   8  25
ATOM     25  C   UNL     1      -0.615  13.362  18.806  0.00  0.00    +0.000 C 
BRANCH  25  26
ATOM     26  C   UNL     1       0.340  14.522  18.714  0.00  0.00    +0.000 A 
ATOM     27  C   UNL     1      -0.112  15.844  18.797  0.00  0.00    +0.000 A 
ATOM     28  C   UNL     1       0.793  16.899  18.674  0.00  0.00    +0.000 A 
ATOM     29  C   UNL     1       2.148  16.641  18.465  0.00  0.00    +0.000 A 
ATOM     30  C   UNL     1       2.606  15.328  18.385  0.00  0.00    +0.000 A 
ATOM     31  C   UNL     1       1.705  14.274  18.507  0.00  0.00    +0.000 A 
ENDBRANCH  25  26
ENDBRANCH   8  25
TORSDOF 5
ENDMDL
