MODEL 1
REMARK VINA RESULT:      -7.4      0.000      0.000
REMARK  Name = 
REMARK  13 active torsions:
REMARK  status: ('A' for Active; 'I' for Inactive)
REMARK    1  A    between atoms: C_1  and  C_2
REMARK    2  A    between atoms: C_2  and  C_3
REMARK    3  A    between atoms: C_3  and  C_4
REMARK    4  A    between atoms: C_4  and  C_5
REMARK    5  A    between atoms: C_12  and  O_13
REMARK    6  A    between atoms: O_13  and  C_14
REMARK    7  A    between atoms: C_15  and  O_16
REMARK    8  A    between atoms: O_16  and  C_17
REMARK    9  A    between atoms: C_20  and  C_21
REMARK   10  A    between atoms: C_21  and  O_22
REMARK   11  A    between atoms: O_22  and  C_23
REMARK   12  A    between atoms: C_26  and  O_27
REMARK   13  A    between atoms: O_27  and  C_28
REMARK                            x       y       z     vdW  Elec       q    Type
REMARK                         _______ _______ _______ _____ _____    ______ ____
ROOT
ATOM      1  C   UNL     1       3.549   2.522  19.159  0.00  0.00    +0.000 C 
ATOM      2  O   UNL     1       2.552   2.008  18.654  0.00  0.00    +0.000 OA
ATOM      3  N   UNL     1       4.289   3.490  18.489  0.00  0.00    +0.000 N 
ATOM      4  C   UNL     1       5.480   4.143  19.054  0.00  0.00    +0.000 C 
ATOM      5  C   UNL     1       6.008   5.341  18.258  0.00  0.00    +0.000 C 
ATOM      6  C   UNL     1       6.097   4.988  16.801  0.00  0.00    +0.000 A 
ATOM      7  C   UNL     1       7.138   5.427  15.985  0.00  0.00    +0.000 A 
ATOM      8  C   UNL     1       7.207   5.057  14.630  0.00  0.00    +0.000 A 
ATOM      9  C   UNL     1       6.209   4.231  14.081  0.00  0.00    +0.000 A 
ATOM     10  C   UNL     1       5.145   3.828  14.901  0.00  0.00    +0.000 A 
ATOM     11  C   UNL     1       5.077   4.209  16.250  0.00  0.00    +0.000 A 
ATOM     12  C   UNL     1       3.884   3.820  17.105  0.00  0.00    +0.000 C 
ENDROOT
BRANCH   8  13
ATOM     13  O   UNL     1       8.310   5.592  14.014  0.00  0.00    +0.000 OA
ATOM     14  C   UNL     1       8.280   5.788  12.608  0.00  0.00    +0.000 C 
ENDBRANCH   8  13
BRANCH   9  15
ATOM     15  O   UNL     1       6.315   3.858  12.769  0.00  0.00    +0.000 OA
ATOM     16  C   UNL     1       5.211   3.203  12.156  0.00  0.00    +0.000 C 
ENDBRANCH   9  15
BRANCH   1  17
ATOM     17  C   UNL     1       3.977   2.168  20.575  0.00  0.00    +0.000 C 
BRANCH  17  18
ATOM     18  C   UNL     1       2.819   2.302  21.566  0.00  0.00    +0.000 C 
BRANCH  18  20
ATOM     19  C   UNL     1       0.932   3.782  20.802  0.00  0.00    +0.000 C 
ATOM     20  C   UNL     1       2.247   3.719  21.561  0.00  0.00    +0.000 C 
ENDBRANCH  18  20
ENDBRANCH  17  18
ENDBRANCH   1  17
BRANCH  12  21
ATOM     21  C   UNL     1       2.804   4.928  17.114  0.00  0.00    +0.000 C 
BRANCH  21  22
ATOM     22  O   UNL     1       3.402   6.222  17.270  0.00  0.00    +0.000 OA
BRANCH  22  23
ATOM     23  C   UNL     1       2.767   7.038  18.167  0.00  0.00    +0.000 A 
ATOM     24  C   UNL     1       2.322   8.263  17.672  0.00  0.00    +0.000 A 
ATOM     25  C   UNL     1       1.647   9.157  18.508  0.00  0.00    +0.000 A 
ATOM     26  C   UNL     1       1.383   8.819  19.838  0.00  0.00    +0.000 A 
ATOM     27  C   UNL     1       1.827   7.593  20.332  0.00  0.00    +0.000 A 
ATOM     28  C   UNL     1       2.512   6.705  19.498  0.00  0.00    +0.000 A 
BRANCH  26  29
ATOM     29  O   UNL     1       0.725   9.767  20.571  0.00  0.00    +0.000 OA
ATOM     30  C   UNL     1       0.073  10.780  19.815  0.00  0.00    +0.000 C 
ENDBRANCH  26  29
ENDBRANCH  22  23
ENDBRANCH  21  22
ENDBRANCH  12  21
TORSDOF 9
ENDMDL
MODEL 2
REMARK VINA RESULT:      -7.3      0.462      1.042
REMARK  Name = 
REMARK  13 active torsions:
REMARK  status: ('A' for Active; 'I' for Inactive)
REMARK    1  A    between atoms: C_1  and  C_2
REMARK    2  A    between atoms: C_2  and  C_3
REMARK    3  A    between atoms: C_3  and  C_4
REMARK    4  A    between atoms: C_4  and  C_5
REMARK    5  A    between atoms: C_12  and  O_13
REMARK    6  A    between atoms: O_13  and  C_14
REMARK    7  A    between atoms: C_15  and  O_16
REMARK    8  A    between atoms: O_16  and  C_17
REMARK    9  A    between atoms: C_20  and  C_21
REMARK   10  A    between atoms: C_21  and  O_22
REMARK   11  A    between atoms: O_22  and  C_23
REMARK   12  A    between atoms: C_26  and  O_27
REMARK   13  A    between atoms: O_27  and  C_28
REMARK                            x       y       z     vdW  Elec       q    Type
REMARK                         _______ _______ _______ _____ _____    ______ ____
ROOT
ATOM      1  C   UNL     1       3.539   2.556  19.097  0.00  0.00    +0.000 C 
ATOM      2  O   UNL     1       2.531   2.074  18.582  0.00  0.00    +0.000 OA
ATOM      3  N   UNL     1       4.299   3.523  18.448  0.00  0.00    +0.000 N 
ATOM      4  C   UNL     1       5.504   4.138  19.026  0.00  0.00    +0.000 C 
ATOM      5  C   UNL     1       6.057   5.342  18.257  0.00  0.00    +0.000 C 
ATOM      6  C   UNL     1       6.139   5.019  16.793  0.00  0.00    +0.000 A 
ATOM      7  C   UNL     1       7.189   5.454  15.985  0.00  0.00    +0.000 A 
ATOM      8  C   UNL     1       7.250   5.112  14.623  0.00  0.00    +0.000 A 
ATOM      9  C   UNL     1       6.234   4.319  14.057  0.00  0.00    +0.000 A 
ATOM     10  C   UNL     1       5.162   3.921  14.868  0.00  0.00    +0.000 A 
ATOM     11  C   UNL     1       5.102   4.274  16.225  0.00  0.00    +0.000 A 
ATOM     12  C   UNL     1       3.901   3.892  17.072  0.00  0.00    +0.000 C 
ENDROOT
BRANCH   8  13
ATOM     13  O   UNL     1       8.363   5.637  14.018  0.00  0.00    +0.000 OA
ATOM     14  C   UNL     1       8.359   5.808  12.609  0.00  0.00    +0.000 C 
ENDBRANCH   8  13
BRANCH   9  15
ATOM     15  O   UNL     1       6.332   3.973  12.737  0.00  0.00    +0.000 OA
ATOM     16  C   UNL     1       5.579   2.861  12.267  0.00  0.00    +0.000 C 
ENDBRANCH   9  15
BRANCH   1  17
ATOM     17  C   UNL     1       3.960   2.162  20.505  0.00  0.00    +0.000 C 
BRANCH  17  18
ATOM     18  C   UNL     1       2.815   2.331  21.506  0.00  0.00    +0.000 C 
BRANCH  18  20
ATOM     19  C   UNL     1       0.958   3.881  20.809  0.00  0.00    +0.000 C 
ATOM     20  C   UNL     1       2.298   3.769  21.517  0.00  0.00    +0.000 C 
ENDBRANCH  18  20
ENDBRANCH  17  18
ENDBRANCH   1  17
BRANCH  12  21
ATOM     21  C   UNL     1       2.845   5.021  17.106  0.00  0.00    +0.000 C 
BRANCH  21  22
ATOM     22  O   UNL     1       3.467   6.295  17.323  0.00  0.00    +0.000 OA
BRANCH  22  23
ATOM     23  C   UNL     1       2.746   7.155  18.107  0.00  0.00    +0.000 A 
ATOM     24  C   UNL     1       2.558   6.763  19.432  0.00  0.00    +0.000 A 
ATOM     25  C   UNL     1       1.850   7.584  20.314  0.00  0.00    +0.000 A 
ATOM     26  C   UNL     1       1.353   8.818  19.887  0.00  0.00    +0.000 A 
ATOM     27  C   UNL     1       1.542   9.210  18.562  0.00  0.00    +0.000 A 
ATOM     28  C   UNL     1       2.241   8.382  17.678  0.00  0.00    +0.000 A 
BRANCH  26  29
ATOM     29  O   UNL     1       0.669   9.539  20.827  0.00  0.00    +0.000 OA
ATOM     30  C   UNL     1       0.994   9.242  22.180  0.00  0.00    +0.000 C 
ENDBRANCH  26  29
ENDBRANCH  22  23
ENDBRANCH  21  22
ENDBRANCH  12  21
TORSDOF 9
ENDMDL
MODEL 3
REMARK VINA RESULT:      -7.2      3.026      7.922
REMARK  Name = 
REMARK  13 active torsions:
REMARK  status: ('A' for Active; 'I' for Inactive)
REMARK    1  A    between atoms: C_1  and  C_2
REMARK    2  A    between atoms: C_2  and  C_3
REMARK    3  A    between atoms: C_3  and  C_4
REMARK    4  A    between atoms: C_4  and  C_5
REMARK    5  A    between atoms: C_12  and  O_13
REMARK    6  A    between atoms: O_13  and  C_14
REMARK    7  A    between atoms: C_15  and  O_16
REMARK    8  A    between atoms: O_16  and  C_17
REMARK    9  A    between atoms: C_20  and  C_21
REMARK   10  A    between atoms: C_21  and  O_22
REMARK   11  A    between atoms: O_22  and  C_23
REMARK   12  A    between atoms: C_26  and  O_27
REMARK   13  A    between atoms: O_27  and  C_28
REMARK                            x       y       z     vdW  Elec       q    Type
REMARK                         _______ _______ _______ _____ _____    ______ ____
ROOT
ATOM      1  C   UNL     1       7.588   8.527  17.867  0.00  0.00    +0.000 C 
ATOM      2  O   UNL     1       6.947   9.458  17.381  0.00  0.00    +0.000 OA
ATOM      3  N   UNL     1       7.107   7.222  17.849  0.00  0.00    +0.000 N 
ATOM      4  C   UNL     1       7.840   6.074  18.405  0.00  0.00    +0.000 C 
ATOM      5  C   UNL     1       7.249   4.699  18.075  0.00  0.00    +0.000 C 
ATOM      6  C   UNL     1       5.770   4.704  18.332  0.00  0.00    +0.000 A 
ATOM      7  C   UNL     1       5.098   3.608  18.871  0.00  0.00    +0.000 A 
ATOM      8  C   UNL     1       3.716   3.654  19.124  0.00  0.00    +0.000 A 
ATOM      9  C   UNL     1       2.990   4.822  18.826  0.00  0.00    +0.000 A 
ATOM     10  C   UNL     1       3.668   5.904  18.247  0.00  0.00    +0.000 A 
ATOM     11  C   UNL     1       5.046   5.849  17.987  0.00  0.00    +0.000 A 
ATOM     12  C   UNL     1       5.752   7.003  17.298  0.00  0.00    +0.000 C 
ENDROOT
BRANCH   8  13
ATOM     13  O   UNL     1       3.259   2.476  19.657  0.00  0.00    +0.000 OA
ATOM     14  C   UNL     1       2.538   1.581  18.824  0.00  0.00    +0.000 C 
ENDBRANCH   8  13
BRANCH   9  15
ATOM     15  O   UNL     1       1.652   4.854  19.111  0.00  0.00    +0.000 OA
ATOM     16  C   UNL     1       1.248   5.037  20.462  0.00  0.00    +0.000 C 
ENDBRANCH   9  15
BRANCH   1  17
ATOM     17  C   UNL     1       8.973   8.755  18.452  0.00  0.00    +0.000 C 
BRANCH  17  18
ATOM     18  C   UNL     1       9.089  10.131  19.112  0.00  0.00    +0.000 C 
BRANCH  18  20
ATOM     19  C   UNL     1      10.983  11.637  18.420  0.00  0.00    +0.000 C 
ATOM     20  C   UNL     1       9.565  11.186  18.114  0.00  0.00    +0.000 C 
ENDBRANCH  18  20
ENDBRANCH  17  18
ENDBRANCH   1  17
BRANCH  12  21
ATOM     21  C   UNL     1       5.824   6.794  15.767  0.00  0.00    +0.000 C 
BRANCH  21  22
ATOM     22  O   UNL     1       6.938   5.960  15.418  0.00  0.00    +0.000 OA
BRANCH  22  23
ATOM     23  C   UNL     1       6.692   5.077  14.402  0.00  0.00    +0.000 A 
ATOM     24  C   UNL     1       5.537   4.307  14.527  0.00  0.00    +0.000 A 
ATOM     25  C   UNL     1       5.192   3.389  13.530  0.00  0.00    +0.000 A 
ATOM     26  C   UNL     1       5.984   3.257  12.386  0.00  0.00    +0.000 A 
ATOM     27  C   UNL     1       7.139   4.028  12.262  0.00  0.00    +0.000 A 
ATOM     28  C   UNL     1       7.488   4.937  13.265  0.00  0.00    +0.000 A 
BRANCH  26  29
ATOM     29  O   UNL     1       5.562   2.326  11.478  0.00  0.00    +0.000 OA
ATOM     30  C   UNL     1       6.532   1.355  11.103  0.00  0.00    +0.000 C 
ENDBRANCH  26  29
ENDBRANCH  22  23
ENDBRANCH  21  22
ENDBRANCH  12  21
TORSDOF 9
ENDMDL
MODEL 4
REMARK VINA RESULT:      -7.1      4.072      9.661
REMARK  Name = 
REMARK  13 active torsions:
REMARK  status: ('A' for Active; 'I' for Inactive)
REMARK    1  A    between atoms: C_1  and  C_2
REMARK    2  A    between atoms: C_2  and  C_3
REMARK    3  A    between atoms: C_3  and  C_4
REMARK    4  A    between atoms: C_4  and  C_5
REMARK    5  A    between atoms: C_12  and  O_13
REMARK    6  A    between atoms: O_13  and  C_14
REMARK    7  A    between atoms: C_15  and  O_16
REMARK    8  A    between atoms: O_16  and  C_17
REMARK    9  A    between atoms: C_20  and  C_21
REMARK   10  A    between atoms: C_21  and  O_22
REMARK   11  A    between atoms: O_22  and  C_23
REMARK   12  A    between atoms: C_26  and  O_27
REMARK   13  A    between atoms: O_27  and  C_28
REMARK                            x       y       z     vdW  Elec       q    Type
REMARK                         _______ _______ _______ _____ _____    ______ ____
ROOT
ATOM      1  C   UNL     1       1.975   8.693  18.428  0.00  0.00    +0.000 C 
ATOM      2  O   UNL     1       2.093   9.186  17.307  0.00  0.00    +0.000 OA
ATOM      3  N   UNL     1       1.096   9.219  19.368  0.00  0.00    +0.000 N 
ATOM      4  C   UNL     1       0.910   8.660  20.715  0.00  0.00    +0.000 C 
ATOM      5  C   UNL     1      -0.268   9.239  21.507  0.00  0.00    +0.000 C 
ATOM      6  C   UNL     1      -0.248  10.738  21.430  0.00  0.00    +0.000 A 
ATOM      7  C   UNL     1      -0.588  11.550  22.511  0.00  0.00    +0.000 A 
ATOM      8  C   UNL     1      -0.533  12.951  22.415  0.00  0.00    +0.000 A 
ATOM      9  C   UNL     1      -0.132  13.552  21.207  0.00  0.00    +0.000 A 
ATOM     10  C   UNL     1       0.169  12.727  20.114  0.00  0.00    +0.000 A 
ATOM     11  C   UNL     1       0.103  11.329  20.213  0.00  0.00    +0.000 A 
ATOM     12  C   UNL     1       0.366  10.453  19.002  0.00  0.00    +0.000 C 
ENDROOT
BRANCH   8  13
ATOM     13  O   UNL     1      -0.902  13.555  23.590  0.00  0.00    +0.000 OA
ATOM     14  C   UNL     1      -2.244  13.990  23.744  0.00  0.00    +0.000 C 
ENDBRANCH   8  13
BRANCH   9  15
ATOM     15  O   UNL     1      -0.056  14.917  21.148  0.00  0.00    +0.000 OA
ATOM     16  C   UNL     1       1.100  15.510  20.569  0.00  0.00    +0.000 C 
ENDBRANCH   9  15
BRANCH   1  17
ATOM     17  C   UNL     1       2.741   7.436  18.812  0.00  0.00    +0.000 C 
BRANCH  17  18
ATOM     18  C   UNL     1       2.197   6.201  18.091  0.00  0.00    +0.000 C 
BRANCH  18  20
ATOM     19  C   UNL     1       4.497   6.098  17.072  0.00  0.00    +0.000 C 
ATOM     20  C   UNL     1       3.331   5.291  17.619  0.00  0.00    +0.000 C 
ENDBRANCH  18  20
ENDBRANCH  17  18
ENDBRANCH   1  17
BRANCH  12  21
ATOM     21  C   UNL     1      -0.944  10.099  18.260  0.00  0.00    +0.000 C 
BRANCH  21  22
ATOM     22  O   UNL     1      -1.488  11.253  17.605  0.00  0.00    +0.000 OA
BRANCH  22  23
ATOM     23  C   UNL     1      -2.784  11.540  17.940  0.00  0.00    +0.000 A 
ATOM     24  C   UNL     1      -3.744  11.257  16.969  0.00  0.00    +0.000 A 
ATOM     25  C   UNL     1      -5.097  11.499  17.226  0.00  0.00    +0.000 A 
ATOM     26  C   UNL     1      -5.503  11.996  18.467  0.00  0.00    +0.000 A 
ATOM     27  C   UNL     1      -4.542  12.279  19.437  0.00  0.00    +0.000 A 
ATOM     28  C   UNL     1      -3.188  12.046  19.175  0.00  0.00    +0.000 A 
BRANCH  26  29
ATOM     29  O   UNL     1      -6.846  12.205  18.611  0.00  0.00    +0.000 OA
ATOM     30  C   UNL     1      -7.448  11.562  19.727  0.00  0.00    +0.000 C 
ENDBRANCH  26  29
ENDBRANCH  22  23
ENDBRANCH  21  22
ENDBRANCH  12  21
TORSDOF 9
ENDMDL
MODEL 5
REMARK VINA RESULT:      -7.1      4.282      9.286
REMARK  Name = 
REMARK  13 active torsions:
REMARK  status: ('A' for Active; 'I' for Inactive)
REMARK    1  A    between atoms: C_1  and  C_2
REMARK    2  A    between atoms: C_2  and  C_3
REMARK    3  A    between atoms: C_3  and  C_4
REMARK    4  A    between atoms: C_4  and  C_5
REMARK    5  A    between atoms: C_12  and  O_13
REMARK    6  A    between atoms: O_13  and  C_14
REMARK    7  A    between atoms: C_15  and  O_16
REMARK    8  A    between atoms: O_16  and  C_17
REMARK    9  A    between atoms: C_20  and  C_21
REMARK   10  A    between atoms: C_21  and  O_22
REMARK   11  A    between atoms: O_22  and  C_23
REMARK   12  A    between atoms: C_26  and  O_27
REMARK   13  A    between atoms: O_27  and  C_28
REMARK                            x       y       z     vdW  Elec       q    Type
REMARK                         _______ _______ _______ _____ _____    ______ ____
ROOT
ATOM      1  C   UNL     1       2.063   8.251  18.647  0.00  0.00    +0.000 C 
ATOM      2  O   UNL     1       2.317   8.560  17.483  0.00  0.00    +0.000 OA
ATOM      3  N   UNL     1       1.224   9.025  19.441  0.00  0.00    +0.000 N 
ATOM      4  C   UNL     1       0.880   8.692  20.832  0.00  0.00    +0.000 C 
ATOM      5  C   UNL     1      -0.238   9.539  21.450  0.00  0.00    +0.000 C 
ATOM      6  C   UNL     1       0.015  10.994  21.179  0.00  0.00    +0.000 A 
ATOM      7  C   UNL     1      -0.257  11.990  22.117  0.00  0.00    +0.000 A 
ATOM      8  C   UNL     1       0.015  13.341  21.843  0.00  0.00    +0.000 A 
ATOM      9  C   UNL     1       0.569  13.704  20.601  0.00  0.00    +0.000 A 
ATOM     10  C   UNL     1       0.802  12.699  19.651  0.00  0.00    +0.000 A 
ATOM     11  C   UNL     1       0.518  11.353  19.926  0.00  0.00    +0.000 A 
ATOM     12  C   UNL     1       0.712  10.287  18.863  0.00  0.00    +0.000 C 
ENDROOT
BRANCH   8  13
ATOM     13  O   UNL     1      -0.322  14.151  22.898  0.00  0.00    +0.000 OA
ATOM     14  C   UNL     1      -1.553  13.926  23.567  0.00  0.00    +0.000 C 
ENDBRANCH   8  13
BRANCH   9  15
ATOM     15  O   UNL     1       0.856  15.022  20.370  0.00  0.00    +0.000 OA
ATOM     16  C   UNL     1       2.206  15.455  20.485  0.00  0.00    +0.000 C 
ENDBRANCH   9  15
BRANCH   1  17
ATOM     17  C   UNL     1       2.606   6.963  19.248  0.00  0.00    +0.000 C 
BRANCH  17  18
ATOM     18  C   UNL     1       2.636   5.829  18.223  0.00  0.00    +0.000 C 
BRANCH  18  20
ATOM     19  C   UNL     1       1.597   4.691  20.213  0.00  0.00    +0.000 C 
ATOM     20  C   UNL     1       1.851   4.614  18.717  0.00  0.00    +0.000 C 
ENDBRANCH  18  20
ENDBRANCH  17  18
ENDBRANCH   1  17
BRANCH  12  21
ATOM     21  C   UNL     1      -0.593  10.023  18.076  0.00  0.00    +0.000 C 
BRANCH  21  22
ATOM     22  O   UNL     1      -1.112  11.241  17.524  0.00  0.00    +0.000 OA
BRANCH  22  23
ATOM     23  C   UNL     1      -2.450  11.439  17.737  0.00  0.00    +0.000 A 
ATOM     24  C   UNL     1      -3.290  11.143  16.664  0.00  0.00    +0.000 A 
ATOM     25  C   UNL     1      -4.674  11.296  16.792  0.00  0.00    +0.000 A 
ATOM     26  C   UNL     1      -5.230  11.716  18.003  0.00  0.00    +0.000 A 
ATOM     27  C   UNL     1      -4.389  12.011  19.075  0.00  0.00    +0.000 A 
ATOM     28  C   UNL     1      -3.004  11.868  18.943  0.00  0.00    +0.000 A 
BRANCH  26  29
ATOM     29  O   UNL     1      -6.592  11.841  18.018  0.00  0.00    +0.000 OA
ATOM     30  C   UNL     1      -7.113  12.934  17.272  0.00  0.00    +0.000 C 
ENDBRANCH  26  29
ENDBRANCH  22  23
ENDBRANCH  21  22
ENDBRANCH  12  21
TORSDOF 9
ENDMDL
MODEL 6
REMARK VINA RESULT:      -7.1      4.084      9.662
REMARK  Name = 
REMARK  13 active torsions:
REMARK  status: ('A' for Active; 'I' for Inactive)
REMARK    1  A    between atoms: C_1  and  C_2
REMARK    2  A    between atoms: C_2  and  C_3
REMARK    3  A    between atoms: C_3  and  C_4
REMARK    4  A    between atoms: C_4  and  C_5
REMARK    5  A    between atoms: C_12  and  O_13
REMARK    6  A    between atoms: O_13  and  C_14
REMARK    7  A    between atoms: C_15  and  O_16
REMARK    8  A    between atoms: O_16  and  C_17
REMARK    9  A    between atoms: C_20  and  C_21
REMARK   10  A    between atoms: C_21  and  O_22
REMARK   11  A    between atoms: O_22  and  C_23
REMARK   12  A    between atoms: C_26  and  O_27
REMARK   13  A    between atoms: O_27  and  C_28
REMARK                            x       y       z     vdW  Elec       q    Type
REMARK                         _______ _______ _______ _____ _____    ______ ____
ROOT
ATOM      1  C   UNL     1       2.014   8.529  18.547  0.00  0.00    +0.000 C 
ATOM      2  O   UNL     1       2.262   8.984  17.432  0.00  0.00    +0.000 OA
ATOM      3  N   UNL     1       1.117   9.153  19.407  0.00  0.00    +0.000 N 
ATOM      4  C   UNL     1       0.777   8.642  20.744  0.00  0.00    +0.000 C 
ATOM      5  C   UNL     1      -0.401   9.342  21.431  0.00  0.00    +0.000 C 
ATOM      6  C   UNL     1      -0.239  10.831  21.333  0.00  0.00    +0.000 A 
ATOM      7  C   UNL     1      -0.586  11.694  22.372  0.00  0.00    +0.000 A 
ATOM      8  C   UNL     1      -0.397  13.083  22.258  0.00  0.00    +0.000 A 
ATOM      9  C   UNL     1       0.149  13.618  21.077  0.00  0.00    +0.000 A 
ATOM     10  C   UNL     1       0.457  12.745  20.024  0.00  0.00    +0.000 A 
ATOM     11  C   UNL     1       0.257  11.362  20.139  0.00  0.00    +0.000 A 
ATOM     12  C   UNL     1       0.532  10.439  18.965  0.00  0.00    +0.000 C 
ENDROOT
BRANCH   8  13
ATOM     13  O   UNL     1      -0.799  13.743  23.391  0.00  0.00    +0.000 OA
ATOM     14  C   UNL     1      -2.188  13.894  23.639  0.00  0.00    +0.000 C 
ENDBRANCH   8  13
BRANCH   9  15
ATOM     15  O   UNL     1       0.353  14.969  21.003  0.00  0.00    +0.000 OA
ATOM     16  C   UNL     1      -0.675  15.784  20.452  0.00  0.00    +0.000 C 
ENDBRANCH   9  15
BRANCH   1  17
ATOM     17  C   UNL     1       2.630   7.217  19.010  0.00  0.00    +0.000 C 
BRANCH  17  18
ATOM     18  C   UNL     1       2.400   6.096  17.995  0.00  0.00    +0.000 C 
BRANCH  18  20
ATOM     19  C   UNL     1       4.605   6.385  16.815  0.00  0.00    +0.000 C 
ATOM     20  C   UNL     1       3.716   5.430  17.596  0.00  0.00    +0.000 C 
ENDBRANCH  18  20
ENDBRANCH  17  18
ENDBRANCH   1  17
BRANCH  12  21
ATOM     21  C   UNL     1      -0.743  10.186  18.128  0.00  0.00    +0.000 C 
BRANCH  21  22
ATOM     22  O   UNL     1      -1.314  11.424  17.681  0.00  0.00    +0.000 OA
BRANCH  22  23
ATOM     23  C   UNL     1      -2.682  11.451  17.675  0.00  0.00    +0.000 A 
ATOM     24  C   UNL     1      -3.293  11.795  18.879  0.00  0.00    +0.000 A 
ATOM     25  C   UNL     1      -4.687  11.867  18.966  0.00  0.00    +0.000 A 
ATOM     26  C   UNL     1      -5.479  11.627  17.841  0.00  0.00    +0.000 A 
ATOM     27  C   UNL     1      -4.867  11.283  16.635  0.00  0.00    +0.000 A 
ATOM     28  C   UNL     1      -3.474  11.201  16.553  0.00  0.00    +0.000 A 
BRANCH  26  29
ATOM     29  O   UNL     1      -6.829  11.715  18.036  0.00  0.00    +0.000 OA
ATOM     30  C   UNL     1      -7.254  12.759  18.904  0.00  0.00    +0.000 C 
ENDBRANCH  26  29
ENDBRANCH  22  23
ENDBRANCH  21  22
ENDBRANCH  12  21
TORSDOF 9
ENDMDL
MODEL 7
REMARK VINA RESULT:      -7.0      4.250      9.683
REMARK  Name = 
REMARK  13 active torsions:
REMARK  status: ('A' for Active; 'I' for Inactive)
REMARK    1  A    between atoms: C_1  and  C_2
REMARK    2  A    between atoms: C_2  and  C_3
REMARK    3  A    between atoms: C_3  and  C_4
REMARK    4  A    between atoms: C_4  and  C_5
REMARK    5  A    between atoms: C_12  and  O_13
REMARK    6  A    between atoms: O_13  and  C_14
REMARK    7  A    between atoms: C_15  and  O_16
REMARK    8  A    between atoms: O_16  and  C_17
REMARK    9  A    between atoms: C_20  and  C_21
REMARK   10  A    between atoms: C_21  and  O_22
REMARK   11  A    between atoms: O_22  and  C_23
REMARK   12  A    between atoms: C_26  and  O_27
REMARK   13  A    between atoms: O_27  and  C_28
REMARK                            x       y       z     vdW  Elec       q    Type
REMARK                         _______ _______ _______ _____ _____    ______ ____
ROOT
ATOM      1  C   UNL     1       1.853   8.710  18.624  0.00  0.00    +0.000 C 
ATOM      2  O   UNL     1       2.088   9.090  17.478  0.00  0.00    +0.000 OA
ATOM      3  N   UNL     1       1.016   9.426  19.473  0.00  0.00    +0.000 N 
ATOM      4  C   UNL     1       0.694   9.009  20.846  0.00  0.00    +0.000 C 
ATOM      5  C   UNL     1      -0.424   9.805  21.527  0.00  0.00    +0.000 C 
ATOM      6  C   UNL     1      -0.191  11.276  21.340  0.00  0.00    +0.000 A 
ATOM      7  C   UNL     1      -0.461  12.212  22.337  0.00  0.00    +0.000 A 
ATOM      8  C   UNL     1      -0.207  13.580  22.140  0.00  0.00    +0.000 A 
ATOM      9  C   UNL     1       0.326  14.021  20.915  0.00  0.00    +0.000 A 
ATOM     10  C   UNL     1       0.557  13.077  19.904  0.00  0.00    +0.000 A 
ATOM     11  C   UNL     1       0.292  11.714  20.103  0.00  0.00    +0.000 A 
ATOM     12  C   UNL     1       0.483  10.714  18.977  0.00  0.00    +0.000 C 
ENDROOT
BRANCH   8  13
ATOM     13  O   UNL     1      -0.539  14.322  23.245  0.00  0.00    +0.000 OA
ATOM     14  C   UNL     1      -1.851  14.212  23.775  0.00  0.00    +0.000 C 
ENDBRANCH   8  13
BRANCH   9  15
ATOM     15  O   UNL     1       0.595  15.354  20.758  0.00  0.00    +0.000 OA
ATOM     16  C   UNL     1       1.951  15.764  20.629  0.00  0.00    +0.000 C 
ENDBRANCH   9  15
BRANCH   1  17
ATOM     17  C   UNL     1       2.418   7.396  19.142  0.00  0.00    +0.000 C 
BRANCH  17  18
ATOM     18  C   UNL     1       2.962   6.528  18.006  0.00  0.00    +0.000 C 
BRANCH  18  20
ATOM     19  C   UNL     1       3.195   4.044  18.341  0.00  0.00    +0.000 C 
ATOM     20  C   UNL     1       2.255   5.175  17.955  0.00  0.00    +0.000 C 
ENDBRANCH  18  20
ENDBRANCH  17  18
ENDBRANCH   1  17
BRANCH  12  21
ATOM     21  C   UNL     1      -0.830  10.482  18.192  0.00  0.00    +0.000 C 
BRANCH  21  22
ATOM     22  O   UNL     1      -1.523  11.719  17.979  0.00  0.00    +0.000 OA
BRANCH  22  23
ATOM     23  C   UNL     1      -2.864  11.676  18.251  0.00  0.00    +0.000 A 
ATOM     24  C   UNL     1      -3.275  12.325  19.414  0.00  0.00    +0.000 A 
ATOM     25  C   UNL     1      -4.628  12.349  19.766  0.00  0.00    +0.000 A 
ATOM     26  C   UNL     1      -5.584  11.753  18.940  0.00  0.00    +0.000 A 
ATOM     27  C   UNL     1      -5.172  11.105  17.776  0.00  0.00    +0.000 A 
ATOM     28  C   UNL     1      -3.818  11.071  17.431  0.00  0.00    +0.000 A 
BRANCH  26  29
ATOM     29  O   UNL     1      -6.876  11.827  19.380  0.00  0.00    +0.000 OA
ATOM     30  C   UNL     1      -7.244  10.865  20.360  0.00  0.00    +0.000 C 
ENDBRANCH  26  29
ENDBRANCH  22  23
ENDBRANCH  21  22
ENDBRANCH  12  21
TORSDOF 9
ENDMDL
MODEL 8
REMARK VINA RESULT:      -7.0      4.479      9.021
REMARK  Name = 
REMARK  13 active torsions:
REMARK  status: ('A' for Active; 'I' for Inactive)
REMARK    1  A    between atoms: C_1  and  C_2
REMARK    2  A    between atoms: C_2  and  C_3
REMARK    3  A    between atoms: C_3  and  C_4
REMARK    4  A    between atoms: C_4  and  C_5
REMARK    5  A    between atoms: C_12  and  O_13
REMARK    6  A    between atoms: O_13  and  C_14
REMARK    7  A    between atoms: C_15  and  O_16
REMARK    8  A    between atoms: O_16  and  C_17
REMARK    9  A    between atoms: C_20  and  C_21
REMARK   10  A    between atoms: C_21  and  O_22
REMARK   11  A    between atoms: O_22  and  C_23
REMARK   12  A    between atoms: C_26  and  O_27
REMARK   13  A    between atoms: O_27  and  C_28
REMARK                            x       y       z     vdW  Elec       q    Type
REMARK                         _______ _______ _______ _____ _____    ______ ____
ROOT
ATOM      1  C   UNL     1       2.163   7.864  19.024  0.00  0.00    +0.000 C 
ATOM      2  O   UNL     1       2.544   8.101  17.879  0.00  0.00    +0.000 OA
ATOM      3  N   UNL     1       1.299   8.722  19.697  0.00  0.00    +0.000 N 
ATOM      4  C   UNL     1       0.805   8.478  21.061  0.00  0.00    +0.000 C 
ATOM      5  C   UNL     1      -0.314   9.416  21.528  0.00  0.00    +0.000 C 
ATOM      6  C   UNL     1       0.051  10.839  21.221  0.00  0.00    +0.000 A 
ATOM      7  C   UNL     1      -0.249  11.894  22.082  0.00  0.00    +0.000 A 
ATOM      8  C   UNL     1       0.130  13.213  21.777  0.00  0.00    +0.000 A 
ATOM      9  C   UNL     1       0.821  13.482  20.581  0.00  0.00    +0.000 A 
ATOM     10  C   UNL     1       1.082  12.420  19.703  0.00  0.00    +0.000 A 
ATOM     11  C   UNL     1       0.692  11.107  20.008  0.00  0.00    +0.000 A 
ATOM     12  C   UNL     1       0.922   9.981  19.017  0.00  0.00    +0.000 C 
ENDROOT
BRANCH   8  13
ATOM     13  O   UNL     1      -0.257  14.091  22.758  0.00  0.00    +0.000 OA
ATOM     14  C   UNL     1      -1.437  13.816  23.496  0.00  0.00    +0.000 C 
ENDBRANCH   8  13
BRANCH   9  15
ATOM     15  O   UNL     1       1.207  14.769  20.322  0.00  0.00    +0.000 OA
ATOM     16  C   UNL     1       2.192  14.995  19.321  0.00  0.00    +0.000 C 
ENDBRANCH   9  15
BRANCH   1  17
ATOM     17  C   UNL     1       2.567   6.580  19.732  0.00  0.00    +0.000 C 
BRANCH  17  18
ATOM     18  C   UNL     1       2.131   5.341  18.947  0.00  0.00    +0.000 C 
BRANCH  18  20
ATOM     19  C   UNL     1       0.859   3.374  19.870  0.00  0.00    +0.000 C 
ATOM     20  C   UNL     1       2.202   4.084  19.813  0.00  0.00    +0.000 C 
ENDBRANCH  18  20
ENDBRANCH  17  18
ENDBRANCH   1  17
BRANCH  12  21
ATOM     21  C   UNL     1      -0.315   9.751  18.118  0.00  0.00    +0.000 C 
BRANCH  21  22
ATOM     22  O   UNL     1      -0.760  10.985  17.536  0.00  0.00    +0.000 OA
BRANCH  22  23
ATOM     23  C   UNL     1      -2.119  11.124  17.463  0.00  0.00    +0.000 A 
ATOM     24  C   UNL     1      -2.754  11.552  18.628  0.00  0.00    +0.000 A 
ATOM     25  C   UNL     1      -4.139  11.740  18.646  0.00  0.00    +0.000 A 
ATOM     26  C   UNL     1      -4.896  11.534  17.490  0.00  0.00    +0.000 A 
ATOM     27  C   UNL     1      -4.260  11.107  16.325  0.00  0.00    +0.000 A 
ATOM     28  C   UNL     1      -2.876  10.908  16.311  0.00  0.00    +0.000 A 
BRANCH  26  29
ATOM     29  O   UNL     1      -6.242  11.738  17.618  0.00  0.00    +0.000 OA
ATOM     30  C   UNL     1      -6.708  13.015  17.202  0.00  0.00    +0.000 C 
ENDBRANCH  26  29
ENDBRANCH  22  23
ENDBRANCH  21  22
ENDBRANCH  12  21
TORSDOF 9
ENDMDL
MODEL 9
REMARK VINA RESULT:      -7.0      4.242     10.161
REMARK  Name = 
REMARK  13 active torsions:
REMARK  status: ('A' for Active; 'I' for Inactive)
REMARK    1  A    between atoms: C_1  and  C_2
REMARK    2  A    between atoms: C_2  and  C_3
REMARK    3  A    between atoms: C_3  and  C_4
REMARK    4  A    between atoms: C_4  and  C_5
REMARK    5  A    between atoms: C_12  and  O_13
REMARK    6  A    between atoms: O_13  and  C_14
REMARK    7  A    between atoms: C_15  and  O_16
REMARK    8  A    between atoms: O_16  and  C_17
REMARK    9  A    between atoms: C_20  and  C_21
REMARK   10  A    between atoms: C_21  and  O_22
REMARK   11  A    between atoms: O_22  and  C_23
REMARK   12  A    between atoms: C_26  and  O_27
REMARK   13  A    between atoms: O_27  and  C_28
REMARK                            x       y       z     vdW  Elec       q    Type
REMARK                         _______ _______ _______ _____ _____    ______ ____
ROOT
ATOM      1  C   UNL     1       2.123  12.828  18.818  0.00  0.00    +0.000 C 
ATOM      2  O   UNL     1       2.760  12.177  17.992  0.00  0.00    +0.000 OA
ATOM      3  N   UNL     1       0.837  12.461  19.201  0.00  0.00    +0.000 N 
ATOM      4  C   UNL     1       0.039  13.199  20.193  0.00  0.00    +0.000 C 
ATOM      5  C   UNL     1      -1.249  12.502  20.645  0.00  0.00    +0.000 C 
ATOM      6  C   UNL     1      -2.008  12.005  19.449  0.00  0.00    +0.000 A 
ATOM      7  C   UNL     1      -3.399  12.049  19.371  0.00  0.00    +0.000 A 
ATOM      8  C   UNL     1      -4.079  11.599  18.226  0.00  0.00    +0.000 A 
ATOM      9  C   UNL     1      -3.349  11.092  17.135  0.00  0.00    +0.000 A 
ATOM     10  C   UNL     1      -1.953  11.015  17.239  0.00  0.00    +0.000 A 
ATOM     11  C   UNL     1      -1.280  11.456  18.389  0.00  0.00    +0.000 A 
ATOM     12  C   UNL     1       0.225  11.303  18.513  0.00  0.00    +0.000 C 
ENDROOT
BRANCH   8  13
ATOM     13  O   UNL     1      -5.438  11.735  18.356  0.00  0.00    +0.000 OA
ATOM     14  C   UNL     1      -6.211  10.592  18.688  0.00  0.00    +0.000 C 
ENDBRANCH   8  13
BRANCH   9  15
ATOM     15  O   UNL     1      -4.031  10.691  16.019  0.00  0.00    +0.000 OA
ATOM     16  C   UNL     1      -3.288  10.318  14.864  0.00  0.00    +0.000 C 
ENDBRANCH   9  15
BRANCH   1  17
ATOM     17  C   UNL     1       2.744  14.031  19.511  0.00  0.00    +0.000 C 
BRANCH  17  18
ATOM     18  C   UNL     1       2.876  15.224  18.562  0.00  0.00    +0.000 C 
BRANCH  18  20
ATOM     19  C   UNL     1       1.831  17.377  17.781  0.00  0.00    +0.000 C 
ATOM     20  C   UNL     1       1.674  16.160  18.678  0.00  0.00    +0.000 C 
ENDBRANCH  18  20
ENDBRANCH  17  18
ENDBRANCH   1  17
BRANCH  12  21
ATOM     21  C   UNL     1       0.607   9.990  19.235  0.00  0.00    +0.000 C 
BRANCH  21  22
ATOM     22  O   UNL     1       1.734   9.368  18.601  0.00  0.00    +0.000 OA
BRANCH  22  23
ATOM     23  C   UNL     1       1.970   8.079  18.995  0.00  0.00    +0.000 A 
ATOM     24  C   UNL     1       2.598   7.258  18.060  0.00  0.00    +0.000 A 
ATOM     25  C   UNL     1       2.896   5.929  18.378  0.00  0.00    +0.000 A 
ATOM     26  C   UNL     1       2.599   5.422  19.645  0.00  0.00    +0.000 A 
ATOM     27  C   UNL     1       1.971   6.244  20.580  0.00  0.00    +0.000 A 
ATOM     28  C   UNL     1       1.663   7.569  20.257  0.00  0.00    +0.000 A 
BRANCH  26  29
ATOM     29  O   UNL     1       2.925   4.110  19.849  0.00  0.00    +0.000 OA
ATOM     30  C   UNL     1       4.198   3.713  19.357  0.00  0.00    +0.000 C 
ENDBRANCH  26  29
ENDBRANCH  22  23
ENDBRANCH  21  22
ENDBRANCH  12  21
TORSDOF 9
ENDMDL
