MODEL 1
REMARK VINA RESULT:      -7.6      0.000      0.000
REMARK  Name = 
REMARK  4 active torsions:
REMARK  status: ('A' for Active; 'I' for Inactive)
REMARK    1  A    between atoms: C_2  and  C_3
REMARK    2  A    between atoms: C_4  and  C_5
REMARK    3  A    between atoms: C_11  and  C_12
REMARK    4  A    between atoms: N_19  and  C_20
REMARK                            x       y       z     vdW  Elec       q    Type
REMARK                         _______ _______ _______ _____ _____    ______ ____
ROOT
ATOM      1  C   UNL     1      -0.576  13.396  20.142  0.00  0.00    +0.000 A 
ATOM      2  C   UNL     1       0.243  14.476  19.775  0.00  0.00    +0.000 A 
ATOM      3  C   UNL     1       1.587  13.939  19.843  0.00  0.00    +0.000 A 
ATOM      4  N   UNL     1       1.589  12.736  20.413  0.00  0.00    +0.000 NA
ATOM      5  N   UNL     1       0.294  12.415  20.592  0.00  0.00    +0.000 N 
ENDROOT
BRANCH   1   7
ATOM      6  O   UNL     1      -2.303  13.861  21.559  0.00  0.00    +0.000 OA
ATOM      7  C   UNL     1      -1.981  13.361  20.475  0.00  0.00    +0.000 C 
ATOM      8  N   UNL     1      -2.946  12.665  19.729  0.00  0.00    +0.000 N 
ATOM      9  C   UNL     1      -4.350  12.922  19.908  0.00  0.00    +0.000 A 
ATOM     10  S   UNL     1      -5.140  14.276  20.475  0.00  0.00    +0.000 S 
ATOM     11  N   UNL     1      -5.046  11.879  19.284  0.00  0.00    +0.000 N 
ATOM     12  C   UNL     1      -4.136  11.175  18.479  0.00  0.00    +0.000 A 
ATOM     13  C   UNL     1      -4.496  10.353  17.449  0.00  0.00    +0.000 A 
ATOM     14  C   UNL     1      -3.792  10.541  16.281  0.00  0.00    +0.000 A 
ATOM     15  C   UNL     1      -2.526  11.131  16.359  0.00  0.00    +0.000 A 
ATOM     16  C   UNL     1      -1.991  11.579  17.589  0.00  0.00    +0.000 A 
ATOM     17  C   UNL     1      -2.887  11.748  18.626  0.00  0.00    +0.000 A 
ATOM     18  H   UNL     1      -6.034  11.955  19.086  0.00  0.00    +0.000 HD
ENDBRANCH   1   7
BRANCH   2  19
ATOM     19  C   UNL     1      -0.183  15.871  19.509  0.00  0.00    +0.000 A 
ATOM     20  C   UNL     1      -0.285  16.361  18.200  0.00  0.00    +0.000 A 
ATOM     21  C   UNL     1      -0.783  17.647  17.916  0.00  0.00    +0.000 A 
ATOM     22  C   UNL     1      -1.193  18.489  18.943  0.00  0.00    +0.000 A 
ATOM     23  C   UNL     1      -1.058  18.057  20.248  0.00  0.00    +0.000 A 
ATOM     24  C   UNL     1      -0.536  16.786  20.504  0.00  0.00    +0.000 A 
ENDBRANCH   2  19
BRANCH   3  25
ATOM     25  C   UNL     1       2.873  14.511  19.429  0.00  0.00    +0.000 A 
ATOM     26  C   UNL     1       3.167  14.723  18.072  0.00  0.00    +0.000 A 
ATOM     27  C   UNL     1       4.395  15.264  17.683  0.00  0.00    +0.000 A 
ATOM     28  C   UNL     1       5.344  15.596  18.648  0.00  0.00    +0.000 A 
ATOM     29  C   UNL     1       5.054  15.416  19.998  0.00  0.00    +0.000 A 
ATOM     30  C   UNL     1       3.818  14.895  20.386  0.00  0.00    +0.000 A 
ENDBRANCH   3  25
BRANCH   5  31
ATOM     31  C   UNL     1       0.033  11.139  21.202  0.00  0.00    +0.000 A 
ATOM     32  C   UNL     1       0.231   9.962  20.464  0.00  0.00    +0.000 A 
ATOM     33  C   UNL     1       0.003   8.687  21.035  0.00  0.00    +0.000 A 
ATOM     34  C   UNL     1      -0.417   8.586  22.350  0.00  0.00    +0.000 A 
ATOM     35  C   UNL     1      -0.650   9.750  23.075  0.00  0.00    +0.000 A 
ATOM     36  C   UNL     1      -0.417  11.024  22.514  0.00  0.00    +0.000 A 
ENDBRANCH   5  31
TORSDOF 4
ENDMDL
MODEL 2
REMARK VINA RESULT:      -7.5      0.147      1.147
REMARK  Name = 
REMARK  4 active torsions:
REMARK  status: ('A' for Active; 'I' for Inactive)
REMARK    1  A    between atoms: C_2  and  C_3
REMARK    2  A    between atoms: C_4  and  C_5
REMARK    3  A    between atoms: C_11  and  C_12
REMARK    4  A    between atoms: N_19  and  C_20
REMARK                            x       y       z     vdW  Elec       q    Type
REMARK                         _______ _______ _______ _____ _____    ______ ____
ROOT
ATOM      1  C   UNL     1      -0.583  13.411  20.186  0.00  0.00    +0.000 A 
ATOM      2  C   UNL     1       0.240  14.482  19.801  0.00  0.00    +0.000 A 
ATOM      3  C   UNL     1       1.581  13.937  19.865  0.00  0.00    +0.000 A 
ATOM      4  N   UNL     1       1.579  12.740  20.448  0.00  0.00    +0.000 NA
ATOM      5  N   UNL     1       0.283  12.430  20.640  0.00  0.00    +0.000 N 
ENDROOT
BRANCH   1   7
ATOM      6  O   UNL     1      -2.293  13.883  21.621  0.00  0.00    +0.000 OA
ATOM      7  C   UNL     1      -1.986  13.389  20.530  0.00  0.00    +0.000 C 
ATOM      8  N   UNL     1      -2.964  12.713  19.784  0.00  0.00    +0.000 N 
ATOM      9  C   UNL     1      -4.364  12.984  19.977  0.00  0.00    +0.000 A 
ATOM     10  S   UNL     1      -5.134  14.342  20.564  0.00  0.00    +0.000 S 
ATOM     11  N   UNL     1      -5.077  11.956  19.348  0.00  0.00    +0.000 N 
ATOM     12  C   UNL     1      -4.182  11.250  18.529  0.00  0.00    +0.000 A 
ATOM     13  C   UNL     1      -4.559  10.442  17.494  0.00  0.00    +0.000 A 
ATOM     14  C   UNL     1      -3.862  10.634  16.322  0.00  0.00    +0.000 A 
ATOM     15  C   UNL     1      -2.589  11.208  16.396  0.00  0.00    +0.000 A 
ATOM     16  C   UNL     1      -2.039  11.637  17.626  0.00  0.00    +0.000 A 
ATOM     17  C   UNL     1      -2.925  11.806  18.671  0.00  0.00    +0.000 A 
ATOM     18  H   UNL     1      -6.065  12.046  19.158  0.00  0.00    +0.000 HD
ENDBRANCH   1   7
BRANCH   2  19
ATOM     19  C   UNL     1      -0.178  15.877  19.523  0.00  0.00    +0.000 A 
ATOM     20  C   UNL     1      -0.366  16.799  20.562  0.00  0.00    +0.000 A 
ATOM     21  C   UNL     1      -0.663  18.154  20.318  0.00  0.00    +0.000 A 
ATOM     22  C   UNL     1      -0.786  18.628  19.019  0.00  0.00    +0.000 A 
ATOM     23  C   UNL     1      -0.658  17.736  17.972  0.00  0.00    +0.000 A 
ATOM     24  C   UNL     1      -0.389  16.391  18.240  0.00  0.00    +0.000 A 
ENDBRANCH   2  19
BRANCH   3  25
ATOM     25  C   UNL     1       2.868  14.495  19.435  0.00  0.00    +0.000 A 
ATOM     26  C   UNL     1       3.921  14.671  20.349  0.00  0.00    +0.000 A 
ATOM     27  C   UNL     1       5.143  15.207  19.934  0.00  0.00    +0.000 A 
ATOM     28  C   UNL     1       5.325  15.574  18.602  0.00  0.00    +0.000 A 
ATOM     29  C   UNL     1       4.298  15.379  17.682  0.00  0.00    +0.000 A 
ATOM     30  C   UNL     1       3.085  14.824  18.093  0.00  0.00    +0.000 A 
ENDBRANCH   3  25
BRANCH   5  31
ATOM     31  C   UNL     1       0.019  11.162  21.266  0.00  0.00    +0.000 A 
ATOM     32  C   UNL     1       0.213   9.976  20.542  0.00  0.00    +0.000 A 
ATOM     33  C   UNL     1      -0.018   8.708  21.130  0.00  0.00    +0.000 A 
ATOM     34  C   UNL     1      -0.439   8.625  22.445  0.00  0.00    +0.000 A 
ATOM     35  C   UNL     1      -0.670   9.799  23.156  0.00  0.00    +0.000 A 
ATOM     36  C   UNL     1      -0.432  11.065  22.579  0.00  0.00    +0.000 A 
ENDBRANCH   5  31
TORSDOF 4
ENDMDL
MODEL 3
REMARK VINA RESULT:      -7.5      2.940      6.827
REMARK  Name = 
REMARK  4 active torsions:
REMARK  status: ('A' for Active; 'I' for Inactive)
REMARK    1  A    between atoms: C_2  and  C_3
REMARK    2  A    between atoms: C_4  and  C_5
REMARK    3  A    between atoms: C_11  and  C_12
REMARK    4  A    between atoms: N_19  and  C_20
REMARK                            x       y       z     vdW  Elec       q    Type
REMARK                         _______ _______ _______ _____ _____    ______ ____
ROOT
ATOM      1  C   UNL     1      -2.244  12.395  19.658  0.00  0.00    +0.000 A 
ATOM      2  C   UNL     1      -2.822  13.084  20.736  0.00  0.00    +0.000 A 
ATOM      3  C   UNL     1      -4.221  12.715  20.681  0.00  0.00    +0.000 A 
ATOM      4  N   UNL     1      -4.495  12.060  19.555  0.00  0.00    +0.000 NA
ATOM      5  N   UNL     1      -3.310  11.873  18.944  0.00  0.00    +0.000 N 
ENDROOT
BRANCH   1   7
ATOM      6  O   UNL     1      -0.771  13.491  18.302  0.00  0.00    +0.000 OA
ATOM      7  C   UNL     1      -0.935  12.527  19.059  0.00  0.00    +0.000 C 
ATOM      8  N   UNL     1       0.075  11.559  19.164  0.00  0.00    +0.000 N 
ATOM      9  C   UNL     1       1.441  11.871  18.836  0.00  0.00    +0.000 A 
ATOM     10  S   UNL     1       2.246  13.332  18.826  0.00  0.00    +0.000 S 
ATOM     11  N   UNL     1       2.131  10.658  18.728  0.00  0.00    +0.000 N 
ATOM     12  C   UNL     1       1.319   9.651  19.274  0.00  0.00    +0.000 A 
ATOM     13  C   UNL     1       1.778   8.432  19.689  0.00  0.00    +0.000 A 
ATOM     14  C   UNL     1       1.326   8.030  20.926  0.00  0.00    +0.000 A 
ATOM     15  C   UNL     1       0.134   8.583  21.406  0.00  0.00    +0.000 A 
ATOM     16  C   UNL     1      -0.572   9.570  20.681  0.00  0.00    +0.000 A 
ATOM     17  C   UNL     1       0.129  10.221  19.685  0.00  0.00    +0.000 A 
ATOM     18  H   UNL     1       3.141  10.629  18.725  0.00  0.00    +0.000 HD
ENDBRANCH   1   7
BRANCH   2  19
ATOM     19  C   UNL     1      -2.158  14.061  21.633  0.00  0.00    +0.000 A 
ATOM     20  C   UNL     1      -2.103  15.423  21.307  0.00  0.00    +0.000 A 
ATOM     21  C   UNL     1      -1.570  16.384  22.187  0.00  0.00    +0.000 A 
ATOM     22  C   UNL     1      -1.069  16.007  23.427  0.00  0.00    +0.000 A 
ATOM     23  C   UNL     1      -1.061  14.667  23.759  0.00  0.00    +0.000 A 
ATOM     24  C   UNL     1      -1.572  13.729  22.857  0.00  0.00    +0.000 A 
ENDBRANCH   2  19
BRANCH   3  25
ATOM     25  C   UNL     1      -5.322  12.971  21.617  0.00  0.00    +0.000 A 
ATOM     26  C   UNL     1      -6.611  13.279  21.150  0.00  0.00    +0.000 A 
ATOM     27  C   UNL     1      -7.655  13.526  22.047  0.00  0.00    +0.000 A 
ATOM     28  C   UNL     1      -7.419  13.471  23.419  0.00  0.00    +0.000 A 
ATOM     29  C   UNL     1      -6.152  13.141  23.893  0.00  0.00    +0.000 A 
ATOM     30  C   UNL     1      -5.116  12.873  22.997  0.00  0.00    +0.000 A 
ENDBRANCH   3  25
BRANCH   5  31
ATOM     31  C   UNL     1      -3.345  11.176  17.687  0.00  0.00    +0.000 A 
ATOM     32  C   UNL     1      -4.146  11.665  16.643  0.00  0.00    +0.000 A 
ATOM     33  C   UNL     1      -4.192  11.017  15.384  0.00  0.00    +0.000 A 
ATOM     34  C   UNL     1      -3.432   9.882  15.166  0.00  0.00    +0.000 A 
ATOM     35  C   UNL     1      -2.666   9.371  16.209  0.00  0.00    +0.000 A 
ATOM     36  C   UNL     1      -2.608  10.016  17.462  0.00  0.00    +0.000 A 
ENDBRANCH   5  31
TORSDOF 4
ENDMDL
MODEL 4
REMARK VINA RESULT:      -7.5      0.134      1.145
REMARK  Name = 
REMARK  4 active torsions:
REMARK  status: ('A' for Active; 'I' for Inactive)
REMARK    1  A    between atoms: C_2  and  C_3
REMARK    2  A    between atoms: C_4  and  C_5
REMARK    3  A    between atoms: C_11  and  C_12
REMARK    4  A    between atoms: N_19  and  C_20
REMARK                            x       y       z     vdW  Elec       q    Type
REMARK                         _______ _______ _______ _____ _____    ______ ____
ROOT
ATOM      1  C   UNL     1      -0.544  13.405  20.158  0.00  0.00    +0.000 A 
ATOM      2  C   UNL     1       0.268  14.485  19.779  0.00  0.00    +0.000 A 
ATOM      3  C   UNL     1       1.614  13.951  19.833  0.00  0.00    +0.000 A 
ATOM      4  N   UNL     1       1.624  12.750  20.405  0.00  0.00    +0.000 NA
ATOM      5  N   UNL     1       0.331  12.427  20.600  0.00  0.00    +0.000 N 
ENDROOT
BRANCH   1   7
ATOM      6  O   UNL     1      -2.253  13.855  21.602  0.00  0.00    +0.000 OA
ATOM      7  C   UNL     1      -1.946  13.369  20.507  0.00  0.00    +0.000 C 
ATOM      8  N   UNL     1      -2.921  12.688  19.762  0.00  0.00    +0.000 N 
ATOM      9  C   UNL     1      -4.323  12.945  19.961  0.00  0.00    +0.000 A 
ATOM     10  S   UNL     1      -5.102  14.294  20.558  0.00  0.00    +0.000 S 
ATOM     11  N   UNL     1      -5.029  11.914  19.331  0.00  0.00    +0.000 N 
ATOM     12  C   UNL     1      -4.131  11.219  18.505  0.00  0.00    +0.000 A 
ATOM     13  C   UNL     1      -4.505  10.413  17.467  0.00  0.00    +0.000 A 
ATOM     14  C   UNL     1      -3.815  10.617  16.294  0.00  0.00    +0.000 A 
ATOM     15  C   UNL     1      -2.547  11.202  16.365  0.00  0.00    +0.000 A 
ATOM     16  C   UNL     1      -1.995  11.630  17.595  0.00  0.00    +0.000 A 
ATOM     17  C   UNL     1      -2.879  11.786  18.645  0.00  0.00    +0.000 A 
ATOM     18  H   UNL     1      -6.019  11.996  19.145  0.00  0.00    +0.000 HD
ENDBRANCH   1   7
BRANCH   2  19
ATOM     19  C   UNL     1      -0.162  15.880  19.514  0.00  0.00    +0.000 A 
ATOM     20  C   UNL     1      -0.368  16.787  20.562  0.00  0.00    +0.000 A 
ATOM     21  C   UNL     1      -0.678  18.141  20.333  0.00  0.00    +0.000 A 
ATOM     22  C   UNL     1      -0.795  18.630  19.038  0.00  0.00    +0.000 A 
ATOM     23  C   UNL     1      -0.649  17.753  17.982  0.00  0.00    +0.000 A 
ATOM     24  C   UNL     1      -0.369  16.407  18.236  0.00  0.00    +0.000 A 
ENDBRANCH   2  19
BRANCH   3  25
ATOM     25  C   UNL     1       2.894  14.523  19.403  0.00  0.00    +0.000 A 
ATOM     26  C   UNL     1       3.211  14.643  18.039  0.00  0.00    +0.000 A 
ATOM     27  C   UNL     1       4.434  15.186  17.635  0.00  0.00    +0.000 A 
ATOM     28  C   UNL     1       5.354  15.611  18.592  0.00  0.00    +0.000 A 
ATOM     29  C   UNL     1       5.041  15.522  19.945  0.00  0.00    +0.000 A 
ATOM     30  C   UNL     1       3.810  15.000  20.347  0.00  0.00    +0.000 A 
ENDBRANCH   3  25
BRANCH   5  31
ATOM     31  C   UNL     1       0.079  11.152  21.216  0.00  0.00    +0.000 A 
ATOM     32  C   UNL     1      -0.412  11.099  22.529  0.00  0.00    +0.000 A 
ATOM     33  C   UNL     1      -0.690   9.863  23.163  0.00  0.00    +0.000 A 
ATOM     34  C   UNL     1      -0.483   8.678  22.481  0.00  0.00    +0.000 A 
ATOM     35  C   UNL     1       0.040   8.723  21.192  0.00  0.00    +0.000 A 
ATOM     36  C   UNL     1       0.311   9.951  20.552  0.00  0.00    +0.000 A 
ENDBRANCH   5  31
TORSDOF 4
ENDMDL
MODEL 5
REMARK VINA RESULT:      -7.5      0.334      1.134
REMARK  Name = 
REMARK  4 active torsions:
REMARK  status: ('A' for Active; 'I' for Inactive)
REMARK    1  A    between atoms: C_2  and  C_3
REMARK    2  A    between atoms: C_4  and  C_5
REMARK    3  A    between atoms: C_11  and  C_12
REMARK    4  A    between atoms: N_19  and  C_20
REMARK                            x       y       z     vdW  Elec       q    Type
REMARK                         _______ _______ _______ _____ _____    ______ ____
ROOT
ATOM      1  C   UNL     1      -0.620  13.530  20.103  0.00  0.00    +0.000 A 
ATOM      2  C   UNL     1       0.159  14.640  19.740  0.00  0.00    +0.000 A 
ATOM      3  C   UNL     1       1.521  14.149  19.797  0.00  0.00    +0.000 A 
ATOM      4  N   UNL     1       1.567  12.943  20.358  0.00  0.00    +0.000 NA
ATOM      5  N   UNL     1       0.285  12.576  20.542  0.00  0.00    +0.000 N 
ENDROOT
BRANCH   1   7
ATOM      6  O   UNL     1      -2.359  13.948  21.521  0.00  0.00    +0.000 OA
ATOM      7  C   UNL     1      -2.022  13.444  20.444  0.00  0.00    +0.000 C 
ATOM      8  N   UNL     1      -2.961  12.700  19.712  0.00  0.00    +0.000 N 
ATOM      9  C   UNL     1      -4.373  12.903  19.894  0.00  0.00    +0.000 A 
ATOM     10  S   UNL     1      -5.215  14.234  20.444  0.00  0.00    +0.000 S 
ATOM     11  N   UNL     1      -5.030  11.824  19.290  0.00  0.00    +0.000 N 
ATOM     12  C   UNL     1      -4.096  11.144  18.491  0.00  0.00    +0.000 A 
ATOM     13  C   UNL     1      -4.427  10.292  17.476  0.00  0.00    +0.000 A 
ATOM     14  C   UNL     1      -3.736  10.490  16.301  0.00  0.00    +0.000 A 
ATOM     15  C   UNL     1      -2.494  11.131  16.365  0.00  0.00    +0.000 A 
ATOM     16  C   UNL     1      -1.972  11.619  17.585  0.00  0.00    +0.000 A 
ATOM     17  C   UNL     1      -2.870  11.768  18.623  0.00  0.00    +0.000 A 
ATOM     18  H   UNL     1      -6.021  11.858  19.094  0.00  0.00    +0.000 HD
ENDBRANCH   1   7
BRANCH   2  19
ATOM     19  C   UNL     1      -0.316  16.021  19.486  0.00  0.00    +0.000 A 
ATOM     20  C   UNL     1      -0.357  16.547  18.187  0.00  0.00    +0.000 A 
ATOM     21  C   UNL     1      -0.897  17.817  17.908  0.00  0.00    +0.000 A 
ATOM     22  C   UNL     1      -1.413  18.606  18.928  0.00  0.00    +0.000 A 
ATOM     23  C   UNL     1      -1.341  18.140  20.227  0.00  0.00    +0.000 A 
ATOM     24  C   UNL     1      -0.776  16.888  20.481  0.00  0.00    +0.000 A 
ENDBRANCH   2  19
BRANCH   3  25
ATOM     25  C   UNL     1       2.785  14.767  19.381  0.00  0.00    +0.000 A 
ATOM     26  C   UNL     1       3.365  15.803  20.131  0.00  0.00    +0.000 A 
ATOM     27  C   UNL     1       4.567  16.391  19.727  0.00  0.00    +0.000 A 
ATOM     28  C   UNL     1       5.200  15.950  18.567  0.00  0.00    +0.000 A 
ATOM     29  C   UNL     1       4.649  14.905  17.829  0.00  0.00    +0.000 A 
ATOM     30  C   UNL     1       3.459  14.305  18.246  0.00  0.00    +0.000 A 
ENDBRANCH   3  25
BRANCH   5  31
ATOM     31  C   UNL     1       0.072  11.288  21.144  0.00  0.00    +0.000 A 
ATOM     32  C   UNL     1      -0.429  11.206  22.453  0.00  0.00    +0.000 A 
ATOM     33  C   UNL     1      -0.670   9.956  23.073  0.00  0.00    +0.000 A 
ATOM     34  C   UNL     1      -0.417   8.785  22.381  0.00  0.00    +0.000 A 
ATOM     35  C   UNL     1       0.115   8.859  21.098  0.00  0.00    +0.000 A 
ATOM     36  C   UNL     1       0.349  10.102  20.471  0.00  0.00    +0.000 A 
ENDBRANCH   5  31
TORSDOF 4
ENDMDL
MODEL 6
REMARK VINA RESULT:      -7.4      2.113      3.322
REMARK  Name = 
REMARK  4 active torsions:
REMARK  status: ('A' for Active; 'I' for Inactive)
REMARK    1  A    between atoms: C_2  and  C_3
REMARK    2  A    between atoms: C_4  and  C_5
REMARK    3  A    between atoms: C_11  and  C_12
REMARK    4  A    between atoms: N_19  and  C_20
REMARK                            x       y       z     vdW  Elec       q    Type
REMARK                         _______ _______ _______ _____ _____    ______ ____
ROOT
ATOM      1  C   UNL     1      -0.328  13.335  19.947  0.00  0.00    +0.000 A 
ATOM      2  C   UNL     1      -0.103  14.687  20.250  0.00  0.00    +0.000 A 
ATOM      3  C   UNL     1       0.770  14.649  21.406  0.00  0.00    +0.000 A 
ATOM      4  N   UNL     1       0.870  13.411  21.884  0.00  0.00    +0.000 NA
ATOM      5  N   UNL     1       0.210  12.627  21.010  0.00  0.00    +0.000 N 
ENDROOT
BRANCH   1   7
ATOM      6  O   UNL     1      -0.888  12.495  17.900  0.00  0.00    +0.000 OA
ATOM      7  C   UNL     1      -1.282  12.726  19.049  0.00  0.00    +0.000 C 
ATOM      8  N   UNL     1      -2.639  12.538  19.358  0.00  0.00    +0.000 N 
ATOM      9  C   UNL     1      -3.462  11.651  18.580  0.00  0.00    +0.000 A 
ATOM     10  S   UNL     1      -3.050  10.338  17.639  0.00  0.00    +0.000 S 
ATOM     11  N   UNL     1      -4.794  11.918  18.917  0.00  0.00    +0.000 N 
ATOM     12  C   UNL     1      -4.795  12.706  20.079  0.00  0.00    +0.000 A 
ATOM     13  C   UNL     1      -5.870  12.850  20.911  0.00  0.00    +0.000 A 
ATOM     14  C   UNL     1      -5.591  12.710  22.252  0.00  0.00    +0.000 A 
ATOM     15  C   UNL     1      -4.278  12.932  22.681  0.00  0.00    +0.000 A 
ATOM     16  C   UNL     1      -3.241  13.240  21.770  0.00  0.00    +0.000 A 
ATOM     17  C   UNL     1      -3.485  12.955  20.441  0.00  0.00    +0.000 A 
ATOM     18  H   UNL     1      -5.535  11.276  18.670  0.00  0.00    +0.000 HD
ENDBRANCH   1   7
BRANCH   2  19
ATOM     19  C   UNL     1      -0.728  15.865  19.603  0.00  0.00    +0.000 A 
ATOM     20  C   UNL     1      -1.851  16.490  20.163  0.00  0.00    +0.000 A 
ATOM     21  C   UNL     1      -2.401  17.669  19.624  0.00  0.00    +0.000 A 
ATOM     22  C   UNL     1      -1.842  18.260  18.498  0.00  0.00    +0.000 A 
ATOM     23  C   UNL     1      -0.766  17.643  17.891  0.00  0.00    +0.000 A 
ATOM     24  C   UNL     1      -0.255  16.459  18.429  0.00  0.00    +0.000 A 
ENDBRANCH   2  19
BRANCH   3  25
ATOM     25  C   UNL     1       1.491  15.720  22.103  0.00  0.00    +0.000 A 
ATOM     26  C   UNL     1       2.873  15.898  21.922  0.00  0.00    +0.000 A 
ATOM     27  C   UNL     1       3.555  16.918  22.592  0.00  0.00    +0.000 A 
ATOM     28  C   UNL     1       2.862  17.768  23.452  0.00  0.00    +0.000 A 
ATOM     29  C   UNL     1       1.488  17.619  23.618  0.00  0.00    +0.000 A 
ATOM     30  C   UNL     1       0.804  16.613  22.931  0.00  0.00    +0.000 A 
ENDBRANCH   3  25
BRANCH   5  31
ATOM     31  C   UNL     1       0.177  11.222  21.314  0.00  0.00    +0.000 A 
ATOM     32  C   UNL     1      -0.498  10.775  22.460  0.00  0.00    +0.000 A 
ATOM     33  C   UNL     1      -0.569   9.398  22.783  0.00  0.00    +0.000 A 
ATOM     34  C   UNL     1       0.031   8.465  21.956  0.00  0.00    +0.000 A 
ATOM     35  C   UNL     1       0.733   8.905  20.839  0.00  0.00    +0.000 A 
ATOM     36  C   UNL     1       0.800  10.276  20.506  0.00  0.00    +0.000 A 
ENDBRANCH   5  31
TORSDOF 4
ENDMDL
MODEL 7
REMARK VINA RESULT:      -7.4      2.922      6.905
REMARK  Name = 
REMARK  4 active torsions:
REMARK  status: ('A' for Active; 'I' for Inactive)
REMARK    1  A    between atoms: C_2  and  C_3
REMARK    2  A    between atoms: C_4  and  C_5
REMARK    3  A    between atoms: C_11  and  C_12
REMARK    4  A    between atoms: N_19  and  C_20
REMARK                            x       y       z     vdW  Elec       q    Type
REMARK                         _______ _______ _______ _____ _____    ______ ____
ROOT
ATOM      1  C   UNL     1      -2.411  12.482  19.814  0.00  0.00    +0.000 A 
ATOM      2  C   UNL     1      -3.040  13.144  20.881  0.00  0.00    +0.000 A 
ATOM      3  C   UNL     1      -4.430  12.752  20.768  0.00  0.00    +0.000 A 
ATOM      4  N   UNL     1      -4.651  12.111  19.623  0.00  0.00    +0.000 NA
ATOM      5  N   UNL     1      -3.441  11.954  19.053  0.00  0.00    +0.000 N 
ENDROOT
BRANCH   1   7
ATOM      6  O   UNL     1      -0.906  13.630  18.539  0.00  0.00    +0.000 OA
ATOM      7  C   UNL     1      -1.084  12.646  19.267  0.00  0.00    +0.000 C 
ATOM      8  N   UNL     1      -0.065  11.688  19.385  0.00  0.00    +0.000 N 
ATOM      9  C   UNL     1       1.307  12.026  19.114  0.00  0.00    +0.000 A 
ATOM     10  S   UNL     1       2.092  13.497  19.168  0.00  0.00    +0.000 S 
ATOM     11  N   UNL     1       2.017  10.825  19.001  0.00  0.00    +0.000 N 
ATOM     12  C   UNL     1       1.201   9.794  19.495  0.00  0.00    +0.000 A 
ATOM     13  C   UNL     1       1.661   8.572  19.896  0.00  0.00    +0.000 A 
ATOM     14  C   UNL     1       1.171   8.134  21.106  0.00  0.00    +0.000 A 
ATOM     15  C   UNL     1      -0.045   8.660  21.556  0.00  0.00    +0.000 A 
ATOM     16  C   UNL     1      -0.738   9.655  20.829  0.00  0.00    +0.000 A 
ATOM     17  C   UNL     1      -0.011  10.339  19.875  0.00  0.00    +0.000 A 
ATOM     18  H   UNL     1       3.027  10.809  19.035  0.00  0.00    +0.000 HD
ENDBRANCH   1   7
BRANCH   2  19
ATOM     19  C   UNL     1      -2.427  14.117  21.816  0.00  0.00    +0.000 A 
ATOM     20  C   UNL     1      -1.860  13.700  23.028  0.00  0.00    +0.000 A 
ATOM     21  C   UNL     1      -1.183  14.589  23.886  0.00  0.00    +0.000 A 
ATOM     22  C   UNL     1      -1.056  15.932  23.555  0.00  0.00    +0.000 A 
ATOM     23  C   UNL     1      -1.648  16.387  22.393  0.00  0.00    +0.000 A 
ATOM     24  C   UNL     1      -2.337  15.490  21.572  0.00  0.00    +0.000 A 
ENDBRANCH   2  19
BRANCH   3  25
ATOM     25  C   UNL     1      -5.569  12.975  21.667  0.00  0.00    +0.000 A 
ATOM     26  C   UNL     1      -6.833  13.320  21.160  0.00  0.00    +0.000 A 
ATOM     27  C   UNL     1      -7.913  13.535  22.021  0.00  0.00    +0.000 A 
ATOM     28  C   UNL     1      -7.738  13.410  23.398  0.00  0.00    +0.000 A 
ATOM     29  C   UNL     1      -6.497  13.042  23.910  0.00  0.00    +0.000 A 
ATOM     30  C   UNL     1      -5.425  12.806  23.048  0.00  0.00    +0.000 A 
ENDBRANCH   3  25
BRANCH   5  31
ATOM     31  C   UNL     1      -3.419  11.277  17.785  0.00  0.00    +0.000 A 
ATOM     32  C   UNL     1      -2.556  10.187  17.594  0.00  0.00    +0.000 A 
ATOM     33  C   UNL     1      -2.518   9.483  16.365  0.00  0.00    +0.000 A 
ATOM     34  C   UNL     1      -3.349   9.865  15.328  0.00  0.00    +0.000 A 
ATOM     35  C   UNL     1      -4.179  10.968  15.498  0.00  0.00    +0.000 A 
ATOM     36  C   UNL     1      -4.229  11.668  16.723  0.00  0.00    +0.000 A 
ENDBRANCH   5  31
TORSDOF 4
ENDMDL
MODEL 8
REMARK VINA RESULT:      -7.4      2.130      3.243
REMARK  Name = 
REMARK  4 active torsions:
REMARK  status: ('A' for Active; 'I' for Inactive)
REMARK    1  A    between atoms: C_2  and  C_3
REMARK    2  A    between atoms: C_4  and  C_5
REMARK    3  A    between atoms: C_11  and  C_12
REMARK    4  A    between atoms: N_19  and  C_20
REMARK                            x       y       z     vdW  Elec       q    Type
REMARK                         _______ _______ _______ _____ _____    ______ ____
ROOT
ATOM      1  C   UNL     1      -0.357  13.298  19.947  0.00  0.00    +0.000 A 
ATOM      2  C   UNL     1      -0.122  14.647  20.255  0.00  0.00    +0.000 A 
ATOM      3  C   UNL     1       0.758  14.599  21.405  0.00  0.00    +0.000 A 
ATOM      4  N   UNL     1       0.854  13.358  21.877  0.00  0.00    +0.000 NA
ATOM      5  N   UNL     1       0.184  12.582  21.003  0.00  0.00    +0.000 N 
ENDROOT
BRANCH   1   7
ATOM      6  O   UNL     1      -0.933  12.468  17.901  0.00  0.00    +0.000 OA
ATOM      7  C   UNL     1      -1.320  12.699  19.052  0.00  0.00    +0.000 C 
ATOM      8  N   UNL     1      -2.677  12.520  19.368  0.00  0.00    +0.000 N 
ATOM      9  C   UNL     1      -3.511  11.642  18.591  0.00  0.00    +0.000 A 
ATOM     10  S   UNL     1      -3.113  10.328  17.644  0.00  0.00    +0.000 S 
ATOM     11  N   UNL     1      -4.839  11.918  18.935  0.00  0.00    +0.000 N 
ATOM     12  C   UNL     1      -4.829  12.703  20.099  0.00  0.00    +0.000 A 
ATOM     13  C   UNL     1      -5.898  12.853  20.937  0.00  0.00    +0.000 A 
ATOM     14  C   UNL     1      -5.613  12.707  22.276  0.00  0.00    +0.000 A 
ATOM     15  C   UNL     1      -4.297  12.919  22.699  0.00  0.00    +0.000 A 
ATOM     16  C   UNL     1      -3.262  13.221  21.784  0.00  0.00    +0.000 A 
ATOM     17  C   UNL     1      -3.515  12.941  20.455  0.00  0.00    +0.000 A 
ATOM     18  H   UNL     1      -5.585  11.283  18.690  0.00  0.00    +0.000 HD
ENDBRANCH   1   7
BRANCH   2  19
ATOM     19  C   UNL     1      -0.745  15.832  19.618  0.00  0.00    +0.000 A 
ATOM     20  C   UNL     1      -1.877  16.444  20.175  0.00  0.00    +0.000 A 
ATOM     21  C   UNL     1      -2.426  17.629  19.646  0.00  0.00    +0.000 A 
ATOM     22  C   UNL     1      -1.856  18.238  18.535  0.00  0.00    +0.000 A 
ATOM     23  C   UNL     1      -0.772  17.634  17.931  0.00  0.00    +0.000 A 
ATOM     24  C   UNL     1      -0.261  16.444  18.458  0.00  0.00    +0.000 A 
ENDBRANCH   2  19
BRANCH   3  25
ATOM     25  C   UNL     1       1.489  15.662  22.103  0.00  0.00    +0.000 A 
ATOM     26  C   UNL     1       0.811  16.611  22.887  0.00  0.00    +0.000 A 
ATOM     27  C   UNL     1       1.513  17.624  23.547  0.00  0.00    +0.000 A 
ATOM     28  C   UNL     1       2.899  17.700  23.426  0.00  0.00    +0.000 A 
ATOM     29  C   UNL     1       3.584  16.750  22.674  0.00  0.00    +0.000 A 
ATOM     30  C   UNL     1       2.884  15.726  22.034  0.00  0.00    +0.000 A 
ENDBRANCH   3  25
BRANCH   5  31
ATOM     31  C   UNL     1       0.145  11.176  21.301  0.00  0.00    +0.000 A 
ATOM     32  C   UNL     1       0.809  10.269  20.461  0.00  0.00    +0.000 A 
ATOM     33  C   UNL     1       0.809   8.879  20.731  0.00  0.00    +0.000 A 
ATOM     34  C   UNL     1       0.150   8.394  21.846  0.00  0.00    +0.000 A 
ATOM     35  C   UNL     1      -0.542   9.284  22.662  0.00  0.00    +0.000 A 
ATOM     36  C   UNL     1      -0.539  10.672  22.403  0.00  0.00    +0.000 A 
ENDBRANCH   5  31
TORSDOF 4
ENDMDL
MODEL 9
REMARK VINA RESULT:      -7.3      1.990      3.045
REMARK  Name = 
REMARK  4 active torsions:
REMARK  status: ('A' for Active; 'I' for Inactive)
REMARK    1  A    between atoms: C_2  and  C_3
REMARK    2  A    between atoms: C_4  and  C_5
REMARK    3  A    between atoms: C_11  and  C_12
REMARK    4  A    between atoms: N_19  and  C_20
REMARK                            x       y       z     vdW  Elec       q    Type
REMARK                         _______ _______ _______ _____ _____    ______ ____
ROOT
ATOM      1  C   UNL     1      -0.178  13.304  19.835  0.00  0.00    +0.000 A 
ATOM      2  C   UNL     1       0.150  14.633  20.145  0.00  0.00    +0.000 A 
ATOM      3  C   UNL     1       1.141  14.517  21.196  0.00  0.00    +0.000 A 
ATOM      4  N   UNL     1       1.228  13.261  21.628  0.00  0.00    +0.000 NA
ATOM      5  N   UNL     1       0.436  12.538  20.813  0.00  0.00    +0.000 N 
ENDROOT
BRANCH   1   7
ATOM      6  O   UNL     1      -1.006  12.571  17.839  0.00  0.00    +0.000 OA
ATOM      7  C   UNL     1      -1.255  12.771  19.033  0.00  0.00    +0.000 C 
ATOM      8  N   UNL     1      -2.574  12.625  19.492  0.00  0.00    +0.000 N 
ATOM      9  C   UNL     1      -3.520  11.804  18.784  0.00  0.00    +0.000 A 
ATOM     10  S   UNL     1      -3.278  10.515  17.754  0.00  0.00    +0.000 S 
ATOM     11  N   UNL     1      -4.792  12.111  19.283  0.00  0.00    +0.000 N 
ATOM     12  C   UNL     1      -4.624  12.850  20.465  0.00  0.00    +0.000 A 
ATOM     13  C   UNL     1      -5.588  13.002  21.421  0.00  0.00    +0.000 A 
ATOM     14  C   UNL     1      -5.163  12.797  22.714  0.00  0.00    +0.000 A 
ATOM     15  C   UNL     1      -3.801  12.949  22.995  0.00  0.00    +0.000 A 
ATOM     16  C   UNL     1      -2.864  13.252  21.981  0.00  0.00    +0.000 A 
ATOM     17  C   UNL     1      -3.271  13.031  20.680  0.00  0.00    +0.000 A 
ATOM     18  H   UNL     1      -5.583  11.509  19.101  0.00  0.00    +0.000 HD
ENDBRANCH   1   7
BRANCH   2  19
ATOM     19  C   UNL     1      -0.480  15.861  19.602  0.00  0.00    +0.000 A 
ATOM     20  C   UNL     1       0.026  16.490  18.457  0.00  0.00    +0.000 A 
ATOM     21  C   UNL     1      -0.613  17.596  17.863  0.00  0.00    +0.000 A 
ATOM     22  C   UNL     1      -1.784  18.110  18.404  0.00  0.00    +0.000 A 
ATOM     23  C   UNL     1      -2.283  17.546  19.562  0.00  0.00    +0.000 A 
ATOM     24  C   UNL     1      -1.616  16.466  20.147  0.00  0.00    +0.000 A 
ENDBRANCH   2  19
BRANCH   3  25
ATOM     25  C   UNL     1       1.989  15.529  21.835  0.00  0.00    +0.000 A 
ATOM     26  C   UNL     1       3.349  15.646  21.506  0.00  0.00    +0.000 A 
ATOM     27  C   UNL     1       4.153  16.609  22.121  0.00  0.00    +0.000 A 
ATOM     28  C   UNL     1       3.604  17.464  23.075  0.00  0.00    +0.000 A 
ATOM     29  C   UNL     1       2.251  17.376  23.391  0.00  0.00    +0.000 A 
ATOM     30  C   UNL     1       1.445  16.427  22.759  0.00  0.00    +0.000 A 
ENDBRANCH   3  25
BRANCH   5  31
ATOM     31  C   UNL     1       0.363  11.128  21.083  0.00  0.00    +0.000 A 
ATOM     32  C   UNL     1       0.998  10.221  20.222  0.00  0.00    +0.000 A 
ATOM     33  C   UNL     1       0.965   8.826  20.465  0.00  0.00    +0.000 A 
ATOM     34  C   UNL     1       0.300   8.337  21.575  0.00  0.00    +0.000 A 
ATOM     35  C   UNL     1      -0.364   9.228  22.412  0.00  0.00    +0.000 A 
ATOM     36  C   UNL     1      -0.327  10.620  22.181  0.00  0.00    +0.000 A 
ENDBRANCH   5  31
TORSDOF 4
ENDMDL
