MODEL 1
REMARK VINA RESULT:      -8.5      0.000      0.000
REMARK  Name = 
REMARK  3 active torsions:
REMARK  status: ('A' for Active; 'I' for Inactive)
REMARK    1  A    between atoms: C_2  and  C_14
REMARK    2  A    between atoms: N_3  and  C_4
REMARK    3  A    between atoms: C_17  and  C_18
REMARK                            x       y       z     vdW  Elec       q    Type
REMARK                         _______ _______ _______ _____ _____    ______ ____
ROOT
ATOM      1  O   UNL     1       6.244   4.126  16.612  0.00  0.00    +0.000 OA
ATOM      2  C   UNL     1       6.089   4.801  17.629  0.00  0.00    +0.000 C 
ATOM      3  N   UNL     1       5.146   4.497  18.578  0.00  0.00    +0.000 N 
ATOM      4  H   UNL     1       5.044   5.104  19.391  0.00  0.00    +0.000 HD
ENDROOT
BRANCH   3   5
ATOM      5  C   UNL     1       4.192   3.411  18.382  0.00  0.00    +0.000 C 
ATOM      6  C   UNL     1       3.406   3.600  17.082  0.00  0.00    +0.000 C 
ATOM      7  C   UNL     1       2.295   4.610  17.318  0.00  0.00    +0.000 C 
ATOM      8  O   UNL     1       1.340   4.131  18.269  0.00  0.00    +0.000 OA
ATOM      9  C   UNL     1       1.887   3.582  19.394  0.00  0.00    +0.000 A 
ATOM     10  C   UNL     1       1.006   3.277  20.428  0.00  0.00    +0.000 A 
ATOM     11  C   UNL     1       1.490   2.681  21.587  0.00  0.00    +0.000 A 
ATOM     12  C   UNL     1       2.847   2.424  21.673  0.00  0.00    +0.000 A 
ATOM     13  N   UNL     1       3.729   2.697  20.686  0.00  0.00    +0.000 NA
ATOM     14  C   UNL     1       3.235   3.252  19.545  0.00  0.00    +0.000 A 
ENDBRANCH   3   5
BRANCH   2  15
ATOM     15  C   UNL     1       6.894   6.035  17.864  0.00  0.00    +0.000 A 
ATOM     16  C   UNL     1       6.645   7.111  17.091  0.00  0.00    +0.000 A 
ATOM     17  C   UNL     1       7.321   8.374  17.296  0.00  0.00    +0.000 A 
ATOM     18  C   UNL     1       8.225   8.512  18.280  0.00  0.00    +0.000 A 
ATOM     19  N   UNL     1       8.511   7.409  19.071  0.00  0.00    +0.000 N 
ATOM     20  C   UNL     1       7.918   6.173  18.939  0.00  0.00    +0.000 A 
ATOM     21  O   UNL     1       8.214   5.244  19.688  0.00  0.00    +0.000 OA
ATOM     22  H   UNL     1       9.200   7.495  19.815  0.00  0.00    +0.000 HD
BRANCH  18  23
ATOM     23  C   UNL     1       8.929   9.819  18.570  0.00  0.00    +0.000 C 
ATOM     24  F   UNL     1       8.052  10.856  18.616  0.00  0.00    +0.000 F 
ATOM     25  F   UNL     1       9.579   9.796  19.761  0.00  0.00    +0.000 F 
ATOM     26  F   UNL     1       9.846  10.119  17.618  0.00  0.00    +0.000 F 
ENDBRANCH  18  23
ENDBRANCH   2  15
TORSDOF 3
ENDMDL
MODEL 2
REMARK VINA RESULT:      -7.9      5.505      6.554
REMARK  Name = 
REMARK  3 active torsions:
REMARK  status: ('A' for Active; 'I' for Inactive)
REMARK    1  A    between atoms: C_2  and  C_14
REMARK    2  A    between atoms: N_3  and  C_4
REMARK    3  A    between atoms: C_17  and  C_18
REMARK                            x       y       z     vdW  Elec       q    Type
REMARK                         _______ _______ _______ _____ _____    ______ ____
ROOT
ATOM      1  O   UNL     1       1.720   7.450  21.192  0.00  0.00    +0.000 OA
ATOM      2  C   UNL     1       1.774   7.842  20.027  0.00  0.00    +0.000 C 
ATOM      3  N   UNL     1       2.420   7.139  19.042  0.00  0.00    +0.000 N 
ATOM      4  H   UNL     1       2.455   7.522  18.097  0.00  0.00    +0.000 HD
ENDROOT
BRANCH   3   5
ATOM      5  C   UNL     1       3.183   5.932  19.343  0.00  0.00    +0.000 C 
ATOM      6  C   UNL     1       4.506   5.913  18.573  0.00  0.00    +0.000 C 
ATOM      7  C   UNL     1       4.242   5.458  17.147  0.00  0.00    +0.000 C 
ATOM      8  O   UNL     1       3.762   4.112  17.104  0.00  0.00    +0.000 OA
ATOM      9  C   UNL     1       2.773   3.833  18.005  0.00  0.00    +0.000 A 
ATOM     10  C   UNL     1       2.142   2.599  17.874  0.00  0.00    +0.000 A 
ATOM     11  C   UNL     1       1.154   2.235  18.781  0.00  0.00    +0.000 A 
ATOM     12  C   UNL     1       0.821   3.132  19.781  0.00  0.00    +0.000 A 
ATOM     13  N   UNL     1       1.418   4.333  19.944  0.00  0.00    +0.000 NA
ATOM     14  C   UNL     1       2.406   4.662  19.067  0.00  0.00    +0.000 A 
ENDBRANCH   3   5
BRANCH   2  15
ATOM     15  C   UNL     1       1.174   9.148  19.626  0.00  0.00    +0.000 A 
ATOM     16  C   UNL     1       0.410   9.797  20.527  0.00  0.00    +0.000 A 
ATOM     17  C   UNL     1      -0.151  11.103  20.257  0.00  0.00    +0.000 A 
ATOM     18  C   UNL     1       0.084  11.716  19.084  0.00  0.00    +0.000 A 
ATOM     19  N   UNL     1       0.849  11.054  18.136  0.00  0.00    +0.000 N 
ATOM     20  C   UNL     1       1.413   9.810  18.312  0.00  0.00    +0.000 A 
ATOM     21  O   UNL     1       2.093   9.291  17.429  0.00  0.00    +0.000 OA
ATOM     22  H   UNL     1       1.028  11.502  17.240  0.00  0.00    +0.000 HD
BRANCH  18  23
ATOM     23  C   UNL     1      -0.438  13.100  18.764  0.00  0.00    +0.000 C 
ATOM     24  F   UNL     1      -1.528  13.406  19.514  0.00  0.00    +0.000 F 
ATOM     25  F   UNL     1       0.490  14.062  19.000  0.00  0.00    +0.000 F 
ATOM     26  F   UNL     1      -0.808  13.210  17.464  0.00  0.00    +0.000 F 
ENDBRANCH  18  23
ENDBRANCH   2  15
TORSDOF 3
ENDMDL
MODEL 3
REMARK VINA RESULT:      -7.9      4.139      5.056
REMARK  Name = 
REMARK  3 active torsions:
REMARK  status: ('A' for Active; 'I' for Inactive)
REMARK    1  A    between atoms: C_2  and  C_14
REMARK    2  A    between atoms: N_3  and  C_4
REMARK    3  A    between atoms: C_17  and  C_18
REMARK                            x       y       z     vdW  Elec       q    Type
REMARK                         _______ _______ _______ _____ _____    ______ ____
ROOT
ATOM      1  O   UNL     1       6.337   5.461  18.288  0.00  0.00    +0.000 OA
ATOM      2  C   UNL     1       5.828   4.620  17.547  0.00  0.00    +0.000 C 
ATOM      3  N   UNL     1       4.908   3.706  17.992  0.00  0.00    +0.000 N 
ATOM      4  H   UNL     1       4.535   3.015  17.341  0.00  0.00    +0.000 HD
ENDROOT
BRANCH   3   5
ATOM      5  C   UNL     1       4.558   3.605  19.405  0.00  0.00    +0.000 C 
ATOM      6  C   UNL     1       4.437   2.140  19.836  0.00  0.00    +0.000 C 
ATOM      7  C   UNL     1       3.080   1.608  19.404  0.00  0.00    +0.000 C 
ATOM      8  O   UNL     1       2.011   2.286  20.070  0.00  0.00    +0.000 OA
ATOM      9  C   UNL     1       2.131   3.647  20.093  0.00  0.00    +0.000 A 
ATOM     10  C   UNL     1       1.029   4.360  20.558  0.00  0.00    +0.000 A 
ATOM     11  C   UNL     1       1.096   5.746  20.644  0.00  0.00    +0.000 A 
ATOM     12  C   UNL     1       2.265   6.370  20.246  0.00  0.00    +0.000 A 
ATOM     13  N   UNL     1       3.357   5.710  19.801  0.00  0.00    +0.000 NA
ATOM     14  C   UNL     1       3.287   4.351  19.751  0.00  0.00    +0.000 A 
ENDBRANCH   3   5
BRANCH   2  15
ATOM     15  C   UNL     1       6.230   4.515  16.114  0.00  0.00    +0.000 A 
ATOM     16  C   UNL     1       5.659   3.550  15.366  0.00  0.00    +0.000 A 
ATOM     17  C   UNL     1       5.928   3.419  13.950  0.00  0.00    +0.000 A 
ATOM     18  C   UNL     1       6.762   4.272  13.333  0.00  0.00    +0.000 A 
ATOM     19  N   UNL     1       7.377   5.258  14.091  0.00  0.00    +0.000 N 
ATOM     20  C   UNL     1       7.180   5.446  15.441  0.00  0.00    +0.000 A 
ATOM     21  O   UNL     1       7.750   6.353  16.044  0.00  0.00    +0.000 OA
ATOM     22  H   UNL     1       8.017   5.906  13.639  0.00  0.00    +0.000 HD
BRANCH  18  23
ATOM     23  C   UNL     1       7.045   4.212  11.847  0.00  0.00    +0.000 C 
ATOM     24  F   UNL     1       5.901   4.080  11.128  0.00  0.00    +0.000 F 
ATOM     25  F   UNL     1       7.668   5.332  11.401  0.00  0.00    +0.000 F 
ATOM     26  F   UNL     1       7.837   3.159  11.528  0.00  0.00    +0.000 F 
ENDBRANCH  18  23
ENDBRANCH   2  15
TORSDOF 3
ENDMDL
MODEL 4
REMARK VINA RESULT:      -7.8      4.565      6.780
REMARK  Name = 
REMARK  3 active torsions:
REMARK  status: ('A' for Active; 'I' for Inactive)
REMARK    1  A    between atoms: C_2  and  C_14
REMARK    2  A    between atoms: N_3  and  C_4
REMARK    3  A    between atoms: C_17  and  C_18
REMARK                            x       y       z     vdW  Elec       q    Type
REMARK                         _______ _______ _______ _____ _____    ______ ____
ROOT
ATOM      1  O   UNL     1       2.843   4.840  19.763  0.00  0.00    +0.000 OA
ATOM      2  C   UNL     1       3.129   5.936  19.283  0.00  0.00    +0.000 C 
ATOM      3  N   UNL     1       4.252   6.136  18.520  0.00  0.00    +0.000 N 
ATOM      4  H   UNL     1       4.455   7.070  18.167  0.00  0.00    +0.000 HD
ENDROOT
BRANCH   3   5
ATOM      5  C   UNL     1       5.237   5.078  18.325  0.00  0.00    +0.000 C 
ATOM      6  C   UNL     1       6.487   5.328  19.173  0.00  0.00    +0.000 C 
ATOM      7  C   UNL     1       7.364   6.352  18.472  0.00  0.00    +0.000 C 
ATOM      8  O   UNL     1       7.851   5.860  17.220  0.00  0.00    +0.000 OA
ATOM      9  C   UNL     1       6.903   5.260  16.439  0.00  0.00    +0.000 A 
ATOM     10  C   UNL     1       7.283   4.938  15.139  0.00  0.00    +0.000 A 
ATOM     11  C   UNL     1       6.380   4.291  14.303  0.00  0.00    +0.000 A 
ATOM     12  C   UNL     1       5.120   4.004  14.797  0.00  0.00    +0.000 A 
ATOM     13  N   UNL     1       4.721   4.293  16.056  0.00  0.00    +0.000 NA
ATOM     14  C   UNL     1       5.627   4.898  16.873  0.00  0.00    +0.000 A 
ENDBRANCH   3   5
BRANCH   2  15
ATOM     15  C   UNL     1       2.286   7.138  19.551  0.00  0.00    +0.000 A 
ATOM     16  C   UNL     1       1.690   7.237  20.756  0.00  0.00    +0.000 A 
ATOM     17  C   UNL     1       0.916   8.400  21.134  0.00  0.00    +0.000 A 
ATOM     18  C   UNL     1       0.775   9.431  20.283  0.00  0.00    +0.000 A 
ATOM     19  N   UNL     1       1.362   9.336  19.030  0.00  0.00    +0.000 N 
ATOM     20  C   UNL     1       2.108   8.264  18.591  0.00  0.00    +0.000 A 
ATOM     21  O   UNL     1       2.611   8.259  17.470  0.00  0.00    +0.000 OA
ATOM     22  H   UNL     1       1.257  10.105  18.372  0.00  0.00    +0.000 HD
BRANCH  18  23
ATOM     23  C   UNL     1       0.017  10.690  20.640  0.00  0.00    +0.000 C 
ATOM     24  F   UNL     1      -1.102  10.829  19.884  0.00  0.00    +0.000 F 
ATOM     25  F   UNL     1      -0.378  10.697  21.939  0.00  0.00    +0.000 F 
ATOM     26  F   UNL     1       0.768  11.802  20.444  0.00  0.00    +0.000 F 
ENDBRANCH  18  23
ENDBRANCH   2  15
TORSDOF 3
ENDMDL
MODEL 5
REMARK VINA RESULT:      -7.8      5.547      7.170
REMARK  Name = 
REMARK  3 active torsions:
REMARK  status: ('A' for Active; 'I' for Inactive)
REMARK    1  A    between atoms: C_2  and  C_14
REMARK    2  A    between atoms: N_3  and  C_4
REMARK    3  A    between atoms: C_17  and  C_18
REMARK                            x       y       z     vdW  Elec       q    Type
REMARK                         _______ _______ _______ _____ _____    ______ ____
ROOT
ATOM      1  O   UNL     1       2.252   8.687  17.286  0.00  0.00    +0.000 OA
ATOM      2  C   UNL     1       2.135   8.265  18.435  0.00  0.00    +0.000 C 
ATOM      3  N   UNL     1       2.605   7.035  18.821  0.00  0.00    +0.000 N 
ATOM      4  H   UNL     1       2.460   6.724  19.781  0.00  0.00    +0.000 HD
ENDROOT
BRANCH   3   5
ATOM      5  C   UNL     1       3.175   6.101  17.855  0.00  0.00    +0.000 C 
ATOM      6  C   UNL     1       2.580   4.701  18.028  0.00  0.00    +0.000 C 
ATOM      7  C   UNL     1       3.273   4.010  19.191  0.00  0.00    +0.000 C 
ATOM      8  O   UNL     1       4.662   3.798  18.926  0.00  0.00    +0.000 OA
ATOM      9  C   UNL     1       5.313   4.885  18.412  0.00  0.00    +0.000 A 
ATOM     10  C   UNL     1       6.699   4.791  18.318  0.00  0.00    +0.000 A 
ATOM     11  C   UNL     1       7.421   5.844  17.769  0.00  0.00    +0.000 A 
ATOM     12  C   UNL     1       6.726   6.964  17.347  0.00  0.00    +0.000 A 
ATOM     13  N   UNL     1       5.381   7.085  17.414  0.00  0.00    +0.000 NA
ATOM     14  C   UNL     1       4.686   6.033  17.926  0.00  0.00    +0.000 A 
ENDBRANCH   3   5
BRANCH   2  15
ATOM     15  C   UNL     1       1.421   9.060  19.477  0.00  0.00    +0.000 A 
ATOM     16  C   UNL     1       1.024  10.308  19.160  0.00  0.00    +0.000 A 
ATOM     17  C   UNL     1       0.258  11.124  20.078  0.00  0.00    +0.000 A 
ATOM     18  C   UNL     1      -0.087  10.650  21.286  0.00  0.00    +0.000 A 
ATOM     19  N   UNL     1       0.332   9.375  21.639  0.00  0.00    +0.000 N 
ATOM     20  C   UNL     1       1.066   8.538  20.828  0.00  0.00    +0.000 A 
ATOM     21  O   UNL     1       1.389   7.414  21.205  0.00  0.00    +0.000 OA
ATOM     22  H   UNL     1       0.084   9.006  22.554  0.00  0.00    +0.000 HD
BRANCH  18  23
ATOM     23  C   UNL     1      -0.925  11.440  22.268  0.00  0.00    +0.000 C 
ATOM     24  F   UNL     1      -2.130  11.773  21.738  0.00  0.00    +0.000 F 
ATOM     25  F   UNL     1      -1.170  10.743  23.406  0.00  0.00    +0.000 F 
ATOM     26  F   UNL     1      -0.318  12.598  22.629  0.00  0.00    +0.000 F 
ENDBRANCH  18  23
ENDBRANCH   2  15
TORSDOF 3
ENDMDL
MODEL 6
REMARK VINA RESULT:      -7.7      4.539      6.702
REMARK  Name = 
REMARK  3 active torsions:
REMARK  status: ('A' for Active; 'I' for Inactive)
REMARK    1  A    between atoms: C_2  and  C_14
REMARK    2  A    between atoms: N_3  and  C_4
REMARK    3  A    between atoms: C_17  and  C_18
REMARK                            x       y       z     vdW  Elec       q    Type
REMARK                         _______ _______ _______ _____ _____    ______ ____
ROOT
ATOM      1  O   UNL     1       2.191   5.318  18.215  0.00  0.00    +0.000 OA
ATOM      2  C   UNL     1       2.865   6.333  18.389  0.00  0.00    +0.000 C 
ATOM      3  N   UNL     1       4.236   6.327  18.326  0.00  0.00    +0.000 N 
ATOM      4  H   UNL     1       4.747   7.191  18.502  0.00  0.00    +0.000 HD
ENDROOT
BRANCH   3   5
ATOM      5  C   UNL     1       4.984   5.086  18.157  0.00  0.00    +0.000 C 
ATOM      6  C   UNL     1       6.103   4.974  19.196  0.00  0.00    +0.000 C 
ATOM      7  C   UNL     1       7.285   5.815  18.743  0.00  0.00    +0.000 C 
ATOM      8  O   UNL     1       7.850   5.318  17.527  0.00  0.00    +0.000 OA
ATOM      9  C   UNL     1       6.935   5.016  16.558  0.00  0.00    +0.000 A 
ATOM     10  C   UNL     1       7.442   4.713  15.298  0.00  0.00    +0.000 A 
ATOM     11  C   UNL     1       6.569   4.359  14.276  0.00  0.00    +0.000 A 
ATOM     12  C   UNL     1       5.213   4.337  14.551  0.00  0.00    +0.000 A 
ATOM     13  N   UNL     1       4.687   4.615  15.765  0.00  0.00    +0.000 NA
ATOM     14  C   UNL     1       5.557   4.930  16.764  0.00  0.00    +0.000 A 
ENDBRANCH   3   5
BRANCH   2  15
ATOM     15  C   UNL     1       2.222   7.634  18.735  0.00  0.00    +0.000 A 
ATOM     16  C   UNL     1       2.140   8.575  17.774  0.00  0.00    +0.000 A 
ATOM     17  C   UNL     1       1.466   9.837  17.993  0.00  0.00    +0.000 A 
ATOM     18  C   UNL     1       0.891  10.105  19.177  0.00  0.00    +0.000 A 
ATOM     19  N   UNL     1       0.984   9.158  20.186  0.00  0.00    +0.000 N 
ATOM     20  C   UNL     1       1.611   7.938  20.061  0.00  0.00    +0.000 A 
ATOM     21  O   UNL     1       1.641   7.142  20.997  0.00  0.00    +0.000 OA
ATOM     22  H   UNL     1       0.560   9.351  21.091  0.00  0.00    +0.000 HD
BRANCH  18  23
ATOM     23  C   UNL     1       0.134  11.387  19.449  0.00  0.00    +0.000 C 
ATOM     24  F   UNL     1       0.447  11.901  20.666  0.00  0.00    +0.000 F 
ATOM     25  F   UNL     1       0.410  12.347  18.529  0.00  0.00    +0.000 F 
ATOM     26  F   UNL     1      -1.208  11.193  19.434  0.00  0.00    +0.000 F 
ENDBRANCH  18  23
ENDBRANCH   2  15
TORSDOF 3
ENDMDL
MODEL 7
REMARK VINA RESULT:      -7.6      7.154      8.421
REMARK  Name = 
REMARK  3 active torsions:
REMARK  status: ('A' for Active; 'I' for Inactive)
REMARK    1  A    between atoms: C_2  and  C_14
REMARK    2  A    between atoms: N_3  and  C_4
REMARK    3  A    between atoms: C_17  and  C_18
REMARK                            x       y       z     vdW  Elec       q    Type
REMARK                         _______ _______ _______ _____ _____    ______ ____
ROOT
ATOM      1  O   UNL     1       2.145  10.958  17.899  0.00  0.00    +0.000 OA
ATOM      2  C   UNL     1       1.407  10.036  18.244  0.00  0.00    +0.000 C 
ATOM      3  N   UNL     1       0.052  10.191  18.387  0.00  0.00    +0.000 N 
ATOM      4  H   UNL     1      -0.511   9.399  18.699  0.00  0.00    +0.000 HD
ENDROOT
BRANCH   3   5
ATOM      5  C   UNL     1      -0.584  11.496  18.247  0.00  0.00    +0.000 C 
ATOM      6  C   UNL     1      -0.434  12.320  19.528  0.00  0.00    +0.000 C 
ATOM      7  C   UNL     1      -1.472  11.860  20.538  0.00  0.00    +0.000 C 
ATOM      8  O   UNL     1      -2.803  12.117  20.079  0.00  0.00    +0.000 OA
ATOM      9  C   UNL     1      -3.036  11.751  18.783  0.00  0.00    +0.000 A 
ATOM     10  C   UNL     1      -4.359  11.803  18.352  0.00  0.00    +0.000 A 
ATOM     11  C   UNL     1      -4.663  11.481  17.034  0.00  0.00    +0.000 A 
ATOM     12  C   UNL     1      -3.627  11.103  16.198  0.00  0.00    +0.000 A 
ATOM     13  N   UNL     1      -2.332  11.052  16.579  0.00  0.00    +0.000 NA
ATOM     14  C   UNL     1      -2.046  11.400  17.864  0.00  0.00    +0.000 A 
ENDBRANCH   3   5
BRANCH   2  15
ATOM     15  C   UNL     1       1.962   8.691  18.578  0.00  0.00    +0.000 A 
ATOM     16  C   UNL     1       2.710   8.066  17.649  0.00  0.00    +0.000 A 
ATOM     17  C   UNL     1       3.352   6.795  17.911  0.00  0.00    +0.000 A 
ATOM     18  C   UNL     1       3.222   6.200  19.108  0.00  0.00    +0.000 A 
ATOM     19  N   UNL     1       2.437   6.818  20.070  0.00  0.00    +0.000 N 
ATOM     20  C   UNL     1       1.789   8.021  19.899  0.00  0.00    +0.000 A 
ATOM     21  O   UNL     1       1.121   8.516  20.805  0.00  0.00    +0.000 OA
ATOM     22  H   UNL     1       2.322   6.375  20.978  0.00  0.00    +0.000 HD
BRANCH  18  23
ATOM     23  C   UNL     1       3.907   4.895  19.453  0.00  0.00    +0.000 C 
ATOM     24  F   UNL     1       3.865   4.022  18.414  0.00  0.00    +0.000 F 
ATOM     25  F   UNL     1       5.214   5.074  19.771  0.00  0.00    +0.000 F 
ATOM     26  F   UNL     1       3.318   4.282  20.509  0.00  0.00    +0.000 F 
ENDBRANCH  18  23
ENDBRANCH   2  15
TORSDOF 3
ENDMDL
MODEL 8
REMARK VINA RESULT:      -7.6      0.999      1.614
REMARK  Name = 
REMARK  3 active torsions:
REMARK  status: ('A' for Active; 'I' for Inactive)
REMARK    1  A    between atoms: C_2  and  C_14
REMARK    2  A    between atoms: N_3  and  C_4
REMARK    3  A    between atoms: C_17  and  C_18
REMARK                            x       y       z     vdW  Elec       q    Type
REMARK                         _______ _______ _______ _____ _____    ______ ____
ROOT
ATOM      1  O   UNL     1       6.757   3.909  17.120  0.00  0.00    +0.000 OA
ATOM      2  C   UNL     1       6.263   4.760  17.859  0.00  0.00    +0.000 C 
ATOM      3  N   UNL     1       5.141   4.520  18.612  0.00  0.00    +0.000 N 
ATOM      4  H   UNL     1       4.759   5.269  19.190  0.00  0.00    +0.000 HD
ENDROOT
BRANCH   3   5
ATOM      5  C   UNL     1       4.400   3.270  18.497  0.00  0.00    +0.000 C 
ATOM      6  C   UNL     1       3.867   3.078  17.074  0.00  0.00    +0.000 C 
ATOM      7  C   UNL     1       2.605   3.907  16.902  0.00  0.00    +0.000 C 
ATOM      8  O   UNL     1       1.555   3.454  17.762  0.00  0.00    +0.000 OA
ATOM      9  C   UNL     1       1.939   3.224  19.054  0.00  0.00    +0.000 A 
ATOM     10  C   UNL     1       0.922   2.969  19.968  0.00  0.00    +0.000 A 
ATOM     11  C   UNL     1       1.244   2.688  21.291  0.00  0.00    +0.000 A 
ATOM     12  C   UNL     1       2.580   2.689  21.653  0.00  0.00    +0.000 A 
ATOM     13  N   UNL     1       3.593   2.923  20.790  0.00  0.00    +0.000 NA
ATOM     14  C   UNL     1       3.263   3.166  19.492  0.00  0.00    +0.000 A 
ENDBRANCH   3   5
BRANCH   2  15
ATOM     15  C   UNL     1       6.835   6.136  17.937  0.00  0.00    +0.000 A 
ATOM     16  C   UNL     1       7.820   6.362  18.829  0.00  0.00    +0.000 A 
ATOM     17  C   UNL     1       8.488   7.642  18.923  0.00  0.00    +0.000 A 
ATOM     18  C   UNL     1       8.141   8.653  18.109  0.00  0.00    +0.000 A 
ATOM     19  N   UNL     1       7.114   8.446  17.201  0.00  0.00    +0.000 N 
ATOM     20  C   UNL     1       6.425   7.263  17.051  0.00  0.00    +0.000 A 
ATOM     21  O   UNL     1       5.534   7.150  16.213  0.00  0.00    +0.000 OA
ATOM     22  H   UNL     1       6.835   9.206  16.584  0.00  0.00    +0.000 HD
BRANCH  18  23
ATOM     23  C   UNL     1       8.835   9.998  18.132  0.00  0.00    +0.000 C 
ATOM     24  F   UNL     1       9.266  10.314  19.381  0.00  0.00    +0.000 F 
ATOM     25  F   UNL     1       9.919  10.027  17.318  0.00  0.00    +0.000 F 
ATOM     26  F   UNL     1       8.008  10.997  17.735  0.00  0.00    +0.000 F 
ENDBRANCH  18  23
ENDBRANCH   2  15
TORSDOF 3
ENDMDL
MODEL 9
REMARK VINA RESULT:      -7.4      6.663      8.114
REMARK  Name = 
REMARK  3 active torsions:
REMARK  status: ('A' for Active; 'I' for Inactive)
REMARK    1  A    between atoms: C_2  and  C_14
REMARK    2  A    between atoms: N_3  and  C_4
REMARK    3  A    between atoms: C_17  and  C_18
REMARK                            x       y       z     vdW  Elec       q    Type
REMARK                         _______ _______ _______ _____ _____    ______ ____
ROOT
ATOM      1  O   UNL     1       2.590   9.046  17.449  0.00  0.00    +0.000 OA
ATOM      2  C   UNL     1       1.891   8.515  18.311  0.00  0.00    +0.000 C 
ATOM      3  N   UNL     1       0.832   9.160  18.901  0.00  0.00    +0.000 N 
ATOM      4  H   UNL     1       0.300   8.682  19.628  0.00  0.00    +0.000 HD
ENDROOT
BRANCH   3   5
ATOM      5  C   UNL     1       0.541  10.561  18.618  0.00  0.00    +0.000 C 
ATOM      6  C   UNL     1       1.125  11.472  19.701  0.00  0.00    +0.000 C 
ATOM      7  C   UNL     1       0.200  11.465  20.906  0.00  0.00    +0.000 C 
ATOM      8  O   UNL     1      -1.079  12.025  20.592  0.00  0.00    +0.000 OA
ATOM      9  C   UNL     1      -1.625  11.570  19.425  0.00  0.00    +0.000 A 
ATOM     10  C   UNL     1      -2.944  11.937  19.173  0.00  0.00    +0.000 A 
ATOM     11  C   UNL     1      -3.550  11.542  17.986  0.00  0.00    +0.000 A 
ATOM     12  C   UNL     1      -2.814  10.777  17.098  0.00  0.00    +0.000 A 
ATOM     13  N   UNL     1      -1.529  10.412  17.306  0.00  0.00    +0.000 NA
ATOM     14  C   UNL     1      -0.940  10.833  18.458  0.00  0.00    +0.000 A 
ENDBRANCH   3   5
BRANCH   2  15
ATOM     15  C   UNL     1       2.191   7.140  18.807  0.00  0.00    +0.000 A 
ATOM     16  C   UNL     1       2.704   6.251  17.934  0.00  0.00    +0.000 A 
ATOM     17  C   UNL     1       3.098   4.919  18.341  0.00  0.00    +0.000 A 
ATOM     18  C   UNL     1       2.965   4.530  19.620  0.00  0.00    +0.000 A 
ATOM     19  N   UNL     1       2.417   5.424  20.528  0.00  0.00    +0.000 N 
ATOM     20  C   UNL     1       2.013   6.705  20.222  0.00  0.00    +0.000 A 
ATOM     21  O   UNL     1       1.549   7.446  21.085  0.00  0.00    +0.000 OA
ATOM     22  H   UNL     1       2.303   5.140  21.499  0.00  0.00    +0.000 HD
BRANCH  18  23
ATOM     23  C   UNL     1       3.402   3.167  20.112  0.00  0.00    +0.000 C 
ATOM     24  F   UNL     1       2.827   2.170  19.390  0.00  0.00    +0.000 F 
ATOM     25  F   UNL     1       4.745   2.998  20.022  0.00  0.00    +0.000 F 
ATOM     26  F   UNL     1       3.059   2.965  21.408  0.00  0.00    +0.000 F 
ENDBRANCH  18  23
ENDBRANCH   2  15
TORSDOF 3
ENDMDL
