MODEL 1
REMARK VINA RESULT:      -6.2      0.000      0.000
REMARK  Name = 
REMARK  17 active torsions:
REMARK  status: ('A' for Active; 'I' for Inactive)
REMARK    1  A    between atoms: C_1  and  C_2
REMARK    2  A    between atoms: C_2  and  C_3
REMARK    3  A    between atoms: C_3  and  C_4
REMARK    4  A    between atoms: C_4  and  C_5
REMARK    5  A    between atoms: C_5  and  C_6
REMARK    6  A    between atoms: C_6  and  C_7
REMARK    7  A    between atoms: C_7  and  C_8
REMARK    8  A    between atoms: C_8  and  C_9
REMARK    9  A    between atoms: C_9  and  C_10
REMARK   10  A    between atoms: C_10  and  C_11
REMARK   11  A    between atoms: C_11  and  C_12
REMARK   12  A    between atoms: C_12  and  C_13
REMARK   13  A    between atoms: N_15  and  C_16
REMARK   14  A    between atoms: C_16  and  C_17
REMARK   15  A    between atoms: C_19  and  C_20
REMARK   16  A    between atoms: C_21  and  O_22
REMARK   17  A    between atoms: C_23  and  O_24
REMARK                            x       y       z     vdW  Elec       q    Type
REMARK                         _______ _______ _______ _____ _____    ______ ____
ROOT
ATOM      1  C   UNL     1       2.294   7.685  18.953  0.00  0.00    +0.000 A 
ATOM      2  C   UNL     1       1.457   8.562  19.561  0.00  0.00    +0.000 A 
ATOM      3  N   UNL     1       1.232   9.548  18.692  0.00  0.00    +0.000 N 
ATOM      4  N   UNL     1       1.892   9.286  17.592  0.00  0.00    +0.000 NA
ATOM      5  N   UNL     1       2.567   8.127  17.717  0.00  0.00    +0.000 NA
ENDROOT
BRANCH   1   6
ATOM      6  C   UNL     1       2.784   6.429  19.570  0.00  0.00    +0.000 C 
BRANCH   6   7
ATOM      7  C   UNL     1       1.765   5.977  20.597  0.00  0.00    +0.000 C 
BRANCH   7   8
ATOM      8  C   UNL     1       1.158   4.628  20.229  0.00  0.00    +0.000 C 
BRANCH   8   9
ATOM      9  C   UNL     1       1.635   3.543  21.189  0.00  0.00    +0.000 C 
BRANCH   9  10
ATOM     10  C   UNL     1       2.844   2.822  20.616  0.00  0.00    +0.000 C 
BRANCH  10  11
ATOM     11  C   UNL     1       2.524   2.255  19.257  0.00  0.00    +0.000 C 
BRANCH  11  12
ATOM     12  C   UNL     1       3.644   2.599  18.291  0.00  0.00    +0.000 C 
BRANCH  12  13
ATOM     13  C   UNL     1       4.717   3.385  19.022  0.00  0.00    +0.000 C 
BRANCH  13  14
ATOM     14  C   UNL     1       5.402   4.341  18.059  0.00  0.00    +0.000 C 
BRANCH  14  15
ATOM     15  C   UNL     1       4.477   4.656  16.896  0.00  0.00    +0.000 C 
BRANCH  15  17
ATOM     16  C   UNL     1       6.602   4.174  15.678  0.00  0.00    +0.000 C 
ATOM     17  C   UNL     1       5.287   4.933  15.635  0.00  0.00    +0.000 C 
ENDBRANCH  15  17
ENDBRANCH  14  15
ENDBRANCH  13  14
ENDBRANCH  12  13
ENDBRANCH  11  12
ENDBRANCH  10  11
ENDBRANCH   9  10
ENDBRANCH   8   9
ENDBRANCH   7   8
ENDBRANCH   6   7
ENDBRANCH   1   6
BRANCH   3  18
ATOM     18  C   UNL     1       0.411  10.765  18.934  0.00  0.00    +0.000 C 
BRANCH  18  19
ATOM     19  C   UNL     1      -1.094  10.552  18.617  0.00  0.00    +0.000 C 
ATOM     20  N   UNL     1      -1.242   9.900  17.298  0.00  0.00    +0.000 NA
ATOM     21  C   UNL     1      -2.213  10.688  16.510  0.00  0.00    +0.000 C 
ATOM     22  C   UNL     1      -3.041   9.816  15.574  0.00  0.00    +0.000 C 
ATOM     23  C   UNL     1      -3.021  11.529  17.519  0.00  0.00    +0.000 C 
ATOM     24  C   UNL     1      -1.975  11.832  18.609  0.00  0.00    +0.000 C 
ATOM     25  H   UNL     1      -1.597   8.931  17.469  0.00  0.00    +0.000 HD
BRANCH  23  26
ATOM     26  O   UNL     1      -4.103  10.793  18.033  0.00  0.00    +0.000 OA
ATOM     27  H   UNL     1      -4.846  11.417  18.226  0.00  0.00    +0.000 HD
ENDBRANCH  23  26
BRANCH  24  28
ATOM     28  O   UNL     1      -2.550  12.141  19.864  0.00  0.00    +0.000 OA
ATOM     29  H   UNL     1      -3.212  12.873  19.728  0.00  0.00    +0.000 HD
ENDBRANCH  24  28
ENDBRANCH  18  19
ENDBRANCH   3  18
TORSDOF 15
ENDMDL
MODEL 2
REMARK VINA RESULT:      -6.2      6.791      9.404
REMARK  Name = 
REMARK  17 active torsions:
REMARK  status: ('A' for Active; 'I' for Inactive)
REMARK    1  A    between atoms: C_1  and  C_2
REMARK    2  A    between atoms: C_2  and  C_3
REMARK    3  A    between atoms: C_3  and  C_4
REMARK    4  A    between atoms: C_4  and  C_5
REMARK    5  A    between atoms: C_5  and  C_6
REMARK    6  A    between atoms: C_6  and  C_7
REMARK    7  A    between atoms: C_7  and  C_8
REMARK    8  A    between atoms: C_8  and  C_9
REMARK    9  A    between atoms: C_9  and  C_10
REMARK   10  A    between atoms: C_10  and  C_11
REMARK   11  A    between atoms: C_11  and  C_12
REMARK   12  A    between atoms: C_12  and  C_13
REMARK   13  A    between atoms: N_15  and  C_16
REMARK   14  A    between atoms: C_16  and  C_17
REMARK   15  A    between atoms: C_19  and  C_20
REMARK   16  A    between atoms: C_21  and  O_22
REMARK   17  A    between atoms: C_23  and  O_24
REMARK                            x       y       z     vdW  Elec       q    Type
REMARK                         _______ _______ _______ _____ _____    ______ ____
ROOT
ATOM      1  C   UNL     1       6.581   6.021  17.668  0.00  0.00    +0.000 A 
ATOM      2  C   UNL     1       5.611   5.303  17.046  0.00  0.00    +0.000 A 
ATOM      3  N   UNL     1       5.272   4.314  17.874  0.00  0.00    +0.000 N 
ATOM      4  N   UNL     1       5.991   4.422  18.962  0.00  0.00    +0.000 NA
ATOM      5  N   UNL     1       6.821   5.480  18.871  0.00  0.00    +0.000 NA
ENDROOT
BRANCH   1   6
ATOM      6  C   UNL     1       7.228   7.226  17.096  0.00  0.00    +0.000 C 
BRANCH   6   7
ATOM      7  C   UNL     1       8.102   7.848  18.167  0.00  0.00    +0.000 C 
BRANCH   7   8
ATOM      8  C   UNL     1       8.281   9.345  17.945  0.00  0.00    +0.000 C 
BRANCH   8   9
ATOM      9  C   UNL     1       9.176   9.947  19.024  0.00  0.00    +0.000 C 
BRANCH   9  10
ATOM     10  C   UNL     1       9.841  11.215  18.515  0.00  0.00    +0.000 C 
BRANCH  10  11
ATOM     11  C   UNL     1      11.103  11.496  19.289  0.00  0.00    +0.000 C 
BRANCH  11  12
ATOM     12  C   UNL     1      10.742  11.997  20.676  0.00  0.00    +0.000 C 
BRANCH  12  13
ATOM     13  C   UNL     1      10.084  13.359  20.565  0.00  0.00    +0.000 C 
BRANCH  13  14
ATOM     14  C   UNL     1      11.099  14.386  20.089  0.00  0.00    +0.000 C 
BRANCH  14  15
ATOM     15  C   UNL     1      10.386  15.554  19.431  0.00  0.00    +0.000 C 
BRANCH  15  17
ATOM     16  C   UNL     1       8.432  15.634  17.879  0.00  0.00    +0.000 C 
ATOM     17  C   UNL     1       9.861  15.150  18.059  0.00  0.00    +0.000 C 
ENDBRANCH  15  17
ENDBRANCH  14  15
ENDBRANCH  13  14
ENDBRANCH  12  13
ENDBRANCH  11  12
ENDBRANCH  10  11
ENDBRANCH   9  10
ENDBRANCH   8   9
ENDBRANCH   7   8
ENDBRANCH   6   7
ENDBRANCH   1   6
BRANCH   3  18
ATOM     18  C   UNL     1       4.281   3.239  17.601  0.00  0.00    +0.000 C 
BRANCH  18  19
ATOM     19  C   UNL     1       2.920   3.478  18.309  0.00  0.00    +0.000 C 
ATOM     20  N   UNL     1       2.903   4.823  18.924  0.00  0.00    +0.000 NA
ATOM     21  C   UNL     1       2.475   4.672  20.331  0.00  0.00    +0.000 C 
ATOM     22  C   UNL     1       1.670   5.869  20.822  0.00  0.00    +0.000 C 
ATOM     23  C   UNL     1       1.760   3.308  20.430  0.00  0.00    +0.000 C 
ATOM     24  C   UNL     1       2.537   2.453  19.412  0.00  0.00    +0.000 C 
ATOM     25  H   UNL     1       2.219   5.402  18.385  0.00  0.00    +0.000 HD
BRANCH  23  26
ATOM     26  O   UNL     1       0.405   3.426  20.077  0.00  0.00    +0.000 OA
ATOM     27  H   UNL     1      -0.148   3.161  20.854  0.00  0.00    +0.000 HD
ENDBRANCH  23  26
BRANCH  24  28
ATOM     28  O   UNL     1       1.800   1.344  18.936  0.00  0.00    +0.000 OA
ATOM     29  H   UNL     1       1.029   1.691  18.407  0.00  0.00    +0.000 HD
ENDBRANCH  24  28
ENDBRANCH  18  19
ENDBRANCH   3  18
TORSDOF 15
ENDMDL
MODEL 3
REMARK VINA RESULT:      -6.2      1.366      3.124
REMARK  Name = 
REMARK  17 active torsions:
REMARK  status: ('A' for Active; 'I' for Inactive)
REMARK    1  A    between atoms: C_1  and  C_2
REMARK    2  A    between atoms: C_2  and  C_3
REMARK    3  A    between atoms: C_3  and  C_4
REMARK    4  A    between atoms: C_4  and  C_5
REMARK    5  A    between atoms: C_5  and  C_6
REMARK    6  A    between atoms: C_6  and  C_7
REMARK    7  A    between atoms: C_7  and  C_8
REMARK    8  A    between atoms: C_8  and  C_9
REMARK    9  A    between atoms: C_9  and  C_10
REMARK   10  A    between atoms: C_10  and  C_11
REMARK   11  A    between atoms: C_11  and  C_12
REMARK   12  A    between atoms: C_12  and  C_13
REMARK   13  A    between atoms: N_15  and  C_16
REMARK   14  A    between atoms: C_16  and  C_17
REMARK   15  A    between atoms: C_19  and  C_20
REMARK   16  A    between atoms: C_21  and  O_22
REMARK   17  A    between atoms: C_23  and  O_24
REMARK                            x       y       z     vdW  Elec       q    Type
REMARK                         _______ _______ _______ _____ _____    ______ ____
ROOT
ATOM      1  C   UNL     1       2.346   8.033  18.277  0.00  0.00    +0.000 A 
ATOM      2  C   UNL     1       1.752   8.471  19.416  0.00  0.00    +0.000 A 
ATOM      3  N   UNL     1       1.355   9.723  19.188  0.00  0.00    +0.000 N 
ATOM      4  N   UNL     1       1.678  10.041  17.960  0.00  0.00    +0.000 NA
ATOM      5  N   UNL     1       2.298   9.007  17.357  0.00  0.00    +0.000 NA
ENDROOT
BRANCH   1   6
ATOM      6  C   UNL     1       2.915   6.676  18.098  0.00  0.00    +0.000 C 
BRANCH   6   7
ATOM      7  C   UNL     1       4.248   6.811  17.388  0.00  0.00    +0.000 C 
BRANCH   7   8
ATOM      8  C   UNL     1       5.300   5.886  17.989  0.00  0.00    +0.000 C 
BRANCH   8   9
ATOM      9  C   UNL     1       4.718   5.093  19.154  0.00  0.00    +0.000 C 
BRANCH   9  10
ATOM     10  C   UNL     1       4.878   3.601  18.913  0.00  0.00    +0.000 C 
BRANCH  10  11
ATOM     11  C   UNL     1       4.234   3.206  17.609  0.00  0.00    +0.000 C 
BRANCH  11  12
ATOM     12  C   UNL     1       3.015   2.346  17.890  0.00  0.00    +0.000 C 
BRANCH  12  13
ATOM     13  C   UNL     1       1.772   3.216  17.887  0.00  0.00    +0.000 C 
BRANCH  13  14
ATOM     14  C   UNL     1       0.873   2.834  19.052  0.00  0.00    +0.000 C 
BRANCH  14  15
ATOM     15  C   UNL     1       1.716   2.383  20.232  0.00  0.00    +0.000 C 
BRANCH  15  17
ATOM     16  C   UNL     1       1.268   4.799  20.679  0.00  0.00    +0.000 C 
ATOM     17  C   UNL     1       1.881   3.522  21.231  0.00  0.00    +0.000 C 
ENDBRANCH  15  17
ENDBRANCH  14  15
ENDBRANCH  13  14
ENDBRANCH  12  13
ENDBRANCH  11  12
ENDBRANCH  10  11
ENDBRANCH   9  10
ENDBRANCH   8   9
ENDBRANCH   7   8
ENDBRANCH   6   7
ENDBRANCH   1   6
BRANCH   3  18
ATOM     18  C   UNL     1       0.697  10.630  20.167  0.00  0.00    +0.000 C 
BRANCH  18  19
ATOM     19  C   UNL     1      -0.749  11.017  19.755  0.00  0.00    +0.000 C 
ATOM     20  N   UNL     1      -1.355   9.924  18.965  0.00  0.00    +0.000 NA
ATOM     21  C   UNL     1      -1.913  10.514  17.730  0.00  0.00    +0.000 C 
ATOM     22  C   UNL     1      -3.168   9.789  17.259  0.00  0.00    +0.000 C 
ATOM     23  C   UNL     1      -2.082  12.023  17.999  0.00  0.00    +0.000 C 
ATOM     24  C   UNL     1      -0.895  12.327  18.933  0.00  0.00    +0.000 C 
ATOM     25  H   UNL     1      -2.111   9.500  19.551  0.00  0.00    +0.000 HD
BRANCH  23  26
ATOM     26  O   UNL     1      -3.312  12.286  18.627  0.00  0.00    +0.000 OA
ATOM     27  H   UNL     1      -3.998  12.430  17.929  0.00  0.00    +0.000 HD
ENDBRANCH  23  26
BRANCH  24  28
ATOM     28  O   UNL     1      -1.089  13.484  19.724  0.00  0.00    +0.000 OA
ATOM     29  H   UNL     1      -0.237  14.002  19.726  0.00  0.00    +0.000 HD
ENDBRANCH  24  28
ENDBRANCH  18  19
ENDBRANCH   3  18
TORSDOF 15
ENDMDL
MODEL 4
REMARK VINA RESULT:      -6.0      7.046      9.753
REMARK  Name = 
REMARK  17 active torsions:
REMARK  status: ('A' for Active; 'I' for Inactive)
REMARK    1  A    between atoms: C_1  and  C_2
REMARK    2  A    between atoms: C_2  and  C_3
REMARK    3  A    between atoms: C_3  and  C_4
REMARK    4  A    between atoms: C_4  and  C_5
REMARK    5  A    between atoms: C_5  and  C_6
REMARK    6  A    between atoms: C_6  and  C_7
REMARK    7  A    between atoms: C_7  and  C_8
REMARK    8  A    between atoms: C_8  and  C_9
REMARK    9  A    between atoms: C_9  and  C_10
REMARK   10  A    between atoms: C_10  and  C_11
REMARK   11  A    between atoms: C_11  and  C_12
REMARK   12  A    between atoms: C_12  and  C_13
REMARK   13  A    between atoms: N_15  and  C_16
REMARK   14  A    between atoms: C_16  and  C_17
REMARK   15  A    between atoms: C_19  and  C_20
REMARK   16  A    between atoms: C_21  and  O_22
REMARK   17  A    between atoms: C_23  and  O_24
REMARK                            x       y       z     vdW  Elec       q    Type
REMARK                         _______ _______ _______ _____ _____    ______ ____
ROOT
ATOM      1  C   UNL     1       7.475   6.247  18.521  0.00  0.00    +0.000 A 
ATOM      2  C   UNL     1       6.610   5.972  17.512  0.00  0.00    +0.000 A 
ATOM      3  N   UNL     1       6.026   4.811  17.809  0.00  0.00    +0.000 N 
ATOM      4  N   UNL     1       6.500   4.393  18.956  0.00  0.00    +0.000 NA
ATOM      5  N   UNL     1       7.408   5.267  19.433  0.00  0.00    +0.000 NA
ENDROOT
BRANCH   1   6
ATOM      6  C   UNL     1       8.320   7.463  18.592  0.00  0.00    +0.000 C 
BRANCH   6   7
ATOM      7  C   UNL     1       7.805   8.458  17.570  0.00  0.00    +0.000 C 
BRANCH   7   8
ATOM      8  C   UNL     1       8.305   9.868  17.859  0.00  0.00    +0.000 C 
BRANCH   8   9
ATOM      9  C   UNL     1       9.164   9.888  19.119  0.00  0.00    +0.000 C 
BRANCH   9  10
ATOM     10  C   UNL     1      10.099  11.085  19.104  0.00  0.00    +0.000 C 
BRANCH  10  11
ATOM     11  C   UNL     1      10.440  11.506  20.511  0.00  0.00    +0.000 C 
BRANCH  11  12
ATOM     12  C   UNL     1      10.274  13.010  20.641  0.00  0.00    +0.000 C 
BRANCH  12  13
ATOM     13  C   UNL     1      10.058  13.615  19.267  0.00  0.00    +0.000 C 
BRANCH  13  14
ATOM     14  C   UNL     1       8.990  14.693  19.341  0.00  0.00    +0.000 C 
BRANCH  14  15
ATOM     15  C   UNL     1       8.774  15.304  17.967  0.00  0.00    +0.000 C 
BRANCH  15  17
ATOM     16  C   UNL     1      10.712  16.483  16.923  0.00  0.00    +0.000 C 
ATOM     17  C   UNL     1       9.520  16.629  17.854  0.00  0.00    +0.000 C 
ENDBRANCH  15  17
ENDBRANCH  14  15
ENDBRANCH  13  14
ENDBRANCH  12  13
ENDBRANCH  11  12
ENDBRANCH  10  11
ENDBRANCH   9  10
ENDBRANCH   8   9
ENDBRANCH   7   8
ENDBRANCH   6   7
ENDBRANCH   1   6
BRANCH   3  18
ATOM     18  C   UNL     1       5.038   4.081  16.970  0.00  0.00    +0.000 C 
BRANCH  18  19
ATOM     19  C   UNL     1       3.780   3.639  17.765  0.00  0.00    +0.000 C 
ATOM     20  N   UNL     1       3.284   4.764  18.587  0.00  0.00    +0.000 NA
ATOM     21  C   UNL     1       3.104   4.270  19.968  0.00  0.00    +0.000 C 
ATOM     22  C   UNL     1       1.939   4.949  20.678  0.00  0.00    +0.000 C 
ATOM     23  C   UNL     1       3.019   2.732  19.879  0.00  0.00    +0.000 C 
ATOM     24  C   UNL     1       3.965   2.416  18.706  0.00  0.00    +0.000 C 
ATOM     25  H   UNL     1       2.371   5.068  18.176  0.00  0.00    +0.000 HD
BRANCH  23  26
ATOM     26  O   UNL     1       1.703   2.318  19.607  0.00  0.00    +0.000 OA
ATOM     27  H   UNL     1       1.504   2.505  18.657  0.00  0.00    +0.000 HD
ENDBRANCH  23  26
BRANCH  24  28
ATOM     28  O   UNL     1       3.695   1.172  18.090  0.00  0.00    +0.000 OA
ATOM     29  H   UNL     1       3.080   0.661  18.685  0.00  0.00    +0.000 HD
ENDBRANCH  24  28
ENDBRANCH  18  19
ENDBRANCH   3  18
TORSDOF 15
ENDMDL
MODEL 5
REMARK VINA RESULT:      -5.9      6.707      9.600
REMARK  Name = 
REMARK  17 active torsions:
REMARK  status: ('A' for Active; 'I' for Inactive)
REMARK    1  A    between atoms: C_1  and  C_2
REMARK    2  A    between atoms: C_2  and  C_3
REMARK    3  A    between atoms: C_3  and  C_4
REMARK    4  A    between atoms: C_4  and  C_5
REMARK    5  A    between atoms: C_5  and  C_6
REMARK    6  A    between atoms: C_6  and  C_7
REMARK    7  A    between atoms: C_7  and  C_8
REMARK    8  A    between atoms: C_8  and  C_9
REMARK    9  A    between atoms: C_9  and  C_10
REMARK   10  A    between atoms: C_10  and  C_11
REMARK   11  A    between atoms: C_11  and  C_12
REMARK   12  A    between atoms: C_12  and  C_13
REMARK   13  A    between atoms: N_15  and  C_16
REMARK   14  A    between atoms: C_16  and  C_17
REMARK   15  A    between atoms: C_19  and  C_20
REMARK   16  A    between atoms: C_21  and  O_22
REMARK   17  A    between atoms: C_23  and  O_24
REMARK                            x       y       z     vdW  Elec       q    Type
REMARK                         _______ _______ _______ _____ _____    ______ ____
ROOT
ATOM      1  C   UNL     1       7.345   6.160  18.439  0.00  0.00    +0.000 A 
ATOM      2  C   UNL     1       6.117   6.189  17.862  0.00  0.00    +0.000 A 
ATOM      3  N   UNL     1       5.666   4.934  17.849  0.00  0.00    +0.000 N 
ATOM      4  N   UNL     1       6.571   4.166  18.404  0.00  0.00    +0.000 NA
ATOM      5  N   UNL     1       7.635   4.899  18.788  0.00  0.00    +0.000 NA
ENDROOT
BRANCH   1   6
ATOM      6  C   UNL     1       8.192   7.356  18.666  0.00  0.00    +0.000 C 
BRANCH   6   7
ATOM      7  C   UNL     1       7.947   8.332  17.531  0.00  0.00    +0.000 C 
BRANCH   7   8
ATOM      8  C   UNL     1       8.109   9.776  17.990  0.00  0.00    +0.000 C 
BRANCH   8   9
ATOM      9  C   UNL     1       9.153   9.877  19.097  0.00  0.00    +0.000 C 
BRANCH   9  10
ATOM     10  C   UNL     1      10.196  10.926  18.747  0.00  0.00    +0.000 C 
BRANCH  10  11
ATOM     11  C   UNL     1       9.564  12.065  17.989  0.00  0.00    +0.000 C 
BRANCH  11  12
ATOM     12  C   UNL     1      10.652  12.990  17.471  0.00  0.00    +0.000 C 
BRANCH  12  13
ATOM     13  C   UNL     1      10.264  14.430  17.748  0.00  0.00    +0.000 C 
BRANCH  13  14
ATOM     14  C   UNL     1      10.215  14.672  19.248  0.00  0.00    +0.000 C 
BRANCH  14  15
ATOM     15  C   UNL     1       9.638  16.048  19.533  0.00  0.00    +0.000 C 
BRANCH  15  17
ATOM     16  C   UNL     1       7.555  16.948  18.492  0.00  0.00    +0.000 C 
ATOM     17  C   UNL     1       9.026  16.637  18.268  0.00  0.00    +0.000 C 
ENDBRANCH  15  17
ENDBRANCH  14  15
ENDBRANCH  13  14
ENDBRANCH  12  13
ENDBRANCH  11  12
ENDBRANCH  10  11
ENDBRANCH   9  10
ENDBRANCH   8   9
ENDBRANCH   7   8
ENDBRANCH   6   7
ENDBRANCH   1   6
BRANCH   3  18
ATOM     18  C   UNL     1       4.380   4.466  17.267  0.00  0.00    +0.000 C 
BRANCH  18  19
ATOM     19  C   UNL     1       3.231   4.408  18.309  0.00  0.00    +0.000 C 
ATOM     20  N   UNL     1       3.743   3.881  19.593  0.00  0.00    +0.000 NA
ATOM     21  C   UNL     1       2.845   2.788  20.022  0.00  0.00    +0.000 C 
ATOM     22  C   UNL     1       2.720   2.706  21.539  0.00  0.00    +0.000 C 
ATOM     23  C   UNL     1       1.519   2.980  19.259  0.00  0.00    +0.000 C 
ATOM     24  C   UNL     1       1.994   3.556  17.912  0.00  0.00    +0.000 C 
ATOM     25  H   UNL     1       3.728   4.669  20.280  0.00  0.00    +0.000 HD
BRANCH  23  26
ATOM     26  O   UNL     1       0.676   3.879  19.936  0.00  0.00    +0.000 OA
ATOM     27  H   UNL     1       1.196   4.320  20.653  0.00  0.00    +0.000 HD
ENDBRANCH  23  26
BRANCH  24  28
ATOM     28  O   UNL     1       0.990   4.284  17.230  0.00  0.00    +0.000 OA
ATOM     29  H   UNL     1       0.821   5.125  17.738  0.00  0.00    +0.000 HD
ENDBRANCH  24  28
ENDBRANCH  18  19
ENDBRANCH   3  18
TORSDOF 15
ENDMDL
MODEL 6
REMARK VINA RESULT:      -5.9      1.172      1.286
REMARK  Name = 
REMARK  17 active torsions:
REMARK  status: ('A' for Active; 'I' for Inactive)
REMARK    1  A    between atoms: C_1  and  C_2
REMARK    2  A    between atoms: C_2  and  C_3
REMARK    3  A    between atoms: C_3  and  C_4
REMARK    4  A    between atoms: C_4  and  C_5
REMARK    5  A    between atoms: C_5  and  C_6
REMARK    6  A    between atoms: C_6  and  C_7
REMARK    7  A    between atoms: C_7  and  C_8
REMARK    8  A    between atoms: C_8  and  C_9
REMARK    9  A    between atoms: C_9  and  C_10
REMARK   10  A    between atoms: C_10  and  C_11
REMARK   11  A    between atoms: C_11  and  C_12
REMARK   12  A    between atoms: C_12  and  C_13
REMARK   13  A    between atoms: N_15  and  C_16
REMARK   14  A    between atoms: C_16  and  C_17
REMARK   15  A    between atoms: C_19  and  C_20
REMARK   16  A    between atoms: C_21  and  O_22
REMARK   17  A    between atoms: C_23  and  O_24
REMARK                            x       y       z     vdW  Elec       q    Type
REMARK                         _______ _______ _______ _____ _____    ______ ____
ROOT
ATOM      1  C   UNL     1       2.076   7.844  19.043  0.00  0.00    +0.000 A 
ATOM      2  C   UNL     1       1.534   8.691  19.953  0.00  0.00    +0.000 A 
ATOM      3  N   UNL     1       1.244   9.820  19.306  0.00  0.00    +0.000 N 
ATOM      4  N   UNL     1       1.581   9.673  18.049  0.00  0.00    +0.000 NA
ATOM      5  N   UNL     1       2.103   8.447  17.846  0.00  0.00    +0.000 NA
ENDROOT
BRANCH   1   6
ATOM      6  C   UNL     1       2.525   6.464  19.347  0.00  0.00    +0.000 C 
BRANCH   6   7
ATOM      7  C   UNL     1       1.883   6.033  20.651  0.00  0.00    +0.000 C 
BRANCH   7   8
ATOM      8  C   UNL     1       1.145   4.709  20.503  0.00  0.00    +0.000 C 
BRANCH   8   9
ATOM      9  C   UNL     1       1.818   3.620  21.332  0.00  0.00    +0.000 C 
BRANCH   9  10
ATOM     10  C   UNL     1       1.897   2.324  20.543  0.00  0.00    +0.000 C 
BRANCH  10  11
ATOM     11  C   UNL     1       2.847   2.471  19.382  0.00  0.00    +0.000 C 
BRANCH  11  12
ATOM     12  C   UNL     1       2.064   2.430  18.081  0.00  0.00    +0.000 C 
BRANCH  12  13
ATOM     13  C   UNL     1       2.722   3.348  17.068  0.00  0.00    +0.000 C 
BRANCH  13  14
ATOM     14  C   UNL     1       4.112   3.734  17.548  0.00  0.00    +0.000 C 
BRANCH  14  15
ATOM     15  C   UNL     1       5.085   3.719  16.382  0.00  0.00    +0.000 C 
BRANCH  15  17
ATOM     16  C   UNL     1       6.937   4.980  15.279  0.00  0.00    +0.000 C 
ATOM     17  C   UNL     1       6.149   4.795  16.566  0.00  0.00    +0.000 C 
ENDBRANCH  15  17
ENDBRANCH  14  15
ENDBRANCH  13  14
ENDBRANCH  12  13
ENDBRANCH  11  12
ENDBRANCH  10  11
ENDBRANCH   9  10
ENDBRANCH   8   9
ENDBRANCH   7   8
ENDBRANCH   6   7
ENDBRANCH   1   6
BRANCH   3  18
ATOM     18  C   UNL     1       0.677  11.058  19.904  0.00  0.00    +0.000 C 
BRANCH  18  19
ATOM     19  C   UNL     1      -0.767  11.358  19.419  0.00  0.00    +0.000 C 
ATOM     20  N   UNL     1      -1.447  10.095  19.057  0.00  0.00    +0.000 NA
ATOM     21  C   UNL     1      -2.027  10.264  17.708  0.00  0.00    +0.000 C 
ATOM     22  C   UNL     1      -3.328   9.489  17.537  0.00  0.00    +0.000 C 
ATOM     23  C   UNL     1      -2.125  11.783  17.457  0.00  0.00    +0.000 C 
ATOM     24  C   UNL     1      -0.892  12.321  18.207  0.00  0.00    +0.000 C 
ATOM     25  H   UNL     1      -2.196   9.932  19.769  0.00  0.00    +0.000 HD
BRANCH  23  26
ATOM     26  O   UNL     1      -3.319  12.303  17.987  0.00  0.00    +0.000 OA
ATOM     27  H   UNL     1      -3.974  11.567  18.071  0.00  0.00    +0.000 HD
ENDBRANCH  23  26
BRANCH  24  28
ATOM     28  O   UNL     1      -1.008  13.685  18.566  0.00  0.00    +0.000 OA
ATOM     29  H   UNL     1      -1.906  14.004  18.276  0.00  0.00    +0.000 HD
ENDBRANCH  24  28
ENDBRANCH  18  19
ENDBRANCH   3  18
TORSDOF 15
ENDMDL
MODEL 7
REMARK VINA RESULT:      -5.9      7.408     10.127
REMARK  Name = 
REMARK  17 active torsions:
REMARK  status: ('A' for Active; 'I' for Inactive)
REMARK    1  A    between atoms: C_1  and  C_2
REMARK    2  A    between atoms: C_2  and  C_3
REMARK    3  A    between atoms: C_3  and  C_4
REMARK    4  A    between atoms: C_4  and  C_5
REMARK    5  A    between atoms: C_5  and  C_6
REMARK    6  A    between atoms: C_6  and  C_7
REMARK    7  A    between atoms: C_7  and  C_8
REMARK    8  A    between atoms: C_8  and  C_9
REMARK    9  A    between atoms: C_9  and  C_10
REMARK   10  A    between atoms: C_10  and  C_11
REMARK   11  A    between atoms: C_11  and  C_12
REMARK   12  A    between atoms: C_12  and  C_13
REMARK   13  A    between atoms: N_15  and  C_16
REMARK   14  A    between atoms: C_16  and  C_17
REMARK   15  A    between atoms: C_19  and  C_20
REMARK   16  A    between atoms: C_21  and  O_22
REMARK   17  A    between atoms: C_23  and  O_24
REMARK                            x       y       z     vdW  Elec       q    Type
REMARK                         _______ _______ _______ _____ _____    ______ ____
ROOT
ATOM      1  C   UNL     1       7.972   7.639  18.107  0.00  0.00    +0.000 A 
ATOM      2  C   UNL     1       7.733   6.379  18.550  0.00  0.00    +0.000 A 
ATOM      3  N   UNL     1       6.970   5.786  17.631  0.00  0.00    +0.000 N 
ATOM      4  N   UNL     1       6.757   6.637  16.659  0.00  0.00    +0.000 NA
ATOM      5  N   UNL     1       7.371   7.808  16.921  0.00  0.00    +0.000 NA
ENDROOT
BRANCH   1   6
ATOM      6  C   UNL     1       8.801   8.636  18.828  0.00  0.00    +0.000 C 
BRANCH   6   7
ATOM      7  C   UNL     1       8.578   9.991  18.184  0.00  0.00    +0.000 C 
BRANCH   7   8
ATOM      8  C   UNL     1       9.514  11.046  18.761  0.00  0.00    +0.000 C 
BRANCH   8   9
ATOM      9  C   UNL     1      10.581  11.436  17.742  0.00  0.00    +0.000 C 
BRANCH   9  10
ATOM     10  C   UNL     1      11.875  11.808  18.445  0.00  0.00    +0.000 C 
BRANCH  10  11
ATOM     11  C   UNL     1      12.178  13.271  18.251  0.00  0.00    +0.000 C 
BRANCH  11  12
ATOM     12  C   UNL     1      11.323  13.818  17.122  0.00  0.00    +0.000 C 
BRANCH  12  13
ATOM     13  C   UNL     1      10.475  14.964  17.640  0.00  0.00    +0.000 C 
BRANCH  13  14
ATOM     14  C   UNL     1      11.110  15.550  18.891  0.00  0.00    +0.000 C 
BRANCH  14  15
ATOM     15  C   UNL     1      10.067  15.684  19.987  0.00  0.00    +0.000 C 
BRANCH  15  17
ATOM     16  C   UNL     1       9.966  13.530  21.246  0.00  0.00    +0.000 C 
ATOM     17  C   UNL     1      10.520  14.945  21.241  0.00  0.00    +0.000 C 
ENDBRANCH  15  17
ENDBRANCH  14  15
ENDBRANCH  13  14
ENDBRANCH  12  13
ENDBRANCH  11  12
ENDBRANCH  10  11
ENDBRANCH   9  10
ENDBRANCH   8   9
ENDBRANCH   7   8
ENDBRANCH   6   7
ENDBRANCH   1   6
BRANCH   3  18
ATOM     18  C   UNL     1       6.411   4.409  17.706  0.00  0.00    +0.000 C 
BRANCH  18  19
ATOM     19  C   UNL     1       4.963   4.374  18.264  0.00  0.00    +0.000 C 
ATOM     20  N   UNL     1       4.577   2.980  18.572  0.00  0.00    +0.000 NA
ATOM     21  C   UNL     1       3.271   2.721  17.931  0.00  0.00    +0.000 C 
ATOM     22  C   UNL     1       2.412   1.756  18.740  0.00  0.00    +0.000 C 
ATOM     23  C   UNL     1       2.635   4.098  17.652  0.00  0.00    +0.000 C 
ATOM     24  C   UNL     1       3.864   4.973  17.344  0.00  0.00    +0.000 C 
ATOM     25  H   UNL     1       4.506   2.901  19.613  0.00  0.00    +0.000 HD
BRANCH  23  26
ATOM     26  O   UNL     1       1.938   4.566  18.780  0.00  0.00    +0.000 OA
ATOM     27  H   UNL     1       1.363   5.323  18.503  0.00  0.00    +0.000 HD
ENDBRANCH  23  26
BRANCH  24  28
ATOM     28  O   UNL     1       3.632   6.353  17.548  0.00  0.00    +0.000 OA
ATOM     29  H   UNL     1       3.160   6.461  18.419  0.00  0.00    +0.000 HD
ENDBRANCH  24  28
ENDBRANCH  18  19
ENDBRANCH   3  18
TORSDOF 15
ENDMDL
MODEL 8
REMARK VINA RESULT:      -5.9      4.017      9.579
REMARK  Name = 
REMARK  17 active torsions:
REMARK  status: ('A' for Active; 'I' for Inactive)
REMARK    1  A    between atoms: C_1  and  C_2
REMARK    2  A    between atoms: C_2  and  C_3
REMARK    3  A    between atoms: C_3  and  C_4
REMARK    4  A    between atoms: C_4  and  C_5
REMARK    5  A    between atoms: C_5  and  C_6
REMARK    6  A    between atoms: C_6  and  C_7
REMARK    7  A    between atoms: C_7  and  C_8
REMARK    8  A    between atoms: C_8  and  C_9
REMARK    9  A    between atoms: C_9  and  C_10
REMARK   10  A    between atoms: C_10  and  C_11
REMARK   11  A    between atoms: C_11  and  C_12
REMARK   12  A    between atoms: C_12  and  C_13
REMARK   13  A    between atoms: N_15  and  C_16
REMARK   14  A    between atoms: C_16  and  C_17
REMARK   15  A    between atoms: C_19  and  C_20
REMARK   16  A    between atoms: C_21  and  O_22
REMARK   17  A    between atoms: C_23  and  O_24
REMARK                            x       y       z     vdW  Elec       q    Type
REMARK                         _______ _______ _______ _____ _____    ______ ____
ROOT
ATOM      1  C   UNL     1       1.855   8.799  18.835  0.00  0.00    +0.000 A 
ATOM      2  C   UNL     1       2.605   8.255  17.843  0.00  0.00    +0.000 A 
ATOM      3  N   UNL     1       3.059   7.087  18.298  0.00  0.00    +0.000 N 
ATOM      4  N   UNL     1       2.601   6.912  19.512  0.00  0.00    +0.000 NA
ATOM      5  N   UNL     1       1.841   7.962  19.881  0.00  0.00    +0.000 NA
ENDROOT
BRANCH   1   6
ATOM      6  C   UNL     1       1.147  10.098  18.733  0.00  0.00    +0.000 C 
BRANCH   6   7
ATOM      7  C   UNL     1      -0.320   9.863  19.034  0.00  0.00    +0.000 C 
BRANCH   7   8
ATOM      8  C   UNL     1      -1.220  10.629  18.072  0.00  0.00    +0.000 C 
BRANCH   8   9
ATOM      9  C   UNL     1      -2.454   9.806  17.716  0.00  0.00    +0.000 C 
BRANCH   9  10
ATOM     10  C   UNL     1      -2.783   9.956  16.241  0.00  0.00    +0.000 C 
BRANCH  10  11
ATOM     11  C   UNL     1      -3.803  11.046  16.036  0.00  0.00    +0.000 C 
BRANCH  11  12
ATOM     12  C   UNL     1      -4.791  11.034  17.189  0.00  0.00    +0.000 C 
BRANCH  12  13
ATOM     13  C   UNL     1      -5.625  12.301  17.152  0.00  0.00    +0.000 C 
BRANCH  13  14
ATOM     14  C   UNL     1      -6.968  12.054  17.821  0.00  0.00    +0.000 C 
BRANCH  14  15
ATOM     15  C   UNL     1      -6.883  10.831  18.717  0.00  0.00    +0.000 C 
BRANCH  15  17
ATOM     16  C   UNL     1      -6.422  12.006  20.872  0.00  0.00    +0.000 C 
ATOM     17  C   UNL     1      -7.421  11.153  20.106  0.00  0.00    +0.000 C 
ENDBRANCH  15  17
ENDBRANCH  14  15
ENDBRANCH  13  14
ENDBRANCH  12  13
ENDBRANCH  11  12
ENDBRANCH  10  11
ENDBRANCH   9  10
ENDBRANCH   8   9
ENDBRANCH   7   8
ENDBRANCH   6   7
ENDBRANCH   1   6
BRANCH   3  18
ATOM     18  C   UNL     1       3.968   6.155  17.579  0.00  0.00    +0.000 C 
BRANCH  18  19
ATOM     19  C   UNL     1       3.626   4.662  17.832  0.00  0.00    +0.000 C 
ATOM     20  N   UNL     1       2.163   4.499  17.972  0.00  0.00    +0.000 NA
ATOM     21  C   UNL     1       1.910   3.734  19.211  0.00  0.00    +0.000 C 
ATOM     22  C   UNL     1       0.682   2.837  19.095  0.00  0.00    +0.000 C 
ATOM     23  C   UNL     1       3.226   3.011  19.560  0.00  0.00    +0.000 C 
ATOM     24  C   UNL     1       4.291   4.013  19.077  0.00  0.00    +0.000 C 
ATOM     25  H   UNL     1       1.828   3.972  17.132  0.00  0.00    +0.000 HD
BRANCH  23  26
ATOM     26  O   UNL     1       3.323   1.786  18.877  0.00  0.00    +0.000 OA
ATOM     27  H   UNL     1       3.655   1.099  19.506  0.00  0.00    +0.000 HD
ENDBRANCH  23  26
BRANCH  24  28
ATOM     28  O   UNL     1       5.544   3.412  18.812  0.00  0.00    +0.000 OA
ATOM     29  H   UNL     1       6.114   4.082  18.342  0.00  0.00    +0.000 HD
ENDBRANCH  24  28
ENDBRANCH  18  19
ENDBRANCH   3  18
TORSDOF 15
ENDMDL
MODEL 9
REMARK VINA RESULT:      -5.8      6.341      8.609
REMARK  Name = 
REMARK  17 active torsions:
REMARK  status: ('A' for Active; 'I' for Inactive)
REMARK    1  A    between atoms: C_1  and  C_2
REMARK    2  A    between atoms: C_2  and  C_3
REMARK    3  A    between atoms: C_3  and  C_4
REMARK    4  A    between atoms: C_4  and  C_5
REMARK    5  A    between atoms: C_5  and  C_6
REMARK    6  A    between atoms: C_6  and  C_7
REMARK    7  A    between atoms: C_7  and  C_8
REMARK    8  A    between atoms: C_8  and  C_9
REMARK    9  A    between atoms: C_9  and  C_10
REMARK   10  A    between atoms: C_10  and  C_11
REMARK   11  A    between atoms: C_11  and  C_12
REMARK   12  A    between atoms: C_12  and  C_13
REMARK   13  A    between atoms: N_15  and  C_16
REMARK   14  A    between atoms: C_16  and  C_17
REMARK   15  A    between atoms: C_19  and  C_20
REMARK   16  A    between atoms: C_21  and  O_22
REMARK   17  A    between atoms: C_23  and  O_24
REMARK                            x       y       z     vdW  Elec       q    Type
REMARK                         _______ _______ _______ _____ _____    ______ ____
ROOT
ATOM      1  C   UNL     1       6.801   6.928  17.889  0.00  0.00    +0.000 A 
ATOM      2  C   UNL     1       6.921   8.188  17.400  0.00  0.00    +0.000 A 
ATOM      3  N   UNL     1       8.057   8.686  17.890  0.00  0.00    +0.000 N 
ATOM      4  N   UNL     1       8.619   7.770  18.638  0.00  0.00    +0.000 NA
ATOM      5  N   UNL     1       7.863   6.655  18.660  0.00  0.00    +0.000 NA
ENDROOT
BRANCH   1   6
ATOM      6  C   UNL     1       5.679   6.011  17.573  0.00  0.00    +0.000 C 
BRANCH   6   7
ATOM      7  C   UNL     1       6.085   5.155  16.390  0.00  0.00    +0.000 C 
BRANCH   7   8
ATOM      8  C   UNL     1       5.251   3.882  16.305  0.00  0.00    +0.000 C 
BRANCH   8   9
ATOM      9  C   UNL     1       4.417   3.700  17.569  0.00  0.00    +0.000 C 
BRANCH   9  10
ATOM     10  C   UNL     1       2.941   3.606  17.221  0.00  0.00    +0.000 C 
BRANCH  10  11
ATOM     11  C   UNL     1       2.374   2.287  17.678  0.00  0.00    +0.000 C 
BRANCH  11  12
ATOM     12  C   UNL     1       1.233   2.538  18.649  0.00  0.00    +0.000 C 
BRANCH  12  13
ATOM     13  C   UNL     1       1.715   2.302  20.067  0.00  0.00    +0.000 C 
BRANCH  13  14
ATOM     14  C   UNL     1       1.301   3.465  20.953  0.00  0.00    +0.000 C 
BRANCH  14  15
ATOM     15  C   UNL     1       2.357   4.555  20.905  0.00  0.00    +0.000 C 
BRANCH  15  17
ATOM     16  C   UNL     1       2.612   6.556  19.433  0.00  0.00    +0.000 C 
ATOM     17  C   UNL     1       1.735   5.877  20.472  0.00  0.00    +0.000 C 
ENDBRANCH  15  17
ENDBRANCH  14  15
ENDBRANCH  13  14
ENDBRANCH  12  13
ENDBRANCH  11  12
ENDBRANCH  10  11
ENDBRANCH   9  10
ENDBRANCH   8   9
ENDBRANCH   7   8
ENDBRANCH   6   7
ENDBRANCH   1   6
BRANCH   3  18
ATOM     18  C   UNL     1       8.584  10.059  17.669  0.00  0.00    +0.000 C 
BRANCH  18  19
ATOM     19  C   UNL     1       9.658  10.469  18.713  0.00  0.00    +0.000 C 
ATOM     20  N   UNL     1       9.005  10.825  19.991  0.00  0.00    +0.000 NA
ATOM     21  C   UNL     1       9.528  12.141  20.415  0.00  0.00    +0.000 C 
ATOM     22  C   UNL     1       9.616  12.267  21.931  0.00  0.00    +0.000 C 
ATOM     23  C   UNL     1      10.853  12.355  19.655  0.00  0.00    +0.000 C 
ATOM     24  C   UNL     1      10.580  11.653  18.311  0.00  0.00    +0.000 C 
ATOM     25  H   UNL     1       9.255  10.083  20.685  0.00  0.00    +0.000 HD
BRANCH  23  26
ATOM     26  O   UNL     1      11.926  11.758  20.340  0.00  0.00    +0.000 OA
ATOM     27  H   UNL     1      11.560  11.141  21.022  0.00  0.00    +0.000 HD
ENDBRANCH  23  26
BRANCH  24  28
ATOM     28  O   UNL     1      11.760  11.259  17.637  0.00  0.00    +0.000 OA
ATOM     29  H   UNL     1      12.497  11.862  17.929  0.00  0.00    +0.000 HD
ENDBRANCH  24  28
ENDBRANCH  18  19
ENDBRANCH   3  18
TORSDOF 15
ENDMDL
