MODEL 1
REMARK VINA RESULT:      -8.5      0.000      0.000
REMARK  Name = 
REMARK  6 active torsions:
REMARK  status: ('A' for Active; 'I' for Inactive)
REMARK    1  A    between atoms: C_1  and  C_2
REMARK    2  A    between atoms: C_5  and  C_6
REMARK    3  A    between atoms: C_9  and  C_10
REMARK    4  A    between atoms: C_11  and  C_12
REMARK    5  A    between atoms: C_12  and  O_13
REMARK    6  A    between atoms: N_21  and  C_22
REMARK                            x       y       z     vdW  Elec       q    Type
REMARK                         _______ _______ _______ _____ _____    ______ ____
ROOT
ATOM      1  C   UNL     1       3.419   6.081  18.537  0.00  0.00    +0.000 C 
ATOM      2  C   UNL     1       2.886   4.586  18.453  0.00  0.00    +0.000 C 
ATOM      3  N   UNL     1       4.245   4.362  17.848  0.00  0.00    +0.000 N 
ATOM      4  C   UNL     1       5.337   3.944  18.605  0.00  0.00    +0.000 C 
ATOM      5  O   UNL     1       5.270   3.008  19.397  0.00  0.00    +0.000 OA
ATOM      6  C   UNL     1       6.651   4.672  18.282  0.00  0.00    +0.000 C 
ATOM      7  N   UNL     1       6.447   6.063  17.825  0.00  0.00    +0.000 N 
ATOM      8  C   UNL     1       7.333   7.033  18.262  0.00  0.00    +0.000 C 
ATOM      9  O   UNL     1       8.270   6.736  18.994  0.00  0.00    +0.000 OA
ATOM     10  N   UNL     1       7.067   8.315  17.825  0.00  0.00    +0.000 N 
ATOM     11  C   UNL     1       5.497   6.225  16.741  0.00  0.00    +0.000 C 
ATOM     12  C   UNL     1       4.161   5.703  17.214  0.00  0.00    +0.000 C 
ATOM     13  H   UNL     1       6.107   8.524  17.602  0.00  0.00    +0.000 HD
ENDROOT
BRANCH  10  14
ATOM     14  C   UNL     1       7.901   9.440  18.001  0.00  0.00    +0.000 A 
ATOM     15  C   UNL     1       9.047   9.426  18.801  0.00  0.00    +0.000 A 
ATOM     16  C   UNL     1       9.811  10.582  18.984  0.00  0.00    +0.000 A 
ATOM     17  C   UNL     1       9.445  11.763  18.348  0.00  0.00    +0.000 A 
ATOM     18  C   UNL     1       8.332  11.768  17.517  0.00  0.00    +0.000 A 
ATOM     19  F   UNL     1       7.984  12.900  16.891  0.00  0.00    +0.000 F 
ATOM     20  C   UNL     1       7.563  10.621  17.329  0.00  0.00    +0.000 A 
ENDBRANCH  10  14
BRANCH   1  24
ATOM     21  C   UNL     1       1.333  10.015  19.033  0.00  0.00    +0.000 A 
ATOM     22  C   UNL     1       1.303   9.012  20.009  0.00  0.00    +0.000 A 
ATOM     23  C   UNL     1       1.936   7.778  19.801  0.00  0.00    +0.000 A 
ATOM     24  C   UNL     1       2.630   7.446  18.613  0.00  0.00    +0.000 A 
ATOM     25  C   UNL     1       2.614   8.435  17.626  0.00  0.00    +0.000 A 
ATOM     26  C   UNL     1       1.993   9.684  17.834  0.00  0.00    +0.000 A 
BRANCH  21  31
ATOM     27  C   UNL     1      -0.979  15.287  20.054  0.00  0.00    +0.000 C 
ATOM     28  C   UNL     1      -0.416  13.927  19.768  0.00  0.00    +0.000 A 
ATOM     29  C   UNL     1      -1.095  12.765  20.131  0.00  0.00    +0.000 A 
ATOM     30  C   UNL     1      -0.533  11.502  19.887  0.00  0.00    +0.000 A 
ATOM     31  C   UNL     1       0.719  11.353  19.262  0.00  0.00    +0.000 A 
ATOM     32  C   UNL     1       1.374  12.539  18.880  0.00  0.00    +0.000 A 
ATOM     33  C   UNL     1       0.824  13.803  19.132  0.00  0.00    +0.000 A 
ENDBRANCH  21  31
ENDBRANCH   1  24
BRANCH   2  34
ATOM     34  C   UNL     1       1.879   3.933  17.496  0.00  0.00    +0.000 C 
BRANCH  34  35
ATOM     35  O   UNL     1       2.256   2.600  17.197  0.00  0.00    +0.000 OA
ATOM     36  H   UNL     1       1.788   2.359  16.377  0.00  0.00    +0.000 HD
ENDBRANCH  34  35
ENDBRANCH   2  34
TORSDOF 5
ENDMDL
MODEL 2
REMARK VINA RESULT:      -8.1      0.841      1.177
REMARK  Name = 
REMARK  6 active torsions:
REMARK  status: ('A' for Active; 'I' for Inactive)
REMARK    1  A    between atoms: C_1  and  C_2
REMARK    2  A    between atoms: C_5  and  C_6
REMARK    3  A    between atoms: C_9  and  C_10
REMARK    4  A    between atoms: C_11  and  C_12
REMARK    5  A    between atoms: C_12  and  O_13
REMARK    6  A    between atoms: N_21  and  C_22
REMARK                            x       y       z     vdW  Elec       q    Type
REMARK                         _______ _______ _______ _____ _____    ______ ____
ROOT
ATOM      1  C   UNL     1       3.575   6.193  18.440  0.00  0.00    +0.000 C 
ATOM      2  C   UNL     1       3.113   4.676  18.327  0.00  0.00    +0.000 C 
ATOM      3  N   UNL     1       4.474   4.533  17.700  0.00  0.00    +0.000 N 
ATOM      4  C   UNL     1       5.595   4.151  18.434  0.00  0.00    +0.000 C 
ATOM      5  O   UNL     1       5.583   3.195  19.205  0.00  0.00    +0.000 OA
ATOM      6  C   UNL     1       6.868   4.950  18.113  0.00  0.00    +0.000 C 
ATOM      7  N   UNL     1       6.591   6.339  17.692  0.00  0.00    +0.000 N 
ATOM      8  C   UNL     1       7.434   7.340  18.142  0.00  0.00    +0.000 C 
ATOM      9  O   UNL     1       8.394   7.072  18.856  0.00  0.00    +0.000 OA
ATOM     10  N   UNL     1       7.101   8.618  17.739  0.00  0.00    +0.000 N 
ATOM     11  C   UNL     1       5.620   6.480  16.624  0.00  0.00    +0.000 C 
ATOM     12  C   UNL     1       4.317   5.883  17.100  0.00  0.00    +0.000 C 
ATOM     13  H   UNL     1       6.129   8.785  17.532  0.00  0.00    +0.000 HD
ENDROOT
BRANCH  10  14
ATOM     14  C   UNL     1       7.882   9.778  17.932  0.00  0.00    +0.000 A 
ATOM     15  C   UNL     1       7.610  10.998  17.306  0.00  0.00    +0.000 A 
ATOM     16  C   UNL     1       8.446  12.103  17.489  0.00  0.00    +0.000 A 
ATOM     17  C   UNL     1       9.555  12.002  18.321  0.00  0.00    +0.000 A 
ATOM     18  C   UNL     1       9.802  10.804  18.979  0.00  0.00    +0.000 A 
ATOM     19  F   UNL     1      10.863  10.708  19.793  0.00  0.00    +0.000 F 
ATOM     20  C   UNL     1       8.976   9.697  18.802  0.00  0.00    +0.000 A 
ENDBRANCH  10  14
BRANCH   1  24
ATOM     21  C   UNL     1       1.303  10.004  19.058  0.00  0.00    +0.000 A 
ATOM     22  C   UNL     1       1.313   8.967  19.997  0.00  0.00    +0.000 A 
ATOM     23  C   UNL     1       2.004   7.772  19.750  0.00  0.00    +0.000 A 
ATOM     24  C   UNL     1       2.722   7.516  18.558  0.00  0.00    +0.000 A 
ATOM     25  C   UNL     1       2.667   8.538  17.607  0.00  0.00    +0.000 A 
ATOM     26  C   UNL     1       1.986   9.748  17.854  0.00  0.00    +0.000 A 
BRANCH  21  31
ATOM     27  C   UNL     1      -1.258  15.126  20.242  0.00  0.00    +0.000 C 
ATOM     28  C   UNL     1      -0.632  13.803  19.914  0.00  0.00    +0.000 A 
ATOM     29  C   UNL     1      -1.235  12.600  20.279  0.00  0.00    +0.000 A 
ATOM     30  C   UNL     1      -0.613  11.374  19.995  0.00  0.00    +0.000 A 
ATOM     31  C   UNL     1       0.624  11.303  19.329  0.00  0.00    +0.000 A 
ATOM     32  C   UNL     1       1.201  12.529  18.947  0.00  0.00    +0.000 A 
ATOM     33  C   UNL     1       0.592  13.757  19.238  0.00  0.00    +0.000 A 
ENDBRANCH  21  31
ENDBRANCH   1  24
BRANCH   2  34
ATOM     34  C   UNL     1       2.127   3.998  17.365  0.00  0.00    +0.000 C 
BRANCH  34  35
ATOM     35  O   UNL     1       2.317   2.593  17.355  0.00  0.00    +0.000 OA
ATOM     36  H   UNL     1       1.426   2.197  17.339  0.00  0.00    +0.000 HD
ENDBRANCH  34  35
ENDBRANCH   2  34
TORSDOF 5
ENDMDL
MODEL 3
REMARK VINA RESULT:      -8.1      6.882     10.420
REMARK  Name = 
REMARK  6 active torsions:
REMARK  status: ('A' for Active; 'I' for Inactive)
REMARK    1  A    between atoms: C_1  and  C_2
REMARK    2  A    between atoms: C_5  and  C_6
REMARK    3  A    between atoms: C_9  and  C_10
REMARK    4  A    between atoms: C_11  and  C_12
REMARK    5  A    between atoms: C_12  and  O_13
REMARK    6  A    between atoms: N_21  and  C_22
REMARK                            x       y       z     vdW  Elec       q    Type
REMARK                         _______ _______ _______ _____ _____    ______ ____
ROOT
ATOM      1  C   UNL     1      10.247  14.150  19.236  0.00  0.00    +0.000 C 
ATOM      2  C   UNL     1      11.065  15.216  18.387  0.00  0.00    +0.000 C 
ATOM      3  N   UNL     1      10.405  16.168  19.349  0.00  0.00    +0.000 N 
ATOM      4  C   UNL     1      11.031  16.598  20.517  0.00  0.00    +0.000 C 
ATOM      5  O   UNL     1      12.190  17.005  20.533  0.00  0.00    +0.000 OA
ATOM      6  C   UNL     1      10.118  16.629  21.753  0.00  0.00    +0.000 C 
ATOM      7  N   UNL     1       9.056  15.602  21.715  0.00  0.00    +0.000 N 
ATOM      8  C   UNL     1       8.733  14.949  22.892  0.00  0.00    +0.000 C 
ATOM      9  O   UNL     1       9.306  15.233  23.938  0.00  0.00    +0.000 OA
ATOM     10  N   UNL     1       7.756  13.980  22.782  0.00  0.00    +0.000 N 
ATOM     11  C   UNL     1       8.264  15.576  20.500  0.00  0.00    +0.000 C 
ATOM     12  C   UNL     1       9.198  15.303  19.345  0.00  0.00    +0.000 C 
ATOM     13  H   UNL     1       7.655  13.544  21.879  0.00  0.00    +0.000 HD
ENDROOT
BRANCH  10  14
ATOM     14  C   UNL     1       7.147  13.292  23.853  0.00  0.00    +0.000 A 
ATOM     15  C   UNL     1       7.303  11.920  24.069  0.00  0.00    +0.000 A 
ATOM     16  C   UNL     1       6.635  11.276  25.114  0.00  0.00    +0.000 A 
ATOM     17  C   UNL     1       5.818  12.007  25.970  0.00  0.00    +0.000 A 
ATOM     18  C   UNL     1       5.697  13.378  25.784  0.00  0.00    +0.000 A 
ATOM     19  F   UNL     1       4.921  14.088  26.614  0.00  0.00    +0.000 F 
ATOM     20  C   UNL     1       6.357  14.029  24.744  0.00  0.00    +0.000 A 
ENDBRANCH  10  14
BRANCH   1  24
ATOM     21  C   UNL     1       8.742  10.002  18.460  0.00  0.00    +0.000 A 
ATOM     22  C   UNL     1       9.616  10.307  19.509  0.00  0.00    +0.000 A 
ATOM     23  C   UNL     1      10.098  11.611  19.695  0.00  0.00    +0.000 A 
ATOM     24  C   UNL     1       9.757  12.698  18.856  0.00  0.00    +0.000 A 
ATOM     25  C   UNL     1       8.920  12.374  17.784  0.00  0.00    +0.000 A 
ATOM     26  C   UNL     1       8.421  11.068  17.599  0.00  0.00    +0.000 A 
BRANCH  21  31
ATOM     27  C   UNL     1       6.654   4.593  17.705  0.00  0.00    +0.000 C 
ATOM     28  C   UNL     1       7.152   5.993  17.906  0.00  0.00    +0.000 A 
ATOM     29  C   UNL     1       6.773   7.031  17.057  0.00  0.00    +0.000 A 
ATOM     30  C   UNL     1       7.281   8.327  17.241  0.00  0.00    +0.000 A 
ATOM     31  C   UNL     1       8.174   8.636  18.283  0.00  0.00    +0.000 A 
ATOM     32  C   UNL     1       8.522   7.577  19.144  0.00  0.00    +0.000 A 
ATOM     33  C   UNL     1       8.029   6.279  18.959  0.00  0.00    +0.000 A 
ENDBRANCH  21  31
ENDBRANCH   1  24
BRANCH   2  34
ATOM     34  C   UNL     1      10.814  15.785  16.983  0.00  0.00    +0.000 C 
BRANCH  34  35
ATOM     35  O   UNL     1      11.179  14.848  15.985  0.00  0.00    +0.000 OA
ATOM     36  H   UNL     1      10.993  15.274  15.129  0.00  0.00    +0.000 HD
ENDBRANCH  34  35
ENDBRANCH   2  34
TORSDOF 5
ENDMDL
MODEL 4
REMARK VINA RESULT:      -8.0      6.421     10.614
REMARK  Name = 
REMARK  6 active torsions:
REMARK  status: ('A' for Active; 'I' for Inactive)
REMARK    1  A    between atoms: C_1  and  C_2
REMARK    2  A    between atoms: C_5  and  C_6
REMARK    3  A    between atoms: C_9  and  C_10
REMARK    4  A    between atoms: C_11  and  C_12
REMARK    5  A    between atoms: C_12  and  O_13
REMARK    6  A    between atoms: N_21  and  C_22
REMARK                            x       y       z     vdW  Elec       q    Type
REMARK                         _______ _______ _______ _____ _____    ______ ____
ROOT
ATOM      1  C   UNL     1      -3.006  13.461  21.312  0.00  0.00    +0.000 C 
ATOM      2  C   UNL     1      -4.124  13.231  22.418  0.00  0.00    +0.000 C 
ATOM      3  N   UNL     1      -3.961  14.718  22.584  0.00  0.00    +0.000 N 
ATOM      4  C   UNL     1      -4.779  15.635  21.928  0.00  0.00    +0.000 C 
ATOM      5  O   UNL     1      -6.003  15.528  21.906  0.00  0.00    +0.000 OA
ATOM      6  C   UNL     1      -4.036  16.843  21.337  0.00  0.00    +0.000 C 
ATOM      7  N   UNL     1      -2.653  16.527  20.924  0.00  0.00    +0.000 N 
ATOM      8  C   UNL     1      -2.173  17.092  19.754  0.00  0.00    +0.000 C 
ATOM      9  O   UNL     1      -2.878  17.847  19.093  0.00  0.00    +0.000 OA
ATOM     10  N   UNL     1      -0.886  16.731  19.408  0.00  0.00    +0.000 N 
ATOM     11  C   UNL     1      -1.840  15.874  21.931  0.00  0.00    +0.000 C 
ATOM     12  C   UNL     1      -2.511  14.571  22.295  0.00  0.00    +0.000 C 
ATOM     13  H   UNL     1      -0.563  15.840  19.748  0.00  0.00    +0.000 HD
ENDROOT
BRANCH  10  14
ATOM     14  C   UNL     1      -0.124  17.287  18.359  0.00  0.00    +0.000 A 
ATOM     15  C   UNL     1      -0.659  18.146  17.395  0.00  0.00    +0.000 A 
ATOM     16  C   UNL     1       0.127  18.628  16.345  0.00  0.00    +0.000 A 
ATOM     17  C   UNL     1       1.468  18.271  16.262  0.00  0.00    +0.000 A 
ATOM     18  C   UNL     1       2.013  17.454  17.244  0.00  0.00    +0.000 A 
ATOM     19  F   UNL     1       3.309  17.118  17.175  0.00  0.00    +0.000 F 
ATOM     20  C   UNL     1       1.238  16.967  18.294  0.00  0.00    +0.000 A 
ENDBRANCH  10  14
BRANCH   1  24
ATOM     21  C   UNL     1      -0.035  10.447  19.841  0.00  0.00    +0.000 A 
ATOM     22  C   UNL     1       0.141  11.168  21.027  0.00  0.00    +0.000 A 
ATOM     23  C   UNL     1      -0.792  12.133  21.434  0.00  0.00    +0.000 A 
ATOM     24  C   UNL     1      -1.955  12.458  20.695  0.00  0.00    +0.000 A 
ATOM     25  C   UNL     1      -2.097  11.766  19.490  0.00  0.00    +0.000 A 
ATOM     26  C   UNL     1      -1.171  10.784  19.081  0.00  0.00    +0.000 A 
BRANCH  21  31
ATOM     27  C   UNL     1       3.574   6.179  18.123  0.00  0.00    +0.000 C 
ATOM     28  C   UNL     1       2.676   7.285  18.590  0.00  0.00    +0.000 A 
ATOM     29  C   UNL     1       2.172   7.317  19.890  0.00  0.00    +0.000 A 
ATOM     30  C   UNL     1       1.302   8.342  20.295  0.00  0.00    +0.000 A 
ATOM     31  C   UNL     1       0.915   9.377  19.424  0.00  0.00    +0.000 A 
ATOM     32  C   UNL     1       1.457   9.340  18.126  0.00  0.00    +0.000 A 
ATOM     33  C   UNL     1       2.316   8.313  17.711  0.00  0.00    +0.000 A 
ENDBRANCH  21  31
ENDBRANCH   1  24
BRANCH   2  34
ATOM     34  C   UNL     1      -4.031  12.631  23.828  0.00  0.00    +0.000 C 
BRANCH  34  35
ATOM     35  O   UNL     1      -3.185  11.494  23.839  0.00  0.00    +0.000 OA
ATOM     36  H   UNL     1      -3.742  10.741  24.108  0.00  0.00    +0.000 HD
ENDBRANCH  34  35
ENDBRANCH   2  34
TORSDOF 5
ENDMDL
MODEL 5
REMARK VINA RESULT:      -8.0      5.461     10.040
REMARK  Name = 
REMARK  6 active torsions:
REMARK  status: ('A' for Active; 'I' for Inactive)
REMARK    1  A    between atoms: C_1  and  C_2
REMARK    2  A    between atoms: C_5  and  C_6
REMARK    3  A    between atoms: C_9  and  C_10
REMARK    4  A    between atoms: C_11  and  C_12
REMARK    5  A    between atoms: C_12  and  O_13
REMARK    6  A    between atoms: N_21  and  C_22
REMARK                            x       y       z     vdW  Elec       q    Type
REMARK                         _______ _______ _______ _____ _____    ______ ____
ROOT
ATOM      1  C   UNL     1      10.038  13.501  18.815  0.00  0.00    +0.000 C 
ATOM      2  C   UNL     1      11.501  14.003  18.451  0.00  0.00    +0.000 C 
ATOM      3  N   UNL     1      10.781  15.316  18.303  0.00  0.00    +0.000 N 
ATOM      4  C   UNL     1      10.706  16.244  19.340  0.00  0.00    +0.000 C 
ATOM      5  O   UNL     1      11.688  16.581  19.996  0.00  0.00    +0.000 OA
ATOM      6  C   UNL     1       9.323  16.891  19.515  0.00  0.00    +0.000 C 
ATOM      7  N   UNL     1       8.212  16.000  19.122  0.00  0.00    +0.000 N 
ATOM      8  C   UNL     1       7.062  16.007  19.893  0.00  0.00    +0.000 C 
ATOM      9  O   UNL     1       6.969  16.749  20.865  0.00  0.00    +0.000 OA
ATOM     10  N   UNL     1       6.076  15.128  19.492  0.00  0.00    +0.000 N 
ATOM     11  C   UNL     1       8.331  15.406  17.805  0.00  0.00    +0.000 C 
ATOM     12  C   UNL     1       9.599  14.586  17.779  0.00  0.00    +0.000 C 
ATOM     13  H   UNL     1       6.380  14.312  18.986  0.00  0.00    +0.000 HD
ENDROOT
BRANCH  10  14
ATOM     14  C   UNL     1       4.766  15.060  20.012  0.00  0.00    +0.000 A 
ATOM     15  C   UNL     1       4.462  14.485  21.249  0.00  0.00    +0.000 A 
ATOM     16  C   UNL     1       3.140  14.394  21.695  0.00  0.00    +0.000 A 
ATOM     17  C   UNL     1       2.108  14.901  20.913  0.00  0.00    +0.000 A 
ATOM     18  C   UNL     1       2.412  15.513  19.704  0.00  0.00    +0.000 A 
ATOM     19  F   UNL     1       1.421  16.014  18.954  0.00  0.00    +0.000 F 
ATOM     20  C   UNL     1       3.726  15.607  19.249  0.00  0.00    +0.000 A 
ENDBRANCH  10  14
BRANCH   1  24
ATOM     21  C   UNL     1       8.312   9.402  18.268  0.00  0.00    +0.000 A 
ATOM     22  C   UNL     1       7.927  10.498  17.487  0.00  0.00    +0.000 A 
ATOM     23  C   UNL     1       8.461  11.775  17.715  0.00  0.00    +0.000 A 
ATOM     24  C   UNL     1       9.401  12.058  18.733  0.00  0.00    +0.000 A 
ATOM     25  C   UNL     1       9.744  10.969  19.538  0.00  0.00    +0.000 A 
ATOM     26  C   UNL     1       9.222   9.679  19.306  0.00  0.00    +0.000 A 
BRANCH  21  31
ATOM     27  C   UNL     1       6.166   4.052  17.289  0.00  0.00    +0.000 C 
ATOM     28  C   UNL     1       6.753   5.411  17.531  0.00  0.00    +0.000 A 
ATOM     29  C   UNL     1       7.682   5.634  18.545  0.00  0.00    +0.000 A 
ATOM     30  C   UNL     1       8.191   6.922  18.778  0.00  0.00    +0.000 A 
ATOM     31  C   UNL     1       7.800   8.029  18.001  0.00  0.00    +0.000 A 
ATOM     32  C   UNL     1       6.881   7.774  16.965  0.00  0.00    +0.000 A 
ATOM     33  C   UNL     1       6.360   6.494  16.735  0.00  0.00    +0.000 A 
ENDBRANCH  21  31
ENDBRANCH   1  24
BRANCH   2  34
ATOM     34  C   UNL     1      12.333  13.826  17.173  0.00  0.00    +0.000 C 
BRANCH  34  35
ATOM     35  O   UNL     1      12.229  12.501  16.681  0.00  0.00    +0.000 OA
ATOM     36  H   UNL     1      11.568  12.052  17.240  0.00  0.00    +0.000 HD
ENDBRANCH  34  35
ENDBRANCH   2  34
TORSDOF 5
ENDMDL
MODEL 6
REMARK VINA RESULT:      -7.9      6.317      9.740
REMARK  Name = 
REMARK  6 active torsions:
REMARK  status: ('A' for Active; 'I' for Inactive)
REMARK    1  A    between atoms: C_1  and  C_2
REMARK    2  A    between atoms: C_5  and  C_6
REMARK    3  A    between atoms: C_9  and  C_10
REMARK    4  A    between atoms: C_11  and  C_12
REMARK    5  A    between atoms: C_12  and  O_13
REMARK    6  A    between atoms: N_21  and  C_22
REMARK                            x       y       z     vdW  Elec       q    Type
REMARK                         _______ _______ _______ _____ _____    ______ ____
ROOT
ATOM      1  C   UNL     1      -2.081  12.979  22.001  0.00  0.00    +0.000 C 
ATOM      2  C   UNL     1      -3.432  13.011  22.838  0.00  0.00    +0.000 C 
ATOM      3  N   UNL     1      -2.886  14.349  23.260  0.00  0.00    +0.000 N 
ATOM      4  C   UNL     1      -3.240  15.533  22.617  0.00  0.00    +0.000 C 
ATOM      5  O   UNL     1      -4.406  15.820  22.358  0.00  0.00    +0.000 OA
ATOM      6  C   UNL     1      -2.068  16.495  22.365  0.00  0.00    +0.000 C 
ATOM      7  N   UNL     1      -0.780  15.799  22.165  0.00  0.00    +0.000 N 
ATOM      8  C   UNL     1       0.086  16.290  21.203  0.00  0.00    +0.000 C 
ATOM      9  O   UNL     1      -0.206  17.286  20.551  0.00  0.00    +0.000 OA
ATOM     10  N   UNL     1       1.257  15.576  21.043  0.00  0.00    +0.000 N 
ATOM     11  C   UNL     1      -0.432  14.833  23.188  0.00  0.00    +0.000 C 
ATOM     12  C   UNL     1      -1.515  13.780  23.218  0.00  0.00    +0.000 C 
ATOM     13  H   UNL     1       1.226  14.600  21.292  0.00  0.00    +0.000 HD
ENDROOT
BRANCH  10  14
ATOM     14  C   UNL     1       2.359  15.958  20.248  0.00  0.00    +0.000 A 
ATOM     15  C   UNL     1       3.439  16.697  20.740  0.00  0.00    +0.000 A 
ATOM     16  C   UNL     1       4.480  17.097  19.898  0.00  0.00    +0.000 A 
ATOM     17  C   UNL     1       4.462  16.739  18.555  0.00  0.00    +0.000 A 
ATOM     18  C   UNL     1       3.412  15.967  18.074  0.00  0.00    +0.000 A 
ATOM     19  F   UNL     1       3.398  15.609  16.782  0.00  0.00    +0.000 F 
ATOM     20  C   UNL     1       2.368  15.565  18.904  0.00  0.00    +0.000 A 
ENDBRANCH  10  14
BRANCH   1  24
ATOM     21  C   UNL     1       0.436   9.724  20.226  0.00  0.00    +0.000 A 
ATOM     22  C   UNL     1      -0.254  10.660  19.447  0.00  0.00    +0.000 A 
ATOM     23  C   UNL     1      -1.064  11.640  20.038  0.00  0.00    +0.000 A 
ATOM     24  C   UNL     1      -1.257  11.757  21.435  0.00  0.00    +0.000 A 
ATOM     25  C   UNL     1      -0.602  10.789  22.202  0.00  0.00    +0.000 A 
ATOM     26  C   UNL     1       0.225   9.810  21.616  0.00  0.00    +0.000 A 
BRANCH  21  31
ATOM     27  C   UNL     1       3.892   5.711  17.750  0.00  0.00    +0.000 C 
ATOM     28  C   UNL     1       3.034   6.747  18.412  0.00  0.00    +0.000 A 
ATOM     29  C   UNL     1       2.556   6.577  19.711  0.00  0.00    +0.000 A 
ATOM     30  C   UNL     1       1.723   7.542  20.298  0.00  0.00    +0.000 A 
ATOM     31  C   UNL     1       1.347   8.715  19.618  0.00  0.00    +0.000 A 
ATOM     32  C   UNL     1       1.863   8.878  18.318  0.00  0.00    +0.000 A 
ATOM     33  C   UNL     1       2.685   7.913  17.721  0.00  0.00    +0.000 A 
ENDBRANCH  21  31
ENDBRANCH   1  24
BRANCH   2  34
ATOM     34  C   UNL     1      -3.828  12.284  24.131  0.00  0.00    +0.000 C 
BRANCH  34  35
ATOM     35  O   UNL     1      -4.799  13.025  24.850  0.00  0.00    +0.000 OA
ATOM     36  H   UNL     1      -4.835  12.635  25.742  0.00  0.00    +0.000 HD
ENDBRANCH  34  35
ENDBRANCH   2  34
TORSDOF 5
ENDMDL
MODEL 7
REMARK VINA RESULT:      -7.8      6.407     10.391
REMARK  Name = 
REMARK  6 active torsions:
REMARK  status: ('A' for Active; 'I' for Inactive)
REMARK    1  A    between atoms: C_1  and  C_2
REMARK    2  A    between atoms: C_5  and  C_6
REMARK    3  A    between atoms: C_9  and  C_10
REMARK    4  A    between atoms: C_11  and  C_12
REMARK    5  A    between atoms: C_12  and  O_13
REMARK    6  A    between atoms: N_21  and  C_22
REMARK                            x       y       z     vdW  Elec       q    Type
REMARK                         _______ _______ _______ _____ _____    ______ ____
ROOT
ATOM      1  C   UNL     1      -2.795  13.709  21.755  0.00  0.00    +0.000 C 
ATOM      2  C   UNL     1      -3.993  13.768  22.798  0.00  0.00    +0.000 C 
ATOM      3  N   UNL     1      -3.584  15.215  22.860  0.00  0.00    +0.000 N 
ATOM      4  C   UNL     1      -4.196  16.195  22.082  0.00  0.00    +0.000 C 
ATOM      5  O   UNL     1      -5.417  16.294  21.987  0.00  0.00    +0.000 OA
ATOM      6  C   UNL     1      -3.224  17.205  21.452  0.00  0.00    +0.000 C 
ATOM      7  N   UNL     1      -1.897  16.627  21.158  0.00  0.00    +0.000 N 
ATOM      8  C   UNL     1      -1.266  16.999  19.983  0.00  0.00    +0.000 C 
ATOM      9  O   UNL     1      -1.793  17.801  19.220  0.00  0.00    +0.000 OA
ATOM     10  N   UNL     1      -0.044  16.398  19.752  0.00  0.00    +0.000 N 
ATOM     11  C   UNL     1      -1.263  15.936  22.264  0.00  0.00    +0.000 C 
ATOM     12  C   UNL     1      -2.168  14.802  22.681  0.00  0.00    +0.000 C 
ATOM     13  H   UNL     1       0.102  15.498  20.180  0.00  0.00    +0.000 HD
ENDROOT
BRANCH  10  14
ATOM     14  C   UNL     1       0.857  16.725  18.717  0.00  0.00    +0.000 A 
ATOM     15  C   UNL     1       0.665  17.800  17.844  0.00  0.00    +0.000 A 
ATOM     16  C   UNL     1       1.561  18.049  16.801  0.00  0.00    +0.000 A 
ATOM     17  C   UNL     1       2.675  17.234  16.635  0.00  0.00    +0.000 A 
ATOM     18  C   UNL     1       2.893  16.193  17.528  0.00  0.00    +0.000 A 
ATOM     19  F   UNL     1       3.973  15.414  17.379  0.00  0.00    +0.000 F 
ATOM     20  C   UNL     1       2.005  15.935  18.570  0.00  0.00    +0.000 A 
ENDBRANCH  10  14
BRANCH   1  24
ATOM     21  C   UNL     1      -0.160  10.444  20.184  0.00  0.00    +0.000 A 
ATOM     22  C   UNL     1      -1.134  11.075  19.402  0.00  0.00    +0.000 A 
ATOM     23  C   UNL     1      -1.967  12.066  19.941  0.00  0.00    +0.000 A 
ATOM     24  C   UNL     1      -1.903  12.493  21.288  0.00  0.00    +0.000 A 
ATOM     25  C   UNL     1      -0.960  11.825  22.073  0.00  0.00    +0.000 A 
ATOM     26  C   UNL     1      -0.109  10.838  21.535  0.00  0.00    +0.000 A 
BRANCH  21  31
ATOM     27  C   UNL     1       3.621   6.546  18.018  0.00  0.00    +0.000 C 
ATOM     28  C   UNL     1       2.624   7.532  18.547  0.00  0.00    +0.000 A 
ATOM     29  C   UNL     1       2.121   8.560  17.751  0.00  0.00    +0.000 A 
ATOM     30  C   UNL     1       1.216   9.495  18.279  0.00  0.00    +0.000 A 
ATOM     31  C   UNL     1       0.773   9.433  19.612  0.00  0.00    +0.000 A 
ATOM     32  C   UNL     1       1.274   8.371  20.390  0.00  0.00    +0.000 A 
ATOM     33  C   UNL     1       2.186   7.441  19.874  0.00  0.00    +0.000 A 
ENDBRANCH  21  31
ENDBRANCH   1  24
BRANCH   2  34
ATOM     34  C   UNL     1      -4.080  13.285  24.253  0.00  0.00    +0.000 C 
BRANCH  34  35
ATOM     35  O   UNL     1      -4.198  11.874  24.311  0.00  0.00    +0.000 OA
ATOM     36  H   UNL     1      -4.161  11.558  23.390  0.00  0.00    +0.000 HD
ENDBRANCH  34  35
ENDBRANCH   2  34
TORSDOF 5
ENDMDL
MODEL 8
REMARK VINA RESULT:      -7.8      6.262      9.671
REMARK  Name = 
REMARK  6 active torsions:
REMARK  status: ('A' for Active; 'I' for Inactive)
REMARK    1  A    between atoms: C_1  and  C_2
REMARK    2  A    between atoms: C_5  and  C_6
REMARK    3  A    between atoms: C_9  and  C_10
REMARK    4  A    between atoms: C_11  and  C_12
REMARK    5  A    between atoms: C_12  and  O_13
REMARK    6  A    between atoms: N_21  and  C_22
REMARK                            x       y       z     vdW  Elec       q    Type
REMARK                         _______ _______ _______ _____ _____    ______ ____
ROOT
ATOM      1  C   UNL     1      -2.007  12.786  21.850  0.00  0.00    +0.000 C 
ATOM      2  C   UNL     1      -3.333  12.799  22.726  0.00  0.00    +0.000 C 
ATOM      3  N   UNL     1      -2.826  14.170  23.085  0.00  0.00    +0.000 N 
ATOM      4  C   UNL     1      -3.242  15.317  22.414  0.00  0.00    +0.000 C 
ATOM      5  O   UNL     1      -4.426  15.552  22.181  0.00  0.00    +0.000 OA
ATOM      6  C   UNL     1      -2.115  16.311  22.093  0.00  0.00    +0.000 C 
ATOM      7  N   UNL     1      -0.809  15.656  21.876  0.00  0.00    +0.000 N 
ATOM      8  C   UNL     1       0.010  16.143  20.872  0.00  0.00    +0.000 C 
ATOM      9  O   UNL     1      -0.339  17.104  20.195  0.00  0.00    +0.000 OA
ATOM     10  N   UNL     1       1.201  15.467  20.700  0.00  0.00    +0.000 N 
ATOM     11  C   UNL     1      -0.395  14.739  22.921  0.00  0.00    +0.000 C 
ATOM     12  C   UNL     1      -1.436  13.650  23.021  0.00  0.00    +0.000 C 
ATOM     13  H   UNL     1       1.214  14.500  20.984  0.00  0.00    +0.000 HD
ENDROOT
BRANCH  10  14
ATOM     14  C   UNL     1       2.264  15.861  19.859  0.00  0.00    +0.000 A 
ATOM     15  C   UNL     1       2.382  15.444  18.529  0.00  0.00    +0.000 A 
ATOM     16  C   UNL     1       3.483  15.820  17.753  0.00  0.00    +0.000 A 
ATOM     17  C   UNL     1       4.467  16.638  18.297  0.00  0.00    +0.000 A 
ATOM     18  C   UNL     1       4.328  17.089  19.603  0.00  0.00    +0.000 A 
ATOM     19  F   UNL     1       5.269  17.888  20.125  0.00  0.00    +0.000 F 
ATOM     20  C   UNL     1       3.237  16.719  20.385  0.00  0.00    +0.000 A 
ENDBRANCH  10  14
BRANCH   1  24
ATOM     21  C   UNL     1       0.575   9.564  20.111  0.00  0.00    +0.000 A 
ATOM     22  C   UNL     1      -0.170  10.447  19.322  0.00  0.00    +0.000 A 
ATOM     23  C   UNL     1      -0.999  11.418  19.904  0.00  0.00    +0.000 A 
ATOM     24  C   UNL     1      -1.155  11.575  21.301  0.00  0.00    +0.000 A 
ATOM     25  C   UNL     1      -0.444  10.659  22.080  0.00  0.00    +0.000 A 
ATOM     26  C   UNL     1       0.402   9.690  21.503  0.00  0.00    +0.000 A 
BRANCH  21  31
ATOM     27  C   UNL     1       4.107   5.601  17.660  0.00  0.00    +0.000 C 
ATOM     28  C   UNL     1       3.229   6.624  18.317  0.00  0.00    +0.000 A 
ATOM     29  C   UNL     1       2.728   6.437  19.604  0.00  0.00    +0.000 A 
ATOM     30  C   UNL     1       1.877   7.390  20.185  0.00  0.00    +0.000 A 
ATOM     31  C   UNL     1       1.506   8.567  19.510  0.00  0.00    +0.000 A 
ATOM     32  C   UNL     1       2.046   8.748  18.222  0.00  0.00    +0.000 A 
ATOM     33  C   UNL     1       2.885   7.795  17.631  0.00  0.00    +0.000 A 
ENDBRANCH  21  31
ENDBRANCH   1  24
BRANCH   2  34
ATOM     34  C   UNL     1      -3.664  12.104  24.055  0.00  0.00    +0.000 C 
BRANCH  34  35
ATOM     35  O   UNL     1      -4.477  12.932  24.870  0.00  0.00    +0.000 OA
ATOM     36  H   UNL     1      -4.199  12.769  25.789  0.00  0.00    +0.000 HD
ENDBRANCH  34  35
ENDBRANCH   2  34
TORSDOF 5
ENDMDL
MODEL 9
REMARK VINA RESULT:      -7.7      5.454      8.871
REMARK  Name = 
REMARK  6 active torsions:
REMARK  status: ('A' for Active; 'I' for Inactive)
REMARK    1  A    between atoms: C_1  and  C_2
REMARK    2  A    between atoms: C_5  and  C_6
REMARK    3  A    between atoms: C_9  and  C_10
REMARK    4  A    between atoms: C_11  and  C_12
REMARK    5  A    between atoms: C_12  and  O_13
REMARK    6  A    between atoms: N_21  and  C_22
REMARK                            x       y       z     vdW  Elec       q    Type
REMARK                         _______ _______ _______ _____ _____    ______ ____
ROOT
ATOM      1  C   UNL     1      -1.016  12.666  20.672  0.00  0.00    +0.000 C 
ATOM      2  C   UNL     1      -2.465  12.915  21.277  0.00  0.00    +0.000 C 
ATOM      3  N   UNL     1      -1.817  14.193  21.739  0.00  0.00    +0.000 N 
ATOM      4  C   UNL     1      -1.903  15.377  21.009  0.00  0.00    +0.000 C 
ATOM      5  O   UNL     1      -2.965  15.796  20.555  0.00  0.00    +0.000 OA
ATOM      6  C   UNL     1      -0.588  16.166  20.921  0.00  0.00    +0.000 C 
ATOM      7  N   UNL     1       0.610  15.302  20.955  0.00  0.00    +0.000 N 
ATOM      8  C   UNL     1       1.675  15.627  20.132  0.00  0.00    +0.000 C 
ATOM      9  O   UNL     1       1.625  16.616  19.409  0.00  0.00    +0.000 OA
ATOM     10  N   UNL     1       2.750  14.761  20.187  0.00  0.00    +0.000 N 
ATOM     11  C   UNL     1       0.660  14.355  22.052  0.00  0.00    +0.000 C 
ATOM     12  C   UNL     1      -0.545  13.452  21.939  0.00  0.00    +0.000 C 
ATOM     13  H   UNL     1       2.549  13.812  20.459  0.00  0.00    +0.000 HD
ENDROOT
BRANCH  10  14
ATOM     14  C   UNL     1       4.004  14.957  19.570  0.00  0.00    +0.000 A 
ATOM     15  C   UNL     1       4.267  14.606  18.243  0.00  0.00    +0.000 A 
ATOM     16  C   UNL     1       5.542  14.771  17.694  0.00  0.00    +0.000 A 
ATOM     17  C   UNL     1       6.564  15.313  18.467  0.00  0.00    +0.000 A 
ATOM     18  C   UNL     1       6.293  15.705  19.771  0.00  0.00    +0.000 A 
ATOM     19  F   UNL     1       7.271  16.239  20.514  0.00  0.00    +0.000 F 
ATOM     20  C   UNL     1       5.026  15.542  20.328  0.00  0.00    +0.000 A 
ENDBRANCH  10  14
BRANCH   1  24
ATOM     21  C   UNL     1       1.291   9.027  19.443  0.00  0.00    +0.000 A 
ATOM     22  C   UNL     1       0.890  10.014  18.535  0.00  0.00    +0.000 A 
ATOM     23  C   UNL     1       0.134  11.119  18.951  0.00  0.00    +0.000 A 
ATOM     24  C   UNL     1      -0.285  11.321  20.288  0.00  0.00    +0.000 A 
ATOM     25  C   UNL     1       0.079  10.307  21.178  0.00  0.00    +0.000 A 
ATOM     26  C   UNL     1       0.851   9.200  20.769  0.00  0.00    +0.000 A 
BRANCH  21  31
ATOM     27  C   UNL     1       4.744   4.557  17.932  0.00  0.00    +0.000 C 
ATOM     28  C   UNL     1       3.838   5.698  18.285  0.00  0.00    +0.000 A 
ATOM     29  C   UNL     1       3.786   6.857  17.511  0.00  0.00    +0.000 A 
ATOM     30  C   UNL     1       2.958   7.928  17.882  0.00  0.00    +0.000 A 
ATOM     31  C   UNL     1       2.144   7.879  19.028  0.00  0.00    +0.000 A 
ATOM     32  C   UNL     1       2.192   6.689  19.780  0.00  0.00    +0.000 A 
ATOM     33  C   UNL     1       3.026   5.620  19.423  0.00  0.00    +0.000 A 
ENDBRANCH  21  31
ENDBRANCH   1  24
BRANCH   2  34
ATOM     34  C   UNL     1      -3.154  12.315  22.511  0.00  0.00    +0.000 C 
BRANCH  34  35
ATOM     35  O   UNL     1      -4.562  12.431  22.410  0.00  0.00    +0.000 OA
ATOM     36  H   UNL     1      -4.734  13.095  21.718  0.00  0.00    +0.000 HD
ENDBRANCH  34  35
ENDBRANCH   2  34
TORSDOF 5
ENDMDL
