MODEL 1
REMARK VINA RESULT:      -7.6      0.000      0.000
REMARK  Name = 
REMARK  14 active torsions:
REMARK  status: ('A' for Active; 'I' for Inactive)
REMARK    1  A    between atoms: C_1  and  C_2
REMARK    2  A    between atoms: C_3  and  C_4
REMARK    3  A    between atoms: C_4  and  C_5
REMARK    4  A    between atoms: C_5  and  C_6
REMARK    5  A    between atoms: C_6  and  C_7
REMARK    6  A    between atoms: C_7  and  C_8
REMARK    7  A    between atoms: C_9  and  C_10
REMARK    8  A    between atoms: N_12  and  C_13
REMARK    9  A    between atoms: C_13  and  C_14
REMARK   10  A    between atoms: C_13  and  C_25
REMARK   11  A    between atoms: C_14  and  C_15
REMARK   12  A    between atoms: C_15  and  O_16
REMARK   13  A    between atoms: C_25  and  O_27
REMARK   14  A    between atoms: O_27  and  C_28
REMARK                            x       y       z     vdW  Elec       q    Type
REMARK                         _______ _______ _______ _____ _____    ______ ____
ROOT
ATOM      1  C   UNL     1       5.022   5.489  18.008  0.00  0.00    +0.000 C 
ENDROOT
BRANCH   1   4
ATOM      2  C   UNL     1       7.105   4.351  17.047  0.00  0.00    +0.000 C 
ATOM      3  O   UNL     1       8.302   4.109  17.203  0.00  0.00    +0.000 OA
ATOM      4  N   UNL     1       6.429   5.057  17.990  0.00  0.00    +0.000 N 
ATOM      5  H   UNL     1       7.028   5.417  18.733  0.00  0.00    +0.000 HD
BRANCH   2   7
ATOM      6  C   UNL     1       6.429   4.627  14.704  0.00  0.00    +0.000 C 
ATOM      7  C   UNL     1       6.356   3.936  15.846  0.00  0.00    +0.000 C 
BRANCH   6   8
ATOM      8  C   UNL     1       5.746   4.198  13.444  0.00  0.00    +0.000 C 
BRANCH   8   9
ATOM      9  C   UNL     1       6.701   3.705  12.351  0.00  0.00    +0.000 C 
BRANCH   9  10
ATOM     10  C   UNL     1       6.082   2.588  11.508  0.00  0.00    +0.000 C 
BRANCH  10  11
ATOM     11  C   UNL     1       4.563   2.532  11.641  0.00  0.00    +0.000 C 
BRANCH  11  14
ATOM     12  C   UNL     1       2.488   4.675   9.123  0.00  0.00    +0.000 C 
ATOM     13  C   UNL     1       3.131   4.166  10.370  0.00  0.00    +0.000 C 
ATOM     14  C   UNL     1       3.908   3.069  10.400  0.00  0.00    +0.000 C 
ENDBRANCH  11  14
ENDBRANCH  10  11
ENDBRANCH   9  10
ENDBRANCH   8   9
ENDBRANCH   6   8
ENDBRANCH   2   7
ENDBRANCH   1   4
BRANCH   1  15
ATOM     15  C   UNL     1       4.870   6.898  17.424  0.00  0.00    +0.000 C 
ATOM     16  O   UNL     1       5.804   7.669  17.214  0.00  0.00    +0.000 OA
BRANCH  15  17
ATOM     17  O   UNL     1       3.557   7.198  17.183  0.00  0.00    +0.000 OA
ATOM     18  C   UNL     1       3.068   8.291  17.956  0.00  0.00    +0.000 C 
ENDBRANCH  15  17
ENDBRANCH   1  15
BRANCH   1  19
ATOM     19  C   UNL     1       4.347   5.277  19.393  0.00  0.00    +0.000 C 
BRANCH  19  20
ATOM     20  C   UNL     1       3.141   4.325  19.427  0.00  0.00    +0.000 C 
ATOM     21  C   UNL     1       1.888   4.880  20.148  0.00  0.00    +0.000 C 
ATOM     22  O   UNL     1       1.777   6.013  20.601  0.00  0.00    +0.000 OA
ATOM     23  C   UNL     1       0.753   3.898  20.233  0.00  0.00    +0.000 C 
ATOM     24  O   UNL     1       1.161   2.675  20.860  0.00  0.00    +0.000 OA
ATOM     25  C   UNL     1       0.725   2.531  19.508  0.00  0.00    +0.000 C 
ATOM     26  C   UNL     1       1.636   2.729  18.286  0.00  0.00    +0.000 C 
ATOM     27  O   UNL     1       1.302   3.954  17.638  0.00  0.00    +0.000 OA
ATOM     28  C   UNL     1       2.661   3.840  18.092  0.00  0.00    +0.000 C 
BRANCH  20  29
ATOM     29  O   UNL     1       3.640   3.168  20.124  0.00  0.00    +0.000 OA
ATOM     30  H   UNL     1       3.044   2.966  20.872  0.00  0.00    +0.000 HD
ENDBRANCH  20  29
ENDBRANCH  19  20
ENDBRANCH   1  19
TORSDOF 12
ENDMDL
MODEL 2
REMARK VINA RESULT:      -7.5      3.869      6.894
REMARK  Name = 
REMARK  14 active torsions:
REMARK  status: ('A' for Active; 'I' for Inactive)
REMARK    1  A    between atoms: C_1  and  C_2
REMARK    2  A    between atoms: C_3  and  C_4
REMARK    3  A    between atoms: C_4  and  C_5
REMARK    4  A    between atoms: C_5  and  C_6
REMARK    5  A    between atoms: C_6  and  C_7
REMARK    6  A    between atoms: C_7  and  C_8
REMARK    7  A    between atoms: C_9  and  C_10
REMARK    8  A    between atoms: N_12  and  C_13
REMARK    9  A    between atoms: C_13  and  C_14
REMARK   10  A    between atoms: C_13  and  C_25
REMARK   11  A    between atoms: C_14  and  C_15
REMARK   12  A    between atoms: C_15  and  O_16
REMARK   13  A    between atoms: C_25  and  O_27
REMARK   14  A    between atoms: O_27  and  C_28
REMARK                            x       y       z     vdW  Elec       q    Type
REMARK                         _______ _______ _______ _____ _____    ______ ____
ROOT
ATOM      1  C   UNL     1       5.916   4.363  17.202  0.00  0.00    +0.000 C 
ENDROOT
BRANCH   1   4
ATOM      2  C   UNL     1       7.643   5.343  18.820  0.00  0.00    +0.000 C 
ATOM      3  O   UNL     1       8.376   5.130  19.786  0.00  0.00    +0.000 OA
ATOM      4  N   UNL     1       6.879   4.339  18.315  0.00  0.00    +0.000 N 
ATOM      5  H   UNL     1       6.918   3.484  18.869  0.00  0.00    +0.000 HD
BRANCH   2   7
ATOM      6  C   UNL     1       8.287   7.697  18.566  0.00  0.00    +0.000 C 
ATOM      7  C   UNL     1       7.519   6.670  18.188  0.00  0.00    +0.000 C 
BRANCH   6   8
ATOM      8  C   UNL     1       8.247   9.036  17.899  0.00  0.00    +0.000 C 
BRANCH   8   9
ATOM      9  C   UNL     1       8.832  10.173  18.743  0.00  0.00    +0.000 C 
BRANCH   9  10
ATOM     10  C   UNL     1       9.847  11.008  17.958  0.00  0.00    +0.000 C 
BRANCH  10  11
ATOM     11  C   UNL     1      10.601  11.992  18.848  0.00  0.00    +0.000 C 
BRANCH  11  14
ATOM     12  C   UNL     1       9.119  12.887  22.347  0.00  0.00    +0.000 C 
ATOM     13  C   UNL     1      10.022  12.397  21.264  0.00  0.00    +0.000 C 
ATOM     14  C   UNL     1       9.715  12.482  19.957  0.00  0.00    +0.000 C 
ENDBRANCH  11  14
ENDBRANCH  10  11
ENDBRANCH   9  10
ENDBRANCH   8   9
ENDBRANCH   6   8
ENDBRANCH   2   7
ENDBRANCH   1   4
BRANCH   1  15
ATOM     15  C   UNL     1       6.613   4.680  15.875  0.00  0.00    +0.000 C 
ATOM     16  O   UNL     1       7.825   4.598  15.688  0.00  0.00    +0.000 OA
BRANCH  15  17
ATOM     17  O   UNL     1       5.715   5.083  14.925  0.00  0.00    +0.000 OA
ATOM     18  C   UNL     1       5.543   4.148  13.864  0.00  0.00    +0.000 C 
ENDBRANCH  15  17
ENDBRANCH   1  15
BRANCH   1  19
ATOM     19  C   UNL     1       4.666   5.237  17.511  0.00  0.00    +0.000 C 
BRANCH  19  20
ATOM     20  C   UNL     1       3.530   4.554  18.287  0.00  0.00    +0.000 C 
ATOM     21  C   UNL     1       2.700   5.494  19.196  0.00  0.00    +0.000 C 
ATOM     22  O   UNL     1       2.836   6.709  19.269  0.00  0.00    +0.000 OA
ATOM     23  C   UNL     1       1.648   4.784  20.002  0.00  0.00    +0.000 C 
ATOM     24  O   UNL     1       2.212   3.731  20.794  0.00  0.00    +0.000 OA
ATOM     25  C   UNL     1       1.263   3.296  19.819  0.00  0.00    +0.000 C 
ATOM     26  C   UNL     1       1.617   2.989  18.355  0.00  0.00    +0.000 C 
ATOM     27  O   UNL     1       1.112   4.025  17.516  0.00  0.00    +0.000 OA
ATOM     28  C   UNL     1       2.531   3.809  17.453  0.00  0.00    +0.000 C 
BRANCH  20  29
ATOM     29  O   UNL     1       4.208   3.567  19.087  0.00  0.00    +0.000 OA
ATOM     30  H   UNL     1       4.712   4.020  19.792  0.00  0.00    +0.000 HD
ENDBRANCH  20  29
ENDBRANCH  19  20
ENDBRANCH   1  19
TORSDOF 12
ENDMDL
MODEL 3
REMARK VINA RESULT:      -7.2      1.303      1.771
REMARK  Name = 
REMARK  14 active torsions:
REMARK  status: ('A' for Active; 'I' for Inactive)
REMARK    1  A    between atoms: C_1  and  C_2
REMARK    2  A    between atoms: C_3  and  C_4
REMARK    3  A    between atoms: C_4  and  C_5
REMARK    4  A    between atoms: C_5  and  C_6
REMARK    5  A    between atoms: C_6  and  C_7
REMARK    6  A    between atoms: C_7  and  C_8
REMARK    7  A    between atoms: C_9  and  C_10
REMARK    8  A    between atoms: N_12  and  C_13
REMARK    9  A    between atoms: C_13  and  C_14
REMARK   10  A    between atoms: C_13  and  C_25
REMARK   11  A    between atoms: C_14  and  C_15
REMARK   12  A    between atoms: C_15  and  O_16
REMARK   13  A    between atoms: C_25  and  O_27
REMARK   14  A    between atoms: O_27  and  C_28
REMARK                            x       y       z     vdW  Elec       q    Type
REMARK                         _______ _______ _______ _____ _____    ______ ____
ROOT
ATOM      1  C   UNL     1       3.613   6.768  18.273  0.00  0.00    +0.000 C 
ENDROOT
BRANCH   1   4
ATOM      2  C   UNL     1       5.857   6.943  17.052  0.00  0.00    +0.000 C 
ATOM      3  O   UNL     1       6.864   7.624  16.855  0.00  0.00    +0.000 OA
ATOM      4  N   UNL     1       4.899   7.384  17.908  0.00  0.00    +0.000 N 
ATOM      5  H   UNL     1       5.069   8.328  18.254  0.00  0.00    +0.000 HD
BRANCH   2   7
ATOM      6  C   UNL     1       6.346   5.281  15.315  0.00  0.00    +0.000 C 
ATOM      7  C   UNL     1       5.613   5.660  16.366  0.00  0.00    +0.000 C 
BRANCH   6   8
ATOM      8  C   UNL     1       6.181   3.955  14.640  0.00  0.00    +0.000 C 
BRANCH   8   9
ATOM      9  C   UNL     1       5.607   4.041  13.222  0.00  0.00    +0.000 C 
BRANCH   9  10
ATOM     10  C   UNL     1       6.148   2.934  12.314  0.00  0.00    +0.000 C 
BRANCH  10  11
ATOM     11  C   UNL     1       5.055   2.296  11.461  0.00  0.00    +0.000 C 
BRANCH  11  14
ATOM     12  C   UNL     1       2.621   4.526   9.375  0.00  0.00    +0.000 C 
ATOM     13  C   UNL     1       3.165   3.521  10.337  0.00  0.00    +0.000 C 
ATOM     14  C   UNL     1       4.481   3.303  10.505  0.00  0.00    +0.000 C 
ENDBRANCH  11  14
ENDBRANCH  10  11
ENDBRANCH   9  10
ENDBRANCH   8   9
ENDBRANCH   6   8
ENDBRANCH   2   7
ENDBRANCH   1   4
BRANCH   1  15
ATOM     15  C   UNL     1       2.542   7.834  18.528  0.00  0.00    +0.000 C 
ATOM     16  O   UNL     1       1.890   7.931  19.566  0.00  0.00    +0.000 OA
BRANCH  15  17
ATOM     17  O   UNL     1       2.391   8.656  17.446  0.00  0.00    +0.000 OA
ATOM     18  C   UNL     1       1.784   9.908  17.757  0.00  0.00    +0.000 C 
ENDBRANCH  15  17
ENDBRANCH   1  15
BRANCH   1  19
ATOM     19  C   UNL     1       3.757   5.701  19.396  0.00  0.00    +0.000 C 
BRANCH  19  20
ATOM     20  C   UNL     1       2.967   4.397  19.206  0.00  0.00    +0.000 C 
ATOM     21  C   UNL     1       1.661   4.296  20.032  0.00  0.00    +0.000 C 
ATOM     22  O   UNL     1       1.197   5.186  20.734  0.00  0.00    +0.000 OA
ATOM     23  C   UNL     1       0.952   2.978  19.885  0.00  0.00    +0.000 C 
ATOM     24  O   UNL     1       1.811   1.879  20.214  0.00  0.00    +0.000 OA
ATOM     25  C   UNL     1       1.345   1.884  18.864  0.00  0.00    +0.000 C 
ATOM     26  C   UNL     1       2.029   2.654  17.723  0.00  0.00    +0.000 C 
ATOM     27  O   UNL     1       1.238   3.787  17.374  0.00  0.00    +0.000 OA
ATOM     28  C   UNL     1       2.582   4.073  17.794  0.00  0.00    +0.000 C 
BRANCH  20  29
ATOM     29  O   UNL     1       3.893   3.375  19.619  0.00  0.00    +0.000 OA
ATOM     30  H   UNL     1       3.571   2.507  19.303  0.00  0.00    +0.000 HD
ENDBRANCH  20  29
ENDBRANCH  19  20
ENDBRANCH   1  19
TORSDOF 12
ENDMDL
MODEL 4
REMARK VINA RESULT:      -7.1      3.783      6.478
REMARK  Name = 
REMARK  14 active torsions:
REMARK  status: ('A' for Active; 'I' for Inactive)
REMARK    1  A    between atoms: C_1  and  C_2
REMARK    2  A    between atoms: C_3  and  C_4
REMARK    3  A    between atoms: C_4  and  C_5
REMARK    4  A    between atoms: C_5  and  C_6
REMARK    5  A    between atoms: C_6  and  C_7
REMARK    6  A    between atoms: C_7  and  C_8
REMARK    7  A    between atoms: C_9  and  C_10
REMARK    8  A    between atoms: N_12  and  C_13
REMARK    9  A    between atoms: C_13  and  C_14
REMARK   10  A    between atoms: C_13  and  C_25
REMARK   11  A    between atoms: C_14  and  C_15
REMARK   12  A    between atoms: C_15  and  O_16
REMARK   13  A    between atoms: C_25  and  O_27
REMARK   14  A    between atoms: O_27  and  C_28
REMARK                            x       y       z     vdW  Elec       q    Type
REMARK                         _______ _______ _______ _____ _____    ______ ____
ROOT
ATOM      1  C   UNL     1       5.220   4.360  16.543  0.00  0.00    +0.000 C 
ENDROOT
BRANCH   1   4
ATOM      2  C   UNL     1       7.309   4.877  17.932  0.00  0.00    +0.000 C 
ATOM      3  O   UNL     1       8.319   4.423  18.468  0.00  0.00    +0.000 OA
ATOM      4  N   UNL     1       6.484   4.055  17.233  0.00  0.00    +0.000 N 
ATOM      5  H   UNL     1       6.744   3.071  17.299  0.00  0.00    +0.000 HD
BRANCH   2   7
ATOM      6  C   UNL     1       7.791   7.281  17.810  0.00  0.00    +0.000 C 
ATOM      7  C   UNL     1       6.917   6.296  18.040  0.00  0.00    +0.000 C 
BRANCH   6   8
ATOM      8  C   UNL     1       7.415   8.729  17.834  0.00  0.00    +0.000 C 
BRANCH   8   9
ATOM      9  C   UNL     1       8.601   9.686  17.676  0.00  0.00    +0.000 C 
BRANCH   9  10
ATOM     10  C   UNL     1       9.170  10.125  19.027  0.00  0.00    +0.000 C 
BRANCH  10  11
ATOM     11  C   UNL     1       9.283  11.642  19.146  0.00  0.00    +0.000 C 
BRANCH  11  14
ATOM     12  C   UNL     1      12.078  13.108  16.848  0.00  0.00    +0.000 C 
ATOM     13  C   UNL     1      11.345  12.547  18.022  0.00  0.00    +0.000 C 
ATOM     14  C   UNL     1      10.045  12.204  17.981  0.00  0.00    +0.000 C 
ENDBRANCH  11  14
ENDBRANCH  10  11
ENDBRANCH   9  10
ENDBRANCH   8   9
ENDBRANCH   6   8
ENDBRANCH   2   7
ENDBRANCH   1   4
BRANCH   1  15
ATOM     15  C   UNL     1       5.478   4.938  15.148  0.00  0.00    +0.000 C 
ATOM     16  O   UNL     1       5.834   6.094  14.928  0.00  0.00    +0.000 OA
BRANCH  15  17
ATOM     17  O   UNL     1       5.246   4.008  14.173  0.00  0.00    +0.000 OA
ATOM     18  C   UNL     1       6.331   3.847  13.262  0.00  0.00    +0.000 C 
ENDBRANCH  15  17
ENDBRANCH   1  15
BRANCH   1  19
ATOM     19  C   UNL     1       4.241   5.188  17.425  0.00  0.00    +0.000 C 
BRANCH  19  20
ATOM     20  C   UNL     1       3.606   4.453  18.615  0.00  0.00    +0.000 C 
ATOM     21  C   UNL     1       2.070   4.279  18.533  0.00  0.00    +0.000 C 
ATOM     22  O   UNL     1       1.371   4.604  17.581  0.00  0.00    +0.000 OA
ATOM     23  C   UNL     1       1.468   3.627  19.747  0.00  0.00    +0.000 C 
ATOM     24  O   UNL     1       1.805   4.335  20.947  0.00  0.00    +0.000 OA
ATOM     25  C   UNL     1       2.289   2.994  20.896  0.00  0.00    +0.000 C 
ATOM     26  C   UNL     1       3.616   2.585  20.236  0.00  0.00    +0.000 C 
ATOM     27  O   UNL     1       3.348   1.904  19.012  0.00  0.00    +0.000 OA
ATOM     28  C   UNL     1       4.155   3.088  18.902  0.00  0.00    +0.000 C 
BRANCH  20  29
ATOM     29  O   UNL     1       3.950   5.275  19.746  0.00  0.00    +0.000 OA
ATOM     30  H   UNL     1       3.306   6.008  19.815  0.00  0.00    +0.000 HD
ENDBRANCH  20  29
ENDBRANCH  19  20
ENDBRANCH   1  19
TORSDOF 12
ENDMDL
MODEL 5
REMARK VINA RESULT:      -7.1      3.463      6.931
REMARK  Name = 
REMARK  14 active torsions:
REMARK  status: ('A' for Active; 'I' for Inactive)
REMARK    1  A    between atoms: C_1  and  C_2
REMARK    2  A    between atoms: C_3  and  C_4
REMARK    3  A    between atoms: C_4  and  C_5
REMARK    4  A    between atoms: C_5  and  C_6
REMARK    5  A    between atoms: C_6  and  C_7
REMARK    6  A    between atoms: C_7  and  C_8
REMARK    7  A    between atoms: C_9  and  C_10
REMARK    8  A    between atoms: N_12  and  C_13
REMARK    9  A    between atoms: C_13  and  C_14
REMARK   10  A    between atoms: C_13  and  C_25
REMARK   11  A    between atoms: C_14  and  C_15
REMARK   12  A    between atoms: C_15  and  O_16
REMARK   13  A    between atoms: C_25  and  O_27
REMARK   14  A    between atoms: O_27  and  C_28
REMARK                            x       y       z     vdW  Elec       q    Type
REMARK                         _______ _______ _______ _____ _____    ______ ____
ROOT
ATOM      1  C   UNL     1       5.811   4.856  17.850  0.00  0.00    +0.000 C 
ENDROOT
BRANCH   1   4
ATOM      2  C   UNL     1       4.895   6.700  16.328  0.00  0.00    +0.000 C 
ATOM      3  O   UNL     1       4.845   7.153  15.184  0.00  0.00    +0.000 OA
ATOM      4  N   UNL     1       5.587   5.559  16.576  0.00  0.00    +0.000 N 
ATOM      5  H   UNL     1       6.104   5.216  15.766  0.00  0.00    +0.000 HD
BRANCH   2   7
ATOM      6  C   UNL     1       2.936   7.296  17.681  0.00  0.00    +0.000 C 
ATOM      7  C   UNL     1       4.255   7.367  17.478  0.00  0.00    +0.000 C 
BRANCH   6   8
ATOM      8  C   UNL     1       2.259   7.893  18.875  0.00  0.00    +0.000 C 
BRANCH   8   9
ATOM      9  C   UNL     1       1.323   9.060  18.546  0.00  0.00    +0.000 C 
BRANCH   9  10
ATOM     10  C   UNL     1       0.781   9.736  19.808  0.00  0.00    +0.000 C 
BRANCH  10  11
ATOM     11  C   UNL     1       0.553   8.745  20.946  0.00  0.00    +0.000 C 
BRANCH  11  14
ATOM     12  C   UNL     1      -1.448  11.264  23.160  0.00  0.00    +0.000 C 
ATOM     13  C   UNL     1      -0.600  10.674  22.082  0.00  0.00    +0.000 C 
ATOM     14  C   UNL     1      -0.301   9.364  22.016  0.00  0.00    +0.000 C 
ENDBRANCH  11  14
ENDBRANCH  10  11
ENDBRANCH   9  10
ENDBRANCH   8   9
ENDBRANCH   6   8
ENDBRANCH   2   7
ENDBRANCH   1   4
BRANCH   1  15
ATOM     15  C   UNL     1       7.290   4.895  18.249  0.00  0.00    +0.000 C 
ATOM     16  O   UNL     1       8.143   4.112  17.838  0.00  0.00    +0.000 OA
BRANCH  15  17
ATOM     17  O   UNL     1       7.538   5.905  19.138  0.00  0.00    +0.000 OA
ATOM     18  C   UNL     1       8.030   7.097  18.531  0.00  0.00    +0.000 C 
ENDBRANCH  15  17
ENDBRANCH   1  15
BRANCH   1  19
ATOM     19  C   UNL     1       5.162   3.442  17.876  0.00  0.00    +0.000 C 
BRANCH  19  20
ATOM     20  C   UNL     1       3.723   3.361  18.408  0.00  0.00    +0.000 C 
ATOM     21  C   UNL     1       3.219   1.930  18.717  0.00  0.00    +0.000 C 
ATOM     22  O   UNL     1       3.895   0.911  18.645  0.00  0.00    +0.000 OA
ATOM     23  C   UNL     1       1.783   1.876  19.160  0.00  0.00    +0.000 C 
ATOM     24  O   UNL     1       0.913   2.492  18.202  0.00  0.00    +0.000 OA
ATOM     25  C   UNL     1       0.921   3.120  19.484  0.00  0.00    +0.000 C 
ATOM     26  C   UNL     1       1.941   4.189  19.908  0.00  0.00    +0.000 C 
ATOM     27  O   UNL     1       2.862   3.625  20.838  0.00  0.00    +0.000 OA
ATOM     28  C   UNL     1       3.441   4.167  19.640  0.00  0.00    +0.000 C 
BRANCH  20  29
ATOM     29  O   UNL     1       2.936   3.944  17.352  0.00  0.00    +0.000 OA
ATOM     30  H   UNL     1       2.083   3.471  17.292  0.00  0.00    +0.000 HD
ENDBRANCH  20  29
ENDBRANCH  19  20
ENDBRANCH   1  19
TORSDOF 12
ENDMDL
MODEL 6
REMARK VINA RESULT:      -7.1      1.565      2.258
REMARK  Name = 
REMARK  14 active torsions:
REMARK  status: ('A' for Active; 'I' for Inactive)
REMARK    1  A    between atoms: C_1  and  C_2
REMARK    2  A    between atoms: C_3  and  C_4
REMARK    3  A    between atoms: C_4  and  C_5
REMARK    4  A    between atoms: C_5  and  C_6
REMARK    5  A    between atoms: C_6  and  C_7
REMARK    6  A    between atoms: C_7  and  C_8
REMARK    7  A    between atoms: C_9  and  C_10
REMARK    8  A    between atoms: N_12  and  C_13
REMARK    9  A    between atoms: C_13  and  C_14
REMARK   10  A    between atoms: C_13  and  C_25
REMARK   11  A    between atoms: C_14  and  C_15
REMARK   12  A    between atoms: C_15  and  O_16
REMARK   13  A    between atoms: C_25  and  O_27
REMARK   14  A    between atoms: O_27  and  C_28
REMARK                            x       y       z     vdW  Elec       q    Type
REMARK                         _______ _______ _______ _____ _____    ______ ____
ROOT
ATOM      1  C   UNL     1       2.944   6.584  17.935  0.00  0.00    +0.000 C 
ENDROOT
BRANCH   1   4
ATOM      2  C   UNL     1       5.454   6.227  17.579  0.00  0.00    +0.000 C 
ATOM      3  O   UNL     1       6.576   6.272  18.084  0.00  0.00    +0.000 OA
ATOM      4  N   UNL     1       4.362   6.536  18.325  0.00  0.00    +0.000 N 
ATOM      5  H   UNL     1       4.594   6.883  19.256  0.00  0.00    +0.000 HD
BRANCH   2   7
ATOM      6  C   UNL     1       5.432   4.641  15.706  0.00  0.00    +0.000 C 
ATOM      7  C   UNL     1       5.230   5.881  16.162  0.00  0.00    +0.000 C 
BRANCH   6   8
ATOM      8  C   UNL     1       5.143   4.231  14.296  0.00  0.00    +0.000 C 
BRANCH   8   9
ATOM      9  C   UNL     1       6.341   3.617  13.565  0.00  0.00    +0.000 C 
BRANCH   9  10
ATOM     10  C   UNL     1       6.108   3.523  12.056  0.00  0.00    +0.000 C 
BRANCH  10  11
ATOM     11  C   UNL     1       4.732   2.957  11.714  0.00  0.00    +0.000 C 
BRANCH  11  14
ATOM     12  C   UNL     1       2.498   4.696   9.024  0.00  0.00    +0.000 C 
ATOM     13  C   UNL     1       2.988   4.099  10.303  0.00  0.00    +0.000 C 
ATOM     14  C   UNL     1       4.215   3.568  10.442  0.00  0.00    +0.000 C 
ENDBRANCH  11  14
ENDBRANCH  10  11
ENDBRANCH   9  10
ENDBRANCH   8   9
ENDBRANCH   6   8
ENDBRANCH   2   7
ENDBRANCH   1   4
BRANCH   1  15
ATOM     15  C   UNL     1       2.192   7.667  18.717  0.00  0.00    +0.000 C 
ATOM     16  O   UNL     1       2.175   7.754  19.943  0.00  0.00    +0.000 OA
BRANCH  15  17
ATOM     17  O   UNL     1       1.527   8.517  17.876  0.00  0.00    +0.000 OA
ATOM     18  C   UNL     1       1.863   9.889  18.063  0.00  0.00    +0.000 C 
ENDBRANCH  15  17
ENDBRANCH   1  15
BRANCH   1  19
ATOM     19  C   UNL     1       2.272   5.181  17.946  0.00  0.00    +0.000 C 
BRANCH  19  20
ATOM     20  C   UNL     1       2.597   4.278  19.145  0.00  0.00    +0.000 C 
ATOM     21  C   UNL     1       1.396   3.483  19.712  0.00  0.00    +0.000 C 
ATOM     22  O   UNL     1       0.268   3.468  19.233  0.00  0.00    +0.000 OA
ATOM     23  C   UNL     1       1.728   2.670  20.932  0.00  0.00    +0.000 C 
ATOM     24  O   UNL     1       2.294   3.482  21.968  0.00  0.00    +0.000 OA
ATOM     25  C   UNL     1       3.161   2.459  21.478  0.00  0.00    +0.000 C 
ATOM     26  C   UNL     1       4.065   2.619  20.245  0.00  0.00    +0.000 C 
ATOM     27  O   UNL     1       3.533   1.860  19.163  0.00  0.00    +0.000 OA
ATOM     28  C   UNL     1       3.683   3.268  18.920  0.00  0.00    +0.000 C 
BRANCH  20  29
ATOM     29  O   UNL     1       3.095   5.195  20.138  0.00  0.00    +0.000 OA
ATOM     30  H   UNL     1       2.950   6.111  19.827  0.00  0.00    +0.000 HD
ENDBRANCH  20  29
ENDBRANCH  19  20
ENDBRANCH   1  19
TORSDOF 12
ENDMDL
MODEL 7
REMARK VINA RESULT:      -7.0      2.870      7.715
REMARK  Name = 
REMARK  14 active torsions:
REMARK  status: ('A' for Active; 'I' for Inactive)
REMARK    1  A    between atoms: C_1  and  C_2
REMARK    2  A    between atoms: C_3  and  C_4
REMARK    3  A    between atoms: C_4  and  C_5
REMARK    4  A    between atoms: C_5  and  C_6
REMARK    5  A    between atoms: C_6  and  C_7
REMARK    6  A    between atoms: C_7  and  C_8
REMARK    7  A    between atoms: C_9  and  C_10
REMARK    8  A    between atoms: N_12  and  C_13
REMARK    9  A    between atoms: C_13  and  C_14
REMARK   10  A    between atoms: C_13  and  C_25
REMARK   11  A    between atoms: C_14  and  C_15
REMARK   12  A    between atoms: C_15  and  O_16
REMARK   13  A    between atoms: C_25  and  O_27
REMARK   14  A    between atoms: O_27  and  C_28
REMARK                            x       y       z     vdW  Elec       q    Type
REMARK                         _______ _______ _______ _____ _____    ______ ____
ROOT
ATOM      1  C   UNL     1       3.928   3.768  19.355  0.00  0.00    +0.000 C 
ENDROOT
BRANCH   1   4
ATOM      2  C   UNL     1       2.146   5.357  20.282  0.00  0.00    +0.000 C 
ATOM      3  O   UNL     1       1.378   5.603  21.212  0.00  0.00    +0.000 OA
ATOM      4  N   UNL     1       2.963   4.274  20.345  0.00  0.00    +0.000 N 
ATOM      5  H   UNL     1       2.788   3.684  21.158  0.00  0.00    +0.000 HD
BRANCH   2   7
ATOM      6  C   UNL     1       2.428   7.494  19.107  0.00  0.00    +0.000 C 
ATOM      7  C   UNL     1       2.205   6.177  19.056  0.00  0.00    +0.000 C 
BRANCH   6   8
ATOM      8  C   UNL     1       2.570   8.347  17.886  0.00  0.00    +0.000 C 
BRANCH   8   9
ATOM      9  C   UNL     1       1.349   9.223  17.589  0.00  0.00    +0.000 C 
BRANCH   9  10
ATOM     10  C   UNL     1       1.206  10.370  18.591  0.00  0.00    +0.000 C 
BRANCH  10  11
ATOM     11  C   UNL     1      -0.244  10.606  19.003  0.00  0.00    +0.000 C 
BRANCH  11  14
ATOM     12  C   UNL     1       0.249   9.260  22.635  0.00  0.00    +0.000 C 
ATOM     13  C   UNL     1       0.478   9.619  21.204  0.00  0.00    +0.000 C 
ATOM     14  C   UNL     1      -0.446  10.237  20.446  0.00  0.00    +0.000 C 
ENDBRANCH  11  14
ENDBRANCH  10  11
ENDBRANCH   9  10
ENDBRANCH   8   9
ENDBRANCH   6   8
ENDBRANCH   2   7
ENDBRANCH   1   4
BRANCH   1  15
ATOM     15  C   UNL     1       4.288   2.305  19.633  0.00  0.00    +0.000 C 
ATOM     16  O   UNL     1       5.102   1.936  20.477  0.00  0.00    +0.000 OA
BRANCH  15  17
ATOM     17  O   UNL     1       3.600   1.457  18.809  0.00  0.00    +0.000 OA
ATOM     18  C   UNL     1       2.598   2.104  18.028  0.00  0.00    +0.000 C 
ENDBRANCH  15  17
ENDBRANCH   1  15
BRANCH   1  19
ATOM     19  C   UNL     1       5.145   4.718  19.165  0.00  0.00    +0.000 C 
BRANCH  19  20
ATOM     20  C   UNL     1       5.662   4.886  17.729  0.00  0.00    +0.000 C 
ATOM     21  C   UNL     1       7.178   4.631  17.544  0.00  0.00    +0.000 C 
ATOM     22  O   UNL     1       7.941   4.240  18.419  0.00  0.00    +0.000 OA
ATOM     23  C   UNL     1       7.669   4.880  16.144  0.00  0.00    +0.000 C 
ATOM     24  O   UNL     1       7.351   6.206  15.703  0.00  0.00    +0.000 OA
ATOM     25  C   UNL     1       6.748   5.166  14.934  0.00  0.00    +0.000 C 
ATOM     26  C   UNL     1       5.417   4.490  15.300  0.00  0.00    +0.000 C 
ATOM     27  O   UNL     1       5.669   3.173  15.783  0.00  0.00    +0.000 OA
ATOM     28  C   UNL     1       4.979   4.047  16.691  0.00  0.00    +0.000 C 
BRANCH  20  29
ATOM     29  O   UNL     1       5.350   6.256  17.412  0.00  0.00    +0.000 OA
ATOM     30  H   UNL     1       4.594   6.276  16.792  0.00  0.00    +0.000 HD
ENDBRANCH  20  29
ENDBRANCH  19  20
ENDBRANCH   1  19
TORSDOF 12
ENDMDL
MODEL 8
REMARK VINA RESULT:      -7.0      0.953      1.839
REMARK  Name = 
REMARK  14 active torsions:
REMARK  status: ('A' for Active; 'I' for Inactive)
REMARK    1  A    between atoms: C_1  and  C_2
REMARK    2  A    between atoms: C_3  and  C_4
REMARK    3  A    between atoms: C_4  and  C_5
REMARK    4  A    between atoms: C_5  and  C_6
REMARK    5  A    between atoms: C_6  and  C_7
REMARK    6  A    between atoms: C_7  and  C_8
REMARK    7  A    between atoms: C_9  and  C_10
REMARK    8  A    between atoms: N_12  and  C_13
REMARK    9  A    between atoms: C_13  and  C_14
REMARK   10  A    between atoms: C_13  and  C_25
REMARK   11  A    between atoms: C_14  and  C_15
REMARK   12  A    between atoms: C_15  and  O_16
REMARK   13  A    between atoms: C_25  and  O_27
REMARK   14  A    between atoms: O_27  and  C_28
REMARK                            x       y       z     vdW  Elec       q    Type
REMARK                         _______ _______ _______ _____ _____    ______ ____
ROOT
ATOM      1  C   UNL     1       5.091   5.326  18.377  0.00  0.00    +0.000 C 
ENDROOT
BRANCH   1   4
ATOM      2  C   UNL     1       7.311   4.484  17.416  0.00  0.00    +0.000 C 
ATOM      3  O   UNL     1       8.453   4.098  17.666  0.00  0.00    +0.000 OA
ATOM      4  N   UNL     1       6.471   4.816  18.431  0.00  0.00    +0.000 N 
ATOM      5  H   UNL     1       6.919   4.801  19.347  0.00  0.00    +0.000 HD
BRANCH   2   7
ATOM      6  C   UNL     1       5.771   3.923  15.590  0.00  0.00    +0.000 C 
ATOM      7  C   UNL     1       6.804   4.641  16.040  0.00  0.00    +0.000 C 
BRANCH   6   8
ATOM      8  C   UNL     1       5.179   4.107  14.227  0.00  0.00    +0.000 C 
BRANCH   8   9
ATOM      9  C   UNL     1       6.034   3.536  13.091  0.00  0.00    +0.000 C 
BRANCH   9  10
ATOM     10  C   UNL     1       5.379   3.736  11.723  0.00  0.00    +0.000 C 
BRANCH  10  11
ATOM     11  C   UNL     1       4.361   2.645  11.401  0.00  0.00    +0.000 C 
BRANCH  11  14
ATOM     12  C   UNL     1       2.256   4.865   8.975  0.00  0.00    +0.000 C 
ATOM     13  C   UNL     1       3.234   4.414  10.009  0.00  0.00    +0.000 C 
ATOM     14  C   UNL     1       3.389   3.126  10.362  0.00  0.00    +0.000 C 
ENDBRANCH  11  14
ENDBRANCH  10  11
ENDBRANCH   9  10
ENDBRANCH   8   9
ENDBRANCH   6   8
ENDBRANCH   2   7
ENDBRANCH   1   4
BRANCH   1  15
ATOM     15  C   UNL     1       5.058   6.778  17.890  0.00  0.00    +0.000 C 
ATOM     16  O   UNL     1       5.957   7.318  17.248  0.00  0.00    +0.000 OA
BRANCH  15  17
ATOM     17  O   UNL     1       3.906   7.407  18.277  0.00  0.00    +0.000 OA
ATOM     18  C   UNL     1       3.133   7.908  17.189  0.00  0.00    +0.000 C 
ENDBRANCH  15  17
ENDBRANCH   1  15
BRANCH   1  19
ATOM     19  C   UNL     1       4.301   5.056  19.689  0.00  0.00    +0.000 C 
BRANCH  19  20
ATOM     20  C   UNL     1       3.034   4.197  19.560  0.00  0.00    +0.000 C 
ATOM     21  C   UNL     1       3.243   2.819  18.883  0.00  0.00    +0.000 C 
ATOM     22  O   UNL     1       4.324   2.359  18.535  0.00  0.00    +0.000 OA
ATOM     23  C   UNL     1       1.973   2.035  18.700  0.00  0.00    +0.000 C 
ATOM     24  O   UNL     1       0.995   2.783  17.967  0.00  0.00    +0.000 OA
ATOM     25  C   UNL     1       0.604   2.439  19.296  0.00  0.00    +0.000 C 
ATOM     26  C   UNL     1       0.959   3.273  20.538  0.00  0.00    +0.000 C 
ATOM     27  O   UNL     1       1.961   2.596  21.294  0.00  0.00    +0.000 OA
ATOM     28  C   UNL     1       2.308   3.915  20.841  0.00  0.00    +0.000 C 
BRANCH  20  29
ATOM     29  O   UNL     1       2.152   5.008  18.763  0.00  0.00    +0.000 OA
ATOM     30  H   UNL     1       1.503   4.429  18.316  0.00  0.00    +0.000 HD
ENDBRANCH  20  29
ENDBRANCH  19  20
ENDBRANCH   1  19
TORSDOF 12
ENDMDL
MODEL 9
REMARK VINA RESULT:      -6.8      1.448      2.341
REMARK  Name = 
REMARK  14 active torsions:
REMARK  status: ('A' for Active; 'I' for Inactive)
REMARK    1  A    between atoms: C_1  and  C_2
REMARK    2  A    between atoms: C_3  and  C_4
REMARK    3  A    between atoms: C_4  and  C_5
REMARK    4  A    between atoms: C_5  and  C_6
REMARK    5  A    between atoms: C_6  and  C_7
REMARK    6  A    between atoms: C_7  and  C_8
REMARK    7  A    between atoms: C_9  and  C_10
REMARK    8  A    between atoms: N_12  and  C_13
REMARK    9  A    between atoms: C_13  and  C_14
REMARK   10  A    between atoms: C_13  and  C_25
REMARK   11  A    between atoms: C_14  and  C_15
REMARK   12  A    between atoms: C_15  and  O_16
REMARK   13  A    between atoms: C_25  and  O_27
REMARK   14  A    between atoms: O_27  and  C_28
REMARK                            x       y       z     vdW  Elec       q    Type
REMARK                         _______ _______ _______ _____ _____    ______ ____
ROOT
ATOM      1  C   UNL     1       3.499   6.692  18.262  0.00  0.00    +0.000 C 
ENDROOT
BRANCH   1   4
ATOM      2  C   UNL     1       5.949   6.703  17.514  0.00  0.00    +0.000 C 
ATOM      3  O   UNL     1       7.124   6.829  17.859  0.00  0.00    +0.000 OA
ATOM      4  N   UNL     1       4.958   6.779  18.440  0.00  0.00    +0.000 N 
ATOM      5  H   UNL     1       5.292   7.039  19.368  0.00  0.00    +0.000 HD
BRANCH   2   7
ATOM      6  C   UNL     1       5.706   5.323  15.499  0.00  0.00    +0.000 C 
ATOM      7  C   UNL     1       5.547   6.502  16.109  0.00  0.00    +0.000 C 
BRANCH   6   8
ATOM      8  C   UNL     1       5.242   5.057  14.101  0.00  0.00    +0.000 C 
BRANCH   8   9
ATOM      9  C   UNL     1       5.323   3.585  13.684  0.00  0.00    +0.000 C 
BRANCH   9  10
ATOM     10  C   UNL     1       5.733   3.424  12.219  0.00  0.00    +0.000 C 
BRANCH  10  11
ATOM     11  C   UNL     1       4.617   2.829  11.364  0.00  0.00    +0.000 C 
BRANCH  11  14
ATOM     12  C   UNL     1       2.223   4.891   9.069  0.00  0.00    +0.000 C 
ATOM     13  C   UNL     1       3.047   3.786   9.645  0.00  0.00    +0.000 C 
ATOM     14  C   UNL     1       3.777   3.922  10.766  0.00  0.00    +0.000 C 
ENDBRANCH  11  14
ENDBRANCH  10  11
ENDBRANCH   9  10
ENDBRANCH   8   9
ENDBRANCH   6   8
ENDBRANCH   2   7
ENDBRANCH   1   4
BRANCH   1  15
ATOM     15  C   UNL     1       2.898   8.066  17.952  0.00  0.00    +0.000 C 
ATOM     16  O   UNL     1       2.998   8.643  16.871  0.00  0.00    +0.000 OA
BRANCH  15  17
ATOM     17  O   UNL     1       2.248   8.582  19.040  0.00  0.00    +0.000 OA
ATOM     18  C   UNL     1       1.223   9.515  18.707  0.00  0.00    +0.000 C 
ENDBRANCH  15  17
ENDBRANCH   1  15
BRANCH   1  19
ATOM     19  C   UNL     1       2.801   5.915  19.414  0.00  0.00    +0.000 C 
BRANCH  19  20
ATOM     20  C   UNL     1       2.441   4.449  19.130  0.00  0.00    +0.000 C 
ATOM     21  C   UNL     1       3.644   3.475  19.088  0.00  0.00    +0.000 C 
ATOM     22  O   UNL     1       4.806   3.775  19.337  0.00  0.00    +0.000 OA
ATOM     23  C   UNL     1       3.270   2.064  18.730  0.00  0.00    +0.000 C 
ATOM     24  O   UNL     1       2.565   2.006  17.483  0.00  0.00    +0.000 OA
ATOM     25  C   UNL     1       1.815   1.550  18.608  0.00  0.00    +0.000 C 
ATOM     26  C   UNL     1       1.006   2.475  19.532  0.00  0.00    +0.000 C 
ATOM     27  O   UNL     1       1.677   2.603  20.783  0.00  0.00    +0.000 OA
ATOM     28  C   UNL     1       1.450   3.830  20.070  0.00  0.00    +0.000 C 
BRANCH  20  29
ATOM     29  O   UNL     1       1.801   4.498  17.841  0.00  0.00    +0.000 OA
ATOM     30  H   UNL     1       2.232   5.188  17.298  0.00  0.00    +0.000 HD
ENDBRANCH  20  29
ENDBRANCH  19  20
ENDBRANCH   1  19
TORSDOF 12
ENDMDL
