MODEL 1
REMARK VINA RESULT:      -6.9      0.000      0.000
REMARK  Name = 
REMARK  3 active torsions:
REMARK  status: ('A' for Active; 'I' for Inactive)
REMARK    1  A    between atoms: N_1  and  C_2
REMARK    2  A    between atoms: C_7  and  C_8
REMARK    3  A    between atoms: C_8  and  O_9
REMARK                            x       y       z     vdW  Elec       q    Type
REMARK                         _______ _______ _______ _____ _____    ______ ____
ROOT
ATOM      1  C   UNL     1       3.778   5.914  17.532  0.00  0.00    +0.000 A 
ATOM      2  C   UNL     1       4.780   6.513  16.741  0.00  0.00    +0.000 A 
ATOM      3  C   UNL     1       5.641   5.741  15.977  0.00  0.00    +0.000 A 
ATOM      4  C   UNL     1       5.468   4.364  15.939  0.00  0.00    +0.000 A 
ATOM      5  C   UNL     1       4.428   3.766  16.659  0.00  0.00    +0.000 A 
ATOM      6  C   UNL     1       3.583   4.503  17.500  0.00  0.00    +0.000 A 
ENDROOT
BRANCH   6   7
ATOM      7  C   UNL     1       2.466   3.842  18.252  0.00  0.00    +0.000 C 
ATOM      8  C   UNL     1       2.500   3.126  19.392  0.00  0.00    +0.000 C 
ATOM      9  C   UNL     1       1.277   2.638  20.105  0.00  0.00    +0.000 C 
ATOM     10  C   UNL     1       1.716   2.818  21.532  0.00  0.00    +0.000 C 
ATOM     11  O   UNL     1       3.106   2.508  21.536  0.00  0.00    +0.000 OA
ATOM     12  C   UNL     1       3.622   2.728  20.290  0.00  0.00    +0.000 C 
ATOM     13  O   UNL     1       4.784   2.520  20.003  0.00  0.00    +0.000 OA
BRANCH   7  14
ATOM     14  O   UNL     1       1.201   4.048  17.690  0.00  0.00    +0.000 OA
ATOM     15  H   UNL     1       0.538   3.909  18.402  0.00  0.00    +0.000 HD
ENDBRANCH   7  14
ENDBRANCH   6   7
BRANCH   1  16
ATOM     16  N   UNL     1       2.890   6.770  18.234  0.00  0.00    +0.000 N 
ATOM     17  H   UNL     1       3.003   7.747  17.971  0.00  0.00    +0.000 HD
ATOM     18  H   UNL     1       3.017   6.665  19.243  0.00  0.00    +0.000 HD
ENDBRANCH   1  16
TORSDOF 3
ENDMDL
MODEL 2
REMARK VINA RESULT:      -6.8      2.291      5.179
REMARK  Name = 
REMARK  3 active torsions:
REMARK  status: ('A' for Active; 'I' for Inactive)
REMARK    1  A    between atoms: N_1  and  C_2
REMARK    2  A    between atoms: C_7  and  C_8
REMARK    3  A    between atoms: C_8  and  O_9
REMARK                            x       y       z     vdW  Elec       q    Type
REMARK                         _______ _______ _______ _____ _____    ______ ____
ROOT
ATOM      1  C   UNL     1       3.582   2.752  20.178  0.00  0.00    +0.000 A 
ATOM      2  C   UNL     1       2.756   2.591  21.309  0.00  0.00    +0.000 A 
ATOM      3  C   UNL     1       1.470   3.105  21.332  0.00  0.00    +0.000 A 
ATOM      4  C   UNL     1       0.965   3.726  20.197  0.00  0.00    +0.000 A 
ATOM      5  C   UNL     1       1.748   3.823  19.042  0.00  0.00    +0.000 A 
ATOM      6  C   UNL     1       3.078   3.381  19.003  0.00  0.00    +0.000 A 
ENDROOT
BRANCH   6   7
ATOM      7  C   UNL     1       3.895   3.483  17.749  0.00  0.00    +0.000 C 
ATOM      8  C   UNL     1       4.334   4.574  17.093  0.00  0.00    +0.000 C 
ATOM      9  C   UNL     1       5.261   4.521  15.918  0.00  0.00    +0.000 C 
ATOM     10  C   UNL     1       6.104   5.735  16.196  0.00  0.00    +0.000 C 
ATOM     11  O   UNL     1       5.211   6.688  16.763  0.00  0.00    +0.000 OA
ATOM     12  C   UNL     1       4.166   6.033  17.353  0.00  0.00    +0.000 C 
ATOM     13  O   UNL     1       3.241   6.604  17.894  0.00  0.00    +0.000 OA
BRANCH   7  14
ATOM     14  O   UNL     1       4.282   2.247  17.220  0.00  0.00    +0.000 OA
ATOM     15  H   UNL     1       4.532   1.671  17.977  0.00  0.00    +0.000 HD
ENDBRANCH   7  14
ENDBRANCH   6   7
BRANCH   1  16
ATOM     16  N   UNL     1       4.862   2.140  20.201  0.00  0.00    +0.000 N 
ATOM     17  H   UNL     1       4.828   1.157  19.936  0.00  0.00    +0.000 HD
ATOM     18  H   UNL     1       5.285   2.235  21.127  0.00  0.00    +0.000 HD
ENDBRANCH   1  16
TORSDOF 3
ENDMDL
MODEL 3
REMARK VINA RESULT:      -6.7      1.905      2.782
REMARK  Name = 
REMARK  3 active torsions:
REMARK  status: ('A' for Active; 'I' for Inactive)
REMARK    1  A    between atoms: N_1  and  C_2
REMARK    2  A    between atoms: C_7  and  C_8
REMARK    3  A    between atoms: C_8  and  O_9
REMARK                            x       y       z     vdW  Elec       q    Type
REMARK                         _______ _______ _______ _____ _____    ______ ____
ROOT
ATOM      1  C   UNL     1       4.697   4.002  16.982  0.00  0.00    +0.000 A 
ATOM      2  C   UNL     1       5.424   4.141  15.782  0.00  0.00    +0.000 A 
ATOM      3  C   UNL     1       5.615   5.386  15.204  0.00  0.00    +0.000 A 
ATOM      4  C   UNL     1       5.142   6.518  15.855  0.00  0.00    +0.000 A 
ATOM      5  C   UNL     1       4.487   6.400  17.086  0.00  0.00    +0.000 A 
ATOM      6  C   UNL     1       4.210   5.154  17.666  0.00  0.00    +0.000 A 
ENDROOT
BRANCH   6   7
ATOM      7  C   UNL     1       3.519   5.051  18.993  0.00  0.00    +0.000 C 
ATOM      8  C   UNL     1       2.343   4.475  19.310  0.00  0.00    +0.000 C 
ATOM      9  C   UNL     1       1.839   4.331  20.712  0.00  0.00    +0.000 C 
ATOM     10  C   UNL     1       1.190   2.977  20.619  0.00  0.00    +0.000 C 
ATOM     11  O   UNL     1       0.631   2.922  19.310  0.00  0.00    +0.000 OA
ATOM     12  C   UNL     1       1.324   3.764  18.486  0.00  0.00    +0.000 C 
ATOM     13  O   UNL     1       1.044   3.932  17.316  0.00  0.00    +0.000 OA
BRANCH   7  14
ATOM     14  O   UNL     1       4.240   5.608  20.055  0.00  0.00    +0.000 OA
ATOM     15  H   UNL     1       3.730   5.436  20.878  0.00  0.00    +0.000 HD
ENDBRANCH   7  14
ENDBRANCH   6   7
BRANCH   1  16
ATOM     16  N   UNL     1       4.601   2.706  17.551  0.00  0.00    +0.000 N 
ATOM     17  H   UNL     1       4.784   2.706  18.552  0.00  0.00    +0.000 HD
ATOM     18  H   UNL     1       5.242   2.063  17.080  0.00  0.00    +0.000 HD
ENDBRANCH   1  16
TORSDOF 3
ENDMDL
MODEL 4
REMARK VINA RESULT:      -6.7      2.164      2.685
REMARK  Name = 
REMARK  3 active torsions:
REMARK  status: ('A' for Active; 'I' for Inactive)
REMARK    1  A    between atoms: N_1  and  C_2
REMARK    2  A    between atoms: C_7  and  C_8
REMARK    3  A    between atoms: C_8  and  O_9
REMARK                            x       y       z     vdW  Elec       q    Type
REMARK                         _______ _______ _______ _____ _____    ______ ____
ROOT
ATOM      1  C   UNL     1       5.449   4.502  18.223  0.00  0.00    +0.000 A 
ATOM      2  C   UNL     1       6.556   4.711  17.376  0.00  0.00    +0.000 A 
ATOM      3  C   UNL     1       6.548   5.723  16.429  0.00  0.00    +0.000 A 
ATOM      4  C   UNL     1       5.462   6.584  16.363  0.00  0.00    +0.000 A 
ATOM      5  C   UNL     1       4.390   6.435  17.251  0.00  0.00    +0.000 A 
ATOM      6  C   UNL     1       4.328   5.381  18.172  0.00  0.00    +0.000 A 
ENDROOT
BRANCH   6   7
ATOM      7  C   UNL     1       3.176   5.248  19.124  0.00  0.00    +0.000 C 
ATOM      8  C   UNL     1       2.146   4.380  19.114  0.00  0.00    +0.000 C 
ATOM      9  C   UNL     1       1.134   4.277  20.213  0.00  0.00    +0.000 C 
ATOM     10  C   UNL     1       0.919   2.789  20.232  0.00  0.00    +0.000 C 
ATOM     11  O   UNL     1       1.008   2.383  18.870  0.00  0.00    +0.000 OA
ATOM     12  C   UNL     1       1.774   3.279  18.179  0.00  0.00    +0.000 C 
ATOM     13  O   UNL     1       1.996   3.190  16.989  0.00  0.00    +0.000 OA
BRANCH   7  14
ATOM     14  O   UNL     1       3.220   6.142  20.199  0.00  0.00    +0.000 OA
ATOM     15  H   UNL     1       2.310   6.490  20.328  0.00  0.00    +0.000 HD
ENDBRANCH   7  14
ENDBRANCH   6   7
BRANCH   1  16
ATOM     16  N   UNL     1       5.556   3.492  19.213  0.00  0.00    +0.000 N 
ATOM     17  H   UNL     1       5.308   3.830  20.141  0.00  0.00    +0.000 HD
ATOM     18  H   UNL     1       6.502   3.105  19.226  0.00  0.00    +0.000 HD
ENDBRANCH   1  16
TORSDOF 3
ENDMDL
MODEL 5
REMARK VINA RESULT:      -6.7      1.896      2.625
REMARK  Name = 
REMARK  3 active torsions:
REMARK  status: ('A' for Active; 'I' for Inactive)
REMARK    1  A    between atoms: N_1  and  C_2
REMARK    2  A    between atoms: C_7  and  C_8
REMARK    3  A    between atoms: C_8  and  O_9
REMARK                            x       y       z     vdW  Elec       q    Type
REMARK                         _______ _______ _______ _____ _____    ______ ____
ROOT
ATOM      1  C   UNL     1       6.251   4.847  18.281  0.00  0.00    +0.000 A 
ATOM      2  C   UNL     1       6.779   5.515  17.157  0.00  0.00    +0.000 A 
ATOM      3  C   UNL     1       6.212   5.357  15.903  0.00  0.00    +0.000 A 
ATOM      4  C   UNL     1       5.066   4.585  15.766  0.00  0.00    +0.000 A 
ATOM      5  C   UNL     1       4.487   3.980  16.887  0.00  0.00    +0.000 A 
ATOM      6  C   UNL     1       5.072   4.055  18.159  0.00  0.00    +0.000 A 
ENDROOT
BRANCH   6   7
ATOM      7  C   UNL     1       4.426   3.410  19.350  0.00  0.00    +0.000 C 
ATOM      8  C   UNL     1       3.263   3.701  19.962  0.00  0.00    +0.000 C 
ATOM      9  C   UNL     1       2.675   2.879  21.067  0.00  0.00    +0.000 C 
ATOM     10  C   UNL     1       1.216   2.976  20.718  0.00  0.00    +0.000 C 
ATOM     11  O   UNL     1       1.041   4.294  20.208  0.00  0.00    +0.000 OA
ATOM     12  C   UNL     1       2.228   4.744  19.701  0.00  0.00    +0.000 C 
ATOM     13  O   UNL     1       2.373   5.851  19.223  0.00  0.00    +0.000 OA
BRANCH   7  14
ATOM     14  O   UNL     1       5.137   2.318  19.861  0.00  0.00    +0.000 OA
ATOM     15  H   UNL     1       5.216   2.449  20.832  0.00  0.00    +0.000 HD
ENDBRANCH   7  14
ENDBRANCH   6   7
BRANCH   1  16
ATOM     16  N   UNL     1       6.840   5.110  19.544  0.00  0.00    +0.000 N 
ATOM     17  H   UNL     1       7.676   5.686  19.471  0.00  0.00    +0.000 HD
ATOM     18  H   UNL     1       7.063   4.233  20.022  0.00  0.00    +0.000 HD
ENDBRANCH   1  16
TORSDOF 3
ENDMDL
MODEL 6
REMARK VINA RESULT:      -6.7      2.098      4.595
REMARK  Name = 
REMARK  3 active torsions:
REMARK  status: ('A' for Active; 'I' for Inactive)
REMARK    1  A    between atoms: N_1  and  C_2
REMARK    2  A    between atoms: C_7  and  C_8
REMARK    3  A    between atoms: C_8  and  O_9
REMARK                            x       y       z     vdW  Elec       q    Type
REMARK                         _______ _______ _______ _____ _____    ______ ____
ROOT
ATOM      1  C   UNL     1       1.886   4.991  19.964  0.00  0.00    +0.000 A 
ATOM      2  C   UNL     1       1.016   3.995  20.452  0.00  0.00    +0.000 A 
ATOM      3  C   UNL     1       0.709   2.880  19.688  0.00  0.00    +0.000 A 
ATOM      4  C   UNL     1       1.323   2.710  18.455  0.00  0.00    +0.000 A 
ATOM      5  C   UNL     1       2.248   3.654  17.993  0.00  0.00    +0.000 A 
ATOM      6  C   UNL     1       2.529   4.830  18.702  0.00  0.00    +0.000 A 
ENDROOT
BRANCH   6   7
ATOM      7  C   UNL     1       3.535   5.821  18.195  0.00  0.00    +0.000 C 
ATOM      8  C   UNL     1       4.870   5.701  18.060  0.00  0.00    +0.000 C 
ATOM      9  C   UNL     1       5.736   6.734  17.408  0.00  0.00    +0.000 C 
ATOM     10  C   UNL     1       6.717   5.842  16.699  0.00  0.00    +0.000 C 
ATOM     11  O   UNL     1       6.912   4.734  17.571  0.00  0.00    +0.000 OA
ATOM     12  C   UNL     1       5.810   4.584  18.366  0.00  0.00    +0.000 C 
ATOM     13  O   UNL     1       5.716   3.728  19.222  0.00  0.00    +0.000 OA
BRANCH   7  14
ATOM     14  O   UNL     1       2.977   7.030  17.766  0.00  0.00    +0.000 OA
ATOM     15  H   UNL     1       3.612   7.744  17.995  0.00  0.00    +0.000 HD
ENDBRANCH   7  14
ENDBRANCH   6   7
BRANCH   1  16
ATOM     16  N   UNL     1       2.208   6.069  20.828  0.00  0.00    +0.000 N 
ATOM     17  H   UNL     1       1.552   6.156  21.602  0.00  0.00    +0.000 HD
ATOM     18  H   UNL     1       2.245   6.946  20.304  0.00  0.00    +0.000 HD
ENDBRANCH   1  16
TORSDOF 3
ENDMDL
MODEL 7
REMARK VINA RESULT:      -6.6      2.861      5.296
REMARK  Name = 
REMARK  3 active torsions:
REMARK  status: ('A' for Active; 'I' for Inactive)
REMARK    1  A    between atoms: N_1  and  C_2
REMARK    2  A    between atoms: C_7  and  C_8
REMARK    3  A    between atoms: C_8  and  O_9
REMARK                            x       y       z     vdW  Elec       q    Type
REMARK                         _______ _______ _______ _____ _____    ______ ____
ROOT
ATOM      1  C   UNL     1       3.807   2.576  19.156  0.00  0.00    +0.000 A 
ATOM      2  C   UNL     1       2.552   1.954  18.992  0.00  0.00    +0.000 A 
ATOM      3  C   UNL     1       1.487   2.638  18.429  0.00  0.00    +0.000 A 
ATOM      4  C   UNL     1       1.679   3.929  17.958  0.00  0.00    +0.000 A 
ATOM      5  C   UNL     1       2.941   4.529  18.044  0.00  0.00    +0.000 A 
ATOM      6  C   UNL     1       4.024   3.899  18.672  0.00  0.00    +0.000 A 
ENDROOT
BRANCH   6   7
ATOM      7  C   UNL     1       5.371   4.555  18.741  0.00  0.00    +0.000 C 
ATOM      8  C   UNL     1       6.149   5.031  17.751  0.00  0.00    +0.000 C 
ATOM      9  C   UNL     1       7.420   5.788  17.982  0.00  0.00    +0.000 C 
ATOM     10  C   UNL     1       7.330   6.796  16.869  0.00  0.00    +0.000 C 
ATOM     11  O   UNL     1       6.727   6.100  15.784  0.00  0.00    +0.000 OA
ATOM     12  C   UNL     1       5.972   5.070  16.270  0.00  0.00    +0.000 C 
ATOM     13  O   UNL     1       5.364   4.294  15.560  0.00  0.00    +0.000 OA
BRANCH   7  14
ATOM     14  O   UNL     1       5.856   4.724  20.043  0.00  0.00    +0.000 OA
ATOM     15  H   UNL     1       6.731   5.167  19.974  0.00  0.00    +0.000 HD
ENDBRANCH   7  14
ENDBRANCH   6   7
BRANCH   1  16
ATOM     16  N   UNL     1       4.870   1.793  19.676  0.00  0.00    +0.000 N 
ATOM     17  H   UNL     1       4.869   1.763  20.694  0.00  0.00    +0.000 HD
ATOM     18  H   UNL     1       5.769   2.146  19.340  0.00  0.00    +0.000 HD
ENDBRANCH   1  16
TORSDOF 3
ENDMDL
MODEL 8
REMARK VINA RESULT:      -6.6      1.560      2.243
REMARK  Name = 
REMARK  3 active torsions:
REMARK  status: ('A' for Active; 'I' for Inactive)
REMARK    1  A    between atoms: N_1  and  C_2
REMARK    2  A    between atoms: C_7  and  C_8
REMARK    3  A    between atoms: C_8  and  O_9
REMARK                            x       y       z     vdW  Elec       q    Type
REMARK                         _______ _______ _______ _____ _____    ______ ____
ROOT
ATOM      1  C   UNL     1       4.479   6.293  17.040  0.00  0.00    +0.000 A 
ATOM      2  C   UNL     1       5.121   6.311  15.785  0.00  0.00    +0.000 A 
ATOM      3  C   UNL     1       5.654   5.153  15.241  0.00  0.00    +0.000 A 
ATOM      4  C   UNL     1       5.490   3.948  15.910  0.00  0.00    +0.000 A 
ATOM      5  C   UNL     1       4.786   3.905  17.119  0.00  0.00    +0.000 A 
ATOM      6  C   UNL     1       4.297   5.064  17.738  0.00  0.00    +0.000 A 
ENDROOT
BRANCH   6   7
ATOM      7  C   UNL     1       3.533   4.992  19.027  0.00  0.00    +0.000 C 
ATOM      8  C   UNL     1       2.351   4.406  19.296  0.00  0.00    +0.000 C 
ATOM      9  C   UNL     1       1.770   4.299  20.672  0.00  0.00    +0.000 C 
ATOM     10  C   UNL     1       1.148   2.932  20.588  0.00  0.00    +0.000 C 
ATOM     11  O   UNL     1       0.665   2.824  19.252  0.00  0.00    +0.000 OA
ATOM     12  C   UNL     1       1.391   3.651  18.441  0.00  0.00    +0.000 C 
ATOM     13  O   UNL     1       1.175   3.776  17.252  0.00  0.00    +0.000 OA
BRANCH   7  14
ATOM     14  O   UNL     1       4.184   5.596  20.109  0.00  0.00    +0.000 OA
ATOM     15  H   UNL     1       3.489   5.941  20.712  0.00  0.00    +0.000 HD
ENDBRANCH   7  14
ENDBRANCH   6   7
BRANCH   1  16
ATOM     16  N   UNL     1       3.898   7.502  17.503  0.00  0.00    +0.000 N 
ATOM     17  H   UNL     1       2.911   7.397  17.731  0.00  0.00    +0.000 HD
ATOM     18  H   UNL     1       4.017   8.242  16.808  0.00  0.00    +0.000 HD
ENDBRANCH   1  16
TORSDOF 3
ENDMDL
MODEL 9
REMARK VINA RESULT:      -6.6      2.305      4.953
REMARK  Name = 
REMARK  3 active torsions:
REMARK  status: ('A' for Active; 'I' for Inactive)
REMARK    1  A    between atoms: N_1  and  C_2
REMARK    2  A    between atoms: C_7  and  C_8
REMARK    3  A    between atoms: C_8  and  O_9
REMARK                            x       y       z     vdW  Elec       q    Type
REMARK                         _______ _______ _______ _____ _____    ______ ____
ROOT
ATOM      1  C   UNL     1       3.547   2.722  20.015  0.00  0.00    +0.000 A 
ATOM      2  C   UNL     1       2.962   2.478  21.274  0.00  0.00    +0.000 A 
ATOM      3  C   UNL     1       1.767   3.081  21.634  0.00  0.00    +0.000 A 
ATOM      4  C   UNL     1       1.105   3.882  20.714  0.00  0.00    +0.000 A 
ATOM      5  C   UNL     1       1.637   4.070  19.434  0.00  0.00    +0.000 A 
ATOM      6  C   UNL     1       2.878   3.538  19.057  0.00  0.00    +0.000 A 
ENDROOT
BRANCH   6   7
ATOM      7  C   UNL     1       3.423   3.740  17.674  0.00  0.00    +0.000 C 
ATOM      8  C   UNL     1       4.571   4.322  17.277  0.00  0.00    +0.000 C 
ATOM      9  C   UNL     1       5.051   4.333  15.859  0.00  0.00    +0.000 C 
ATOM     10  C   UNL     1       6.529   4.168  16.082  0.00  0.00    +0.000 C 
ATOM     11  O   UNL     1       6.810   4.898  17.272  0.00  0.00    +0.000 OA
ATOM     12  C   UNL     1       5.679   4.969  18.037  0.00  0.00    +0.000 C 
ATOM     13  O   UNL     1       5.627   5.557  19.098  0.00  0.00    +0.000 OA
BRANCH   7  14
ATOM     14  O   UNL     1       2.622   3.200  16.662  0.00  0.00    +0.000 OA
ATOM     15  H   UNL     1       1.712   3.115  17.023  0.00  0.00    +0.000 HD
ENDBRANCH   7  14
ENDBRANCH   6   7
BRANCH   1  16
ATOM     16  N   UNL     1       4.734   2.017  19.689  0.00  0.00    +0.000 N 
ATOM     17  H   UNL     1       5.514   2.268  20.293  0.00  0.00    +0.000 HD
ATOM     18  H   UNL     1       4.986   2.177  18.711  0.00  0.00    +0.000 HD
ENDBRANCH   1  16
TORSDOF 3
ENDMDL
