MODEL 1
REMARK VINA RESULT:      -8.4      0.000      0.000
REMARK  Name = 
REMARK  6 active torsions:
REMARK  status: ('A' for Active; 'I' for Inactive)
REMARK    1  A    between atoms: C_1  and  O_2
REMARK    2  A    between atoms: O_2  and  C_3
REMARK    3  A    between atoms: C_7  and  C_8
REMARK    4  A    between atoms: C_11  and  S_12
REMARK    5  A    between atoms: S_12  and  C_13
REMARK    6  A    between atoms: N_17  and  O_18
REMARK                            x       y       z     vdW  Elec       q    Type
REMARK                         _______ _______ _______ _____ _____    ______ ____
ROOT
ATOM      1  C   UNL     1       2.006   7.444  19.658  0.00  0.00    +0.000 A 
ATOM      2  C   UNL     1       2.051   6.351  20.544  0.00  0.00    +0.000 A 
ATOM      3  C   UNL     1       2.707   5.157  20.213  0.00  0.00    +0.000 A 
ATOM      4  C   UNL     1       3.355   5.025  18.985  0.00  0.00    +0.000 A 
ATOM      5  C   UNL     1       3.339   6.102  18.097  0.00  0.00    +0.000 A 
ATOM      6  C   UNL     1       2.662   7.286  18.424  0.00  0.00    +0.000 A 
ENDROOT
BRANCH   1  11
ATOM      7  C   UNL     1       0.277  10.165  21.699  0.00  0.00    +0.000 A 
ATOM      8  C   UNL     1      -0.090  11.066  20.703  0.00  0.00    +0.000 A 
ATOM      9  C   UNL     1       0.229  10.808  19.372  0.00  0.00    +0.000 A 
ATOM     10  C   UNL     1       0.920   9.640  19.033  0.00  0.00    +0.000 A 
ATOM     11  C   UNL     1       1.295   8.700  20.009  0.00  0.00    +0.000 A 
ATOM     12  C   UNL     1       0.956   8.993  21.348  0.00  0.00    +0.000 A 
BRANCH   7  14
ATOM     13  C   UNL     1      -1.203  11.402  23.088  0.00  0.00    +0.000 C 
ATOM     14  O   UNL     1      -0.089  10.527  22.967  0.00  0.00    +0.000 OA
ENDBRANCH   7  14
ENDBRANCH   1  11
BRANCH   4  15
ATOM     15  S   UNL     1       4.299   3.560  18.618  0.00  0.00    +0.000 S 
BRANCH  15  16
ATOM     16  C   UNL     1       5.446   4.168  17.479  0.00  0.00    +0.000 A 
ATOM     17  C   UNL     1       6.215   5.223  17.751  0.00  0.00    +0.000 A 
ATOM     18  C   UNL     1       7.089   5.762  16.688  0.00  0.00    +0.000 A 
ATOM     19  O   UNL     1       7.765   6.770  16.883  0.00  0.00    +0.000 OA
ATOM     20  N   UNL     1       7.053   5.089  15.492  0.00  0.00    +0.000 N 
ATOM     21  C   UNL     1       6.230   4.021  15.192  0.00  0.00    +0.000 A 
ATOM     22  O   UNL     1       6.136   3.466  14.099  0.00  0.00    +0.000 OA
ATOM     23  N   UNL     1       5.455   3.592  16.243  0.00  0.00    +0.000 N 
ATOM     24  H   UNL     1       4.832   2.819  16.047  0.00  0.00    +0.000 HD
BRANCH  20  25
ATOM     25  O   UNL     1       7.831   5.625  14.443  0.00  0.00    +0.000 OA
ATOM     26  H   UNL     1       7.329   6.432  14.208  0.00  0.00    +0.000 HD
ENDBRANCH  20  25
ENDBRANCH  15  16
ENDBRANCH   4  15
TORSDOF 5
ENDMDL
MODEL 2
REMARK VINA RESULT:      -8.3      1.103      2.006
REMARK  Name = 
REMARK  6 active torsions:
REMARK  status: ('A' for Active; 'I' for Inactive)
REMARK    1  A    between atoms: C_1  and  O_2
REMARK    2  A    between atoms: O_2  and  C_3
REMARK    3  A    between atoms: C_7  and  C_8
REMARK    4  A    between atoms: C_11  and  S_12
REMARK    5  A    between atoms: S_12  and  C_13
REMARK    6  A    between atoms: N_17  and  O_18
REMARK                            x       y       z     vdW  Elec       q    Type
REMARK                         _______ _______ _______ _____ _____    ______ ____
ROOT
ATOM      1  C   UNL     1       1.627   7.915  19.859  0.00  0.00    +0.000 A 
ATOM      2  C   UNL     1       2.473   7.656  18.764  0.00  0.00    +0.000 A 
ATOM      3  C   UNL     1       3.097   6.413  18.589  0.00  0.00    +0.000 A 
ATOM      4  C   UNL     1       2.879   5.380  19.500  0.00  0.00    +0.000 A 
ATOM      5  C   UNL     1       2.030   5.608  20.585  0.00  0.00    +0.000 A 
ATOM      6  C   UNL     1       1.426   6.860  20.767  0.00  0.00    +0.000 A 
ENDROOT
BRANCH   1  11
ATOM      7  C   UNL     1       0.056  10.961  21.537  0.00  0.00    +0.000 A 
ATOM      8  C   UNL     1      -0.272  11.745  20.434  0.00  0.00    +0.000 A 
ATOM      9  C   UNL     1       0.022  11.302  19.146  0.00  0.00    +0.000 A 
ATOM     10  C   UNL     1       0.650  10.067  18.959  0.00  0.00    +0.000 A 
ATOM     11  C   UNL     1       0.984   9.241  20.047  0.00  0.00    +0.000 A 
ATOM     12  C   UNL     1       0.672   9.720  21.337  0.00  0.00    +0.000 A 
BRANCH   7  14
ATOM     13  C   UNL     1      -1.625  11.324  23.177  0.00  0.00    +0.000 C 
ATOM     14  O   UNL     1      -0.281  11.501  22.748  0.00  0.00    +0.000 OA
ENDBRANCH   7  14
ENDBRANCH   1  11
BRANCH   4  15
ATOM     15  S   UNL     1       3.564   3.762  19.207  0.00  0.00    +0.000 S 
BRANCH  15  16
ATOM     16  C   UNL     1       4.750   4.106  17.999  0.00  0.00    +0.000 A 
ATOM     17  C   UNL     1       4.444   4.128  16.701  0.00  0.00    +0.000 A 
ATOM     18  C   UNL     1       5.530   4.313  15.716  0.00  0.00    +0.000 A 
ATOM     19  O   UNL     1       5.296   4.277  14.510  0.00  0.00    +0.000 OA
ATOM     20  N   UNL     1       6.787   4.481  16.243  0.00  0.00    +0.000 N 
ATOM     21  C   UNL     1       7.115   4.419  17.583  0.00  0.00    +0.000 A 
ATOM     22  O   UNL     1       8.249   4.490  18.053  0.00  0.00    +0.000 OA
ATOM     23  N   UNL     1       6.039   4.244  18.420  0.00  0.00    +0.000 N 
ATOM     24  H   UNL     1       6.252   4.182  19.407  0.00  0.00    +0.000 HD
BRANCH  20  25
ATOM     25  O   UNL     1       7.848   4.594  15.318  0.00  0.00    +0.000 OA
ATOM     26  H   UNL     1       8.464   3.898  15.627  0.00  0.00    +0.000 HD
ENDBRANCH  20  25
ENDBRANCH  15  16
ENDBRANCH   4  15
TORSDOF 5
ENDMDL
MODEL 3
REMARK VINA RESULT:      -8.2      0.615      1.677
REMARK  Name = 
REMARK  6 active torsions:
REMARK  status: ('A' for Active; 'I' for Inactive)
REMARK    1  A    between atoms: C_1  and  O_2
REMARK    2  A    between atoms: O_2  and  C_3
REMARK    3  A    between atoms: C_7  and  C_8
REMARK    4  A    between atoms: C_11  and  S_12
REMARK    5  A    between atoms: S_12  and  C_13
REMARK    6  A    between atoms: N_17  and  O_18
REMARK                            x       y       z     vdW  Elec       q    Type
REMARK                         _______ _______ _______ _____ _____    ______ ____
ROOT
ATOM      1  C   UNL     1       1.886   7.671  19.696  0.00  0.00    +0.000 A 
ATOM      2  C   UNL     1       1.861   6.543  20.538  0.00  0.00    +0.000 A 
ATOM      3  C   UNL     1       2.578   5.377  20.235  0.00  0.00    +0.000 A 
ATOM      4  C   UNL     1       3.359   5.309  19.083  0.00  0.00    +0.000 A 
ATOM      5  C   UNL     1       3.414   6.422  18.240  0.00  0.00    +0.000 A 
ATOM      6  C   UNL     1       2.677   7.578  18.537  0.00  0.00    +0.000 A 
ENDROOT
BRANCH   1  11
ATOM      7  C   UNL     1       0.088  10.394  21.674  0.00  0.00    +0.000 A 
ATOM      8  C   UNL     1      -0.395  11.205  20.651  0.00  0.00    +0.000 A 
ATOM      9  C   UNL     1      -0.134  10.886  19.320  0.00  0.00    +0.000 A 
ATOM     10  C   UNL     1       0.617   9.748  19.009  0.00  0.00    +0.000 A 
ATOM     11  C   UNL     1       1.109   8.897  20.015  0.00  0.00    +0.000 A 
ATOM     12  C   UNL     1       0.827   9.250  21.352  0.00  0.00    +0.000 A 
BRANCH   7  14
ATOM     13  C   UNL     1      -1.250  11.795  23.051  0.00  0.00    +0.000 C 
ATOM     14  O   UNL     1      -0.230  10.810  22.939  0.00  0.00    +0.000 OA
ENDBRANCH   7  14
ENDBRANCH   1  11
BRANCH   4  15
ATOM     15  S   UNL     1       4.374   3.880  18.766  0.00  0.00    +0.000 S 
BRANCH  15  16
ATOM     16  C   UNL     1       5.265   4.393  17.379  0.00  0.00    +0.000 A 
ATOM     17  C   UNL     1       5.158   3.769  16.204  0.00  0.00    +0.000 A 
ATOM     18  C   UNL     1       6.037   4.187  15.092  0.00  0.00    +0.000 A 
ATOM     19  O   UNL     1       6.010   3.595  14.015  0.00  0.00    +0.000 OA
ATOM     20  N   UNL     1       6.886   5.231  15.366  0.00  0.00    +0.000 N 
ATOM     21  C   UNL     1       7.029   5.854  16.590  0.00  0.00    +0.000 A 
ATOM     22  O   UNL     1       7.843   6.735  16.862  0.00  0.00    +0.000 OA
ATOM     23  N   UNL     1       6.170   5.397  17.561  0.00  0.00    +0.000 N 
ATOM     24  H   UNL     1       6.262   5.827  18.472  0.00  0.00    +0.000 HD
BRANCH  20  25
ATOM     25  O   UNL     1       7.779   5.603  14.338  0.00  0.00    +0.000 OA
ATOM     26  H   UNL     1       7.175   5.987  13.671  0.00  0.00    +0.000 HD
ENDBRANCH  20  25
ENDBRANCH  15  16
ENDBRANCH   4  15
TORSDOF 5
ENDMDL
MODEL 4
REMARK VINA RESULT:      -8.2      1.420      2.400
REMARK  Name = 
REMARK  6 active torsions:
REMARK  status: ('A' for Active; 'I' for Inactive)
REMARK    1  A    between atoms: C_1  and  O_2
REMARK    2  A    between atoms: O_2  and  C_3
REMARK    3  A    between atoms: C_7  and  C_8
REMARK    4  A    between atoms: C_11  and  S_12
REMARK    5  A    between atoms: S_12  and  C_13
REMARK    6  A    between atoms: N_17  and  O_18
REMARK                            x       y       z     vdW  Elec       q    Type
REMARK                         _______ _______ _______ _____ _____    ______ ____
ROOT
ATOM      1  C   UNL     1       1.671   7.352  20.273  0.00  0.00    +0.000 A 
ATOM      2  C   UNL     1       1.398   6.166  20.980  0.00  0.00    +0.000 A 
ATOM      3  C   UNL     1       1.963   4.937  20.609  0.00  0.00    +0.000 A 
ATOM      4  C   UNL     1       2.835   4.860  19.524  0.00  0.00    +0.000 A 
ATOM      5  C   UNL     1       3.135   6.027  18.819  0.00  0.00    +0.000 A 
ATOM      6  C   UNL     1       2.550   7.249  19.180  0.00  0.00    +0.000 A 
ENDROOT
BRANCH   1  11
ATOM      7  C   UNL     1       0.285  10.901  20.056  0.00  0.00    +0.000 A 
ATOM      8  C   UNL     1      -0.083  11.134  21.378  0.00  0.00    +0.000 A 
ATOM      9  C   UNL     1       0.102  10.147  22.343  0.00  0.00    +0.000 A 
ATOM     10  C   UNL     1       0.658   8.915  21.984  0.00  0.00    +0.000 A 
ATOM     11  C   UNL     1       1.055   8.647  20.661  0.00  0.00    +0.000 A 
ATOM     12  C   UNL     1       0.854   9.669  19.710  0.00  0.00    +0.000 A 
BRANCH   7  14
ATOM     13  C   UNL     1       1.191  12.684  18.771  0.00  0.00    +0.000 C 
ATOM     14  O   UNL     1       0.055  11.943  19.200  0.00  0.00    +0.000 OA
ENDBRANCH   7  14
ENDBRANCH   1  11
BRANCH   4  15
ATOM     15  S   UNL     1       3.655   3.328  19.135  0.00  0.00    +0.000 S 
BRANCH  15  16
ATOM     16  C   UNL     1       4.797   3.843  17.946  0.00  0.00    +0.000 A 
ATOM     17  C   UNL     1       4.482   3.904  16.650  0.00  0.00    +0.000 A 
ATOM     18  C   UNL     1       5.540   4.240  15.675  0.00  0.00    +0.000 A 
ATOM     19  O   UNL     1       5.302   4.245  14.469  0.00  0.00    +0.000 OA
ATOM     20  N   UNL     1       6.779   4.496  16.208  0.00  0.00    +0.000 N 
ATOM     21  C   UNL     1       7.120   4.395  17.543  0.00  0.00    +0.000 A 
ATOM     22  O   UNL     1       8.245   4.546  18.014  0.00  0.00    +0.000 OA
ATOM     23  N   UNL     1       6.070   4.078  18.371  0.00  0.00    +0.000 N 
ATOM     24  H   UNL     1       6.294   3.985  19.353  0.00  0.00    +0.000 HD
BRANCH  20  25
ATOM     25  O   UNL     1       7.820   4.755  15.289  0.00  0.00    +0.000 OA
ATOM     26  H   UNL     1       7.987   3.866  14.914  0.00  0.00    +0.000 HD
ENDBRANCH  20  25
ENDBRANCH  15  16
ENDBRANCH   4  15
TORSDOF 5
ENDMDL
MODEL 5
REMARK VINA RESULT:      -8.2      0.514      1.113
REMARK  Name = 
REMARK  6 active torsions:
REMARK  status: ('A' for Active; 'I' for Inactive)
REMARK    1  A    between atoms: C_1  and  O_2
REMARK    2  A    between atoms: O_2  and  C_3
REMARK    3  A    between atoms: C_7  and  C_8
REMARK    4  A    between atoms: C_11  and  S_12
REMARK    5  A    between atoms: S_12  and  C_13
REMARK    6  A    between atoms: N_17  and  O_18
REMARK                            x       y       z     vdW  Elec       q    Type
REMARK                         _______ _______ _______ _____ _____    ______ ____
ROOT
ATOM      1  C   UNL     1       1.854   7.874  19.399  0.00  0.00    +0.000 A 
ATOM      2  C   UNL     1       2.573   7.642  18.211  0.00  0.00    +0.000 A 
ATOM      3  C   UNL     1       3.314   6.469  18.012  0.00  0.00    +0.000 A 
ATOM      4  C   UNL     1       3.346   5.479  18.994  0.00  0.00    +0.000 A 
ATOM      5  C   UNL     1       2.626   5.679  20.173  0.00  0.00    +0.000 A 
ATOM      6  C   UNL     1       1.905   6.864  20.377  0.00  0.00    +0.000 A 
ENDROOT
BRANCH   1  11
ATOM      7  C   UNL     1       0.169  10.829  21.129  0.00  0.00    +0.000 A 
ATOM      8  C   UNL     1      -0.402  11.492  20.046  0.00  0.00    +0.000 A 
ATOM      9  C   UNL     1      -0.237  10.999  18.754  0.00  0.00    +0.000 A 
ATOM     10  C   UNL     1       0.506   9.833  18.541  0.00  0.00    +0.000 A 
ATOM     11  C   UNL     1       1.086   9.127  19.610  0.00  0.00    +0.000 A 
ATOM     12  C   UNL     1       0.899   9.655  20.906  0.00  0.00    +0.000 A 
BRANCH   7  14
ATOM     13  C   UNL     1      -1.203  10.960  23.065  0.00  0.00    +0.000 C 
ATOM     14  O   UNL     1      -0.060  11.408  22.347  0.00  0.00    +0.000 OA
ENDBRANCH   7  14
ENDBRANCH   1  11
BRANCH   4  15
ATOM     15  S   UNL     1       4.177   3.933  18.687  0.00  0.00    +0.000 S 
BRANCH  15  16
ATOM     16  C   UNL     1       5.368   4.409  17.531  0.00  0.00    +0.000 A 
ATOM     17  C   UNL     1       6.174   5.451  17.740  0.00  0.00    +0.000 A 
ATOM     18  C   UNL     1       7.090   5.874  16.660  0.00  0.00    +0.000 A 
ATOM     19  O   UNL     1       7.802   6.867  16.794  0.00  0.00    +0.000 OA
ATOM     20  N   UNL     1       7.049   5.115  15.517  0.00  0.00    +0.000 N 
ATOM     21  C   UNL     1       6.189   4.060  15.279  0.00  0.00    +0.000 A 
ATOM     22  O   UNL     1       6.094   3.429  14.229  0.00  0.00    +0.000 OA
ATOM     23  N   UNL     1       5.377   3.742  16.341  0.00  0.00    +0.000 N 
ATOM     24  H   UNL     1       4.728   2.982  16.191  0.00  0.00    +0.000 HD
BRANCH  20  25
ATOM     25  O   UNL     1       7.868   5.540  14.448  0.00  0.00    +0.000 OA
ATOM     26  H   UNL     1       7.473   6.406  14.220  0.00  0.00    +0.000 HD
ENDBRANCH  20  25
ENDBRANCH  15  16
ENDBRANCH   4  15
TORSDOF 5
ENDMDL
MODEL 6
REMARK VINA RESULT:      -8.2      1.397      2.564
REMARK  Name = 
REMARK  6 active torsions:
REMARK  status: ('A' for Active; 'I' for Inactive)
REMARK    1  A    between atoms: C_1  and  O_2
REMARK    2  A    between atoms: O_2  and  C_3
REMARK    3  A    between atoms: C_7  and  C_8
REMARK    4  A    between atoms: C_11  and  S_12
REMARK    5  A    between atoms: S_12  and  C_13
REMARK    6  A    between atoms: N_17  and  O_18
REMARK                            x       y       z     vdW  Elec       q    Type
REMARK                         _______ _______ _______ _____ _____    ______ ____
ROOT
ATOM      1  C   UNL     1       1.645   7.245  20.431  0.00  0.00    +0.000 A 
ATOM      2  C   UNL     1       2.583   7.219  19.382  0.00  0.00    +0.000 A 
ATOM      3  C   UNL     1       3.197   6.028  18.968  0.00  0.00    +0.000 A 
ATOM      4  C   UNL     1       2.877   4.819  19.583  0.00  0.00    +0.000 A 
ATOM      5  C   UNL     1       1.935   4.817  20.614  0.00  0.00    +0.000 A 
ATOM      6  C   UNL     1       1.341   6.014  21.039  0.00  0.00    +0.000 A 
ENDROOT
BRANCH   1  11
ATOM      7  C   UNL     1       0.529  10.894  20.501  0.00  0.00    +0.000 A 
ATOM      8  C   UNL     1      -0.155  10.950  21.713  0.00  0.00    +0.000 A 
ATOM      9  C   UNL     1      -0.269   9.811  22.507  0.00  0.00    +0.000 A 
ATOM     10  C   UNL     1       0.302   8.606  22.086  0.00  0.00    +0.000 A 
ATOM     11  C   UNL     1       1.011   8.514  20.876  0.00  0.00    +0.000 A 
ATOM     12  C   UNL     1       1.108   9.686  20.096  0.00  0.00    +0.000 A 
BRANCH   7  14
ATOM     13  C   UNL     1       1.575  12.189  18.805  0.00  0.00    +0.000 C 
ATOM     14  O   UNL     1       0.574  12.073  19.809  0.00  0.00    +0.000 OA
ENDBRANCH   7  14
ENDBRANCH   1  11
BRANCH   4  15
ATOM     15  S   UNL     1       3.555   3.290  18.970  0.00  0.00    +0.000 S 
BRANCH  15  16
ATOM     16  C   UNL     1       4.716   3.865  17.828  0.00  0.00    +0.000 A 
ATOM     17  C   UNL     1       4.415   4.018  16.537  0.00  0.00    +0.000 A 
ATOM     18  C   UNL     1       5.488   4.401  15.596  0.00  0.00    +0.000 A 
ATOM     19  O   UNL     1       5.262   4.491  14.391  0.00  0.00    +0.000 OA
ATOM     20  N   UNL     1       6.726   4.600  16.156  0.00  0.00    +0.000 N 
ATOM     21  C   UNL     1       7.052   4.404  17.483  0.00  0.00    +0.000 A 
ATOM     22  O   UNL     1       8.175   4.504  17.974  0.00  0.00    +0.000 OA
ATOM     23  N   UNL     1       5.989   4.050  18.279  0.00  0.00    +0.000 N 
ATOM     24  H   UNL     1       6.202   3.887  19.255  0.00  0.00    +0.000 HD
BRANCH  20  25
ATOM     25  O   UNL     1       7.779   4.902  15.265  0.00  0.00    +0.000 OA
ATOM     26  H   UNL     1       8.229   5.641  15.723  0.00  0.00    +0.000 HD
ENDBRANCH  20  25
ENDBRANCH  15  16
ENDBRANCH   4  15
TORSDOF 5
ENDMDL
MODEL 7
REMARK VINA RESULT:      -8.1      1.216      1.906
REMARK  Name = 
REMARK  6 active torsions:
REMARK  status: ('A' for Active; 'I' for Inactive)
REMARK    1  A    between atoms: C_1  and  O_2
REMARK    2  A    between atoms: O_2  and  C_3
REMARK    3  A    between atoms: C_7  and  C_8
REMARK    4  A    between atoms: C_11  and  S_12
REMARK    5  A    between atoms: S_12  and  C_13
REMARK    6  A    between atoms: N_17  and  O_18
REMARK                            x       y       z     vdW  Elec       q    Type
REMARK                         _______ _______ _______ _____ _____    ______ ____
ROOT
ATOM      1  C   UNL     1       1.607   8.122  19.815  0.00  0.00    +0.000 A 
ATOM      2  C   UNL     1       1.468   7.129  20.804  0.00  0.00    +0.000 A 
ATOM      3  C   UNL     1       1.913   5.815  20.601  0.00  0.00    +0.000 A 
ATOM      4  C   UNL     1       2.527   5.456  19.402  0.00  0.00    +0.000 A 
ATOM      5  C   UNL     1       2.692   6.427  18.413  0.00  0.00    +0.000 A 
ATOM      6  C   UNL     1       2.225   7.735  18.613  0.00  0.00    +0.000 A 
ENDROOT
BRANCH   1  11
ATOM      7  C   UNL     1       0.178  11.222  21.520  0.00  0.00    +0.000 A 
ATOM      8  C   UNL     1       0.149  12.129  20.463  0.00  0.00    +0.000 A 
ATOM      9  C   UNL     1       0.599  11.750  19.201  0.00  0.00    +0.000 A 
ATOM     10  C   UNL     1       1.085  10.455  18.992  0.00  0.00    +0.000 A 
ATOM     11  C   UNL     1       1.117   9.508  20.031  0.00  0.00    +0.000 A 
ATOM     12  C   UNL     1       0.653   9.925  21.297  0.00  0.00    +0.000 A 
BRANCH   7  14
ATOM     13  C   UNL     1      -1.537  11.202  23.164  0.00  0.00    +0.000 C 
ATOM     14  O   UNL     1      -0.288  11.709  22.711  0.00  0.00    +0.000 OA
ENDBRANCH   7  14
ENDBRANCH   1  11
BRANCH   4  15
ATOM     15  S   UNL     1       3.211   3.824  19.195  0.00  0.00    +0.000 S 
BRANCH  15  16
ATOM     16  C   UNL     1       4.504   4.132  18.093  0.00  0.00    +0.000 A 
ATOM     17  C   UNL     1       4.339   4.039  16.772  0.00  0.00    +0.000 A 
ATOM     18  C   UNL     1       5.515   4.201  15.892  0.00  0.00    +0.000 A 
ATOM     19  O   UNL     1       5.413   4.061  14.676  0.00  0.00    +0.000 OA
ATOM     20  N   UNL     1       6.701   4.471  16.531  0.00  0.00    +0.000 N 
ATOM     21  C   UNL     1       6.886   4.529  17.898  0.00  0.00    +0.000 A 
ATOM     22  O   UNL     1       7.959   4.691  18.476  0.00  0.00    +0.000 OA
ATOM     23  N   UNL     1       5.734   4.366  18.631  0.00  0.00    +0.000 N 
ATOM     24  H   UNL     1       5.843   4.391  19.637  0.00  0.00    +0.000 HD
BRANCH  20  25
ATOM     25  O   UNL     1       7.849   4.564  15.714  0.00  0.00    +0.000 OA
ATOM     26  H   UNL     1       7.528   5.114  14.971  0.00  0.00    +0.000 HD
ENDBRANCH  20  25
ENDBRANCH  15  16
ENDBRANCH   4  15
TORSDOF 5
ENDMDL
MODEL 8
REMARK VINA RESULT:      -8.1      4.823      9.160
REMARK  Name = 
REMARK  6 active torsions:
REMARK  status: ('A' for Active; 'I' for Inactive)
REMARK    1  A    between atoms: C_1  and  O_2
REMARK    2  A    between atoms: O_2  and  C_3
REMARK    3  A    between atoms: C_7  and  C_8
REMARK    4  A    between atoms: C_11  and  S_12
REMARK    5  A    between atoms: S_12  and  C_13
REMARK    6  A    between atoms: N_17  and  O_18
REMARK                            x       y       z     vdW  Elec       q    Type
REMARK                         _______ _______ _______ _____ _____    ______ ____
ROOT
ATOM      1  C   UNL     1       2.500   7.273  18.659  0.00  0.00    +0.000 A 
ATOM      2  C   UNL     1       2.415   8.278  17.677  0.00  0.00    +0.000 A 
ATOM      3  C   UNL     1       1.760   9.494  17.917  0.00  0.00    +0.000 A 
ATOM      4  C   UNL     1       1.179   9.750  19.159  0.00  0.00    +0.000 A 
ATOM      5  C   UNL     1       1.265   8.775  20.155  0.00  0.00    +0.000 A 
ATOM      6  C   UNL     1       1.903   7.552  19.902  0.00  0.00    +0.000 A 
ENDROOT
BRANCH   1  11
ATOM      7  C   UNL     1       5.214   4.601  18.436  0.00  0.00    +0.000 A 
ATOM      8  C   UNL     1       4.513   3.543  17.862  0.00  0.00    +0.000 A 
ATOM      9  C   UNL     1       3.161   3.681  17.556  0.00  0.00    +0.000 A 
ATOM     10  C   UNL     1       2.504   4.886  17.826  0.00  0.00    +0.000 A 
ATOM     11  C   UNL     1       3.181   5.981  18.392  0.00  0.00    +0.000 A 
ATOM     12  C   UNL     1       4.549   5.806  18.690  0.00  0.00    +0.000 A 
BRANCH   7  14
ATOM     13  C   UNL     1       7.458   4.646  17.654  0.00  0.00    +0.000 C 
ATOM     14  O   UNL     1       6.534   4.346  18.693  0.00  0.00    +0.000 OA
ENDBRANCH   7  14
ENDBRANCH   1  11
BRANCH   4  15
ATOM     15  S   UNL     1       0.464  11.343  19.508  0.00  0.00    +0.000 S 
BRANCH  15  16
ATOM     16  C   UNL     1      -1.150  11.127  18.933  0.00  0.00    +0.000 A 
ATOM     17  C   UNL     1      -1.426  10.339  17.891  0.00  0.00    +0.000 A 
ATOM     18  C   UNL     1      -2.811  10.292  17.379  0.00  0.00    +0.000 A 
ATOM     19  O   UNL     1      -3.090   9.627  16.384  0.00  0.00    +0.000 OA
ATOM     20  N   UNL     1      -3.722  11.060  18.062  0.00  0.00    +0.000 N 
ATOM     21  C   UNL     1      -3.436  11.907  19.115  0.00  0.00    +0.000 A 
ATOM     22  O   UNL     1      -4.233  12.656  19.677  0.00  0.00    +0.000 OA
ATOM     23  N   UNL     1      -2.122  11.882  19.518  0.00  0.00    +0.000 N 
ATOM     24  H   UNL     1      -1.881  12.503  20.280  0.00  0.00    +0.000 HD
BRANCH  20  25
ATOM     25  O   UNL     1      -5.038  11.080  17.550  0.00  0.00    +0.000 OA
ATOM     26  H   UNL     1      -5.230  10.127  17.442  0.00  0.00    +0.000 HD
ENDBRANCH  20  25
ENDBRANCH  15  16
ENDBRANCH   4  15
TORSDOF 5
ENDMDL
MODEL 9
REMARK VINA RESULT:      -8.1      0.756      1.997
REMARK  Name = 
REMARK  6 active torsions:
REMARK  status: ('A' for Active; 'I' for Inactive)
REMARK    1  A    between atoms: C_1  and  O_2
REMARK    2  A    between atoms: O_2  and  C_3
REMARK    3  A    between atoms: C_7  and  C_8
REMARK    4  A    between atoms: C_11  and  S_12
REMARK    5  A    between atoms: S_12  and  C_13
REMARK    6  A    between atoms: N_17  and  O_18
REMARK                            x       y       z     vdW  Elec       q    Type
REMARK                         _______ _______ _______ _____ _____    ______ ____
ROOT
ATOM      1  C   UNL     1       1.900   7.910  19.378  0.00  0.00    +0.000 A 
ATOM      2  C   UNL     1       2.656   7.742  18.202  0.00  0.00    +0.000 A 
ATOM      3  C   UNL     1       3.403   6.580  17.963  0.00  0.00    +0.000 A 
ATOM      4  C   UNL     1       3.404   5.538  18.890  0.00  0.00    +0.000 A 
ATOM      5  C   UNL     1       2.647   5.674  20.055  0.00  0.00    +0.000 A 
ATOM      6  C   UNL     1       1.919   6.848  20.300  0.00  0.00    +0.000 A 
ENDROOT
BRANCH   1  11
ATOM      7  C   UNL     1       0.196  10.791  21.209  0.00  0.00    +0.000 A 
ATOM      8  C   UNL     1      -0.376  11.491  20.150  0.00  0.00    +0.000 A 
ATOM      9  C   UNL     1      -0.206  11.045  18.841  0.00  0.00    +0.000 A 
ATOM     10  C   UNL     1       0.543   9.892  18.588  0.00  0.00    +0.000 A 
ATOM     11  C   UNL     1       1.124   9.151  19.633  0.00  0.00    +0.000 A 
ATOM     12  C   UNL     1       0.932   9.630  20.946  0.00  0.00    +0.000 A 
BRANCH   7  14
ATOM     13  C   UNL     1      -1.286  11.011  23.055  0.00  0.00    +0.000 C 
ATOM     14  O   UNL     1      -0.039  11.325  22.447  0.00  0.00    +0.000 OA
ENDBRANCH   7  14
ENDBRANCH   1  11
BRANCH   4  15
ATOM     15  S   UNL     1       4.245   4.011  18.526  0.00  0.00    +0.000 S 
BRANCH  15  16
ATOM     16  C   UNL     1       5.224   4.471  17.180  0.00  0.00    +0.000 A 
ATOM     17  C   UNL     1       5.201   3.794  16.030  0.00  0.00    +0.000 A 
ATOM     18  C   UNL     1       6.150   4.171  14.962  0.00  0.00    +0.000 A 
ATOM     19  O   UNL     1       6.201   3.531  13.913  0.00  0.00    +0.000 OA
ATOM     20  N   UNL     1       6.970   5.236  15.245  0.00  0.00    +0.000 N 
ATOM     21  C   UNL     1       7.026   5.914  16.446  0.00  0.00    +0.000 A 
ATOM     22  O   UNL     1       7.813   6.814  16.732  0.00  0.00    +0.000 OA
ATOM     23  N   UNL     1       6.107   5.491  17.377  0.00  0.00    +0.000 N 
ATOM     24  H   UNL     1       6.133   5.963  18.272  0.00  0.00    +0.000 HD
BRANCH  20  25
ATOM     25  O   UNL     1       7.928   5.571  14.263  0.00  0.00    +0.000 OA
ATOM     26  H   UNL     1       7.431   5.425  13.433  0.00  0.00    +0.000 HD
ENDBRANCH  20  25
ENDBRANCH  15  16
ENDBRANCH   4  15
TORSDOF 5
ENDMDL
