MODEL 1
REMARK VINA RESULT:      -7.9      0.000      0.000
REMARK  Name = 
REMARK  13 active torsions:
REMARK  status: ('A' for Active; 'I' for Inactive)
REMARK    1  A    between atoms: C_1  and  C_2
REMARK    2  A    between atoms: C_2  and  C_3
REMARK    3  A    between atoms: C_2  and  C_4
REMARK    4  A    between atoms: C_6  and  C_7
REMARK    5  A    between atoms: C_14  and  O_15
REMARK    6  A    between atoms: O_15  and  C_16
REMARK    7  A    between atoms: C_16  and  C_17
REMARK    8  A    between atoms: C_17  and  C_18
REMARK    9  A    between atoms: C_18  and  N_19
REMARK   10  A    between atoms: N_19  and  C_20
REMARK   11  A    between atoms: N_19  and  C_21
REMARK   12  A    between atoms: C_26  and  O_27
REMARK   13  A    between atoms: C_29  and  O_30
REMARK                            x       y       z     vdW  Elec       q    Type
REMARK                         _______ _______ _______ _____ _____    ______ ____
ROOT
ATOM      1  C   UNL     1       2.689   5.846  19.972  0.00  0.00    +0.000 C 
ATOM      2  O   UNL     1       2.222   5.188  20.899  0.00  0.00    +0.000 OA
ATOM      3  N   UNL     1       2.287   7.163  19.697  0.00  0.00    +0.000 N 
ATOM      4  C   UNL     1       2.724   7.948  18.540  0.00  0.00    +0.000 C 
ATOM      5  C   UNL     1       1.577   8.606  17.819  0.00  0.00    +0.000 C 
ATOM      6  C   UNL     1       0.765   9.396  18.781  0.00  0.00    +0.000 A 
ATOM      7  N   UNL     1       0.106  10.431  18.239  0.00  0.00    +0.000 NA
ATOM      8  C   UNL     1      -0.661  11.150  19.062  0.00  0.00    +0.000 A 
ATOM      9  N   UNL     1      -0.790  10.932  20.376  0.00  0.00    +0.000 NA
ATOM     10  C   UNL     1      -0.112   9.874  20.872  0.00  0.00    +0.000 A 
ATOM     11  C   UNL     1       0.697   9.045  20.114  0.00  0.00    +0.000 A 
ATOM     12  C   UNL     1       1.465   7.883  20.686  0.00  0.00    +0.000 C 
ENDROOT
BRANCH   1  15
ATOM     13  C   UNL     1       5.903   5.055  18.113  0.00  0.00    +0.000 A 
ATOM     14  C   UNL     1       5.037   5.362  19.174  0.00  0.00    +0.000 A 
ATOM     15  C   UNL     1       3.652   5.151  19.058  0.00  0.00    +0.000 A 
ATOM     16  C   UNL     1       3.183   4.348  18.016  0.00  0.00    +0.000 A 
ATOM     17  C   UNL     1       4.067   3.851  17.058  0.00  0.00    +0.000 A 
ATOM     18  C   UNL     1       5.409   4.238  17.091  0.00  0.00    +0.000 A 
BRANCH  13  20
ATOM     19  C   UNL     1       7.396   7.021  17.394  0.00  0.00    +0.000 C 
ATOM     20  C   UNL     1       7.311   5.632  18.056  0.00  0.00    +0.000 C 
ATOM     21  C   UNL     1       7.929   5.669  19.447  0.00  0.00    +0.000 C 
ENDBRANCH  13  20
BRANCH  16  22
ATOM     22  O   UNL     1       1.862   4.027  17.855  0.00  0.00    +0.000 OA
ATOM     23  H   UNL     1       1.732   3.726  16.931  0.00  0.00    +0.000 HD
ENDBRANCH  16  22
BRANCH  18  24
ATOM     24  O   UNL     1       6.267   3.818  16.115  0.00  0.00    +0.000 OA
ATOM     25  H   UNL     1       5.774   3.282  15.472  0.00  0.00    +0.000 HD
ENDBRANCH  18  24
ENDBRANCH   1  15
BRANCH   8  26
ATOM     26  O   UNL     1      -1.340  12.227  18.536  0.00  0.00    +0.000 OA
BRANCH  26  27
ATOM     27  C   UNL     1      -2.761  12.051  18.653  0.00  0.00    +0.000 C 
BRANCH  27  28
ATOM     28  C   UNL     1      -3.215  11.120  17.538  0.00  0.00    +0.000 C 
BRANCH  28  29
ATOM     29  C   UNL     1      -4.520  11.569  16.869  0.00  0.00    +0.000 C 
BRANCH  29  30
ATOM     30  N   UNL     1      -5.545  12.086  17.792  0.00  0.00    +0.000 NA
ATOM     31  C   UNL     1      -6.428  13.065  17.151  0.00  0.00    +0.000 C 
ATOM     32  C   UNL     1      -6.345  10.979  18.325  0.00  0.00    +0.000 C 
ENDBRANCH  29  30
ENDBRANCH  28  29
ENDBRANCH  27  28
ENDBRANCH  26  27
ENDBRANCH   8  26
TORSDOF 9
ENDMDL
MODEL 2
REMARK VINA RESULT:      -7.8      2.191      3.365
REMARK  Name = 
REMARK  13 active torsions:
REMARK  status: ('A' for Active; 'I' for Inactive)
REMARK    1  A    between atoms: C_1  and  C_2
REMARK    2  A    between atoms: C_2  and  C_3
REMARK    3  A    between atoms: C_2  and  C_4
REMARK    4  A    between atoms: C_6  and  C_7
REMARK    5  A    between atoms: C_14  and  O_15
REMARK    6  A    between atoms: O_15  and  C_16
REMARK    7  A    between atoms: C_16  and  C_17
REMARK    8  A    between atoms: C_17  and  C_18
REMARK    9  A    between atoms: C_18  and  N_19
REMARK   10  A    between atoms: N_19  and  C_20
REMARK   11  A    between atoms: N_19  and  C_21
REMARK   12  A    between atoms: C_26  and  O_27
REMARK   13  A    between atoms: C_29  and  O_30
REMARK                            x       y       z     vdW  Elec       q    Type
REMARK                         _______ _______ _______ _____ _____    ______ ____
ROOT
ATOM      1  C   UNL     1       2.561   5.892  19.968  0.00  0.00    +0.000 C 
ATOM      2  O   UNL     1       2.042   5.255  20.882  0.00  0.00    +0.000 OA
ATOM      3  N   UNL     1       2.251   7.236  19.706  0.00  0.00    +0.000 N 
ATOM      4  C   UNL     1       2.752   8.003  18.563  0.00  0.00    +0.000 C 
ATOM      5  C   UNL     1       1.659   8.745  17.840  0.00  0.00    +0.000 C 
ATOM      6  C   UNL     1       0.891   9.577  18.803  0.00  0.00    +0.000 A 
ATOM      7  N   UNL     1       0.309  10.659  18.267  0.00  0.00    +0.000 NA
ATOM      8  C   UNL     1      -0.418  11.418  19.091  0.00  0.00    +0.000 A 
ATOM      9  N   UNL     1      -0.575  11.194  20.402  0.00  0.00    +0.000 NA
ATOM     10  C   UNL     1       0.025  10.087  20.891  0.00  0.00    +0.000 A 
ATOM     11  C   UNL     1       0.785   9.215  20.131  0.00  0.00    +0.000 A 
ATOM     12  C   UNL     1       1.468   7.998  20.696  0.00  0.00    +0.000 C 
ENDROOT
BRANCH   1  15
ATOM     13  C   UNL     1       5.721   4.942  18.093  0.00  0.00    +0.000 A 
ATOM     14  C   UNL     1       4.879   5.300  19.157  0.00  0.00    +0.000 A 
ATOM     15  C   UNL     1       3.486   5.145  19.056  0.00  0.00    +0.000 A 
ATOM     16  C   UNL     1       2.974   4.349  18.029  0.00  0.00    +0.000 A 
ATOM     17  C   UNL     1       3.827   3.802  17.070  0.00  0.00    +0.000 A 
ATOM     18  C   UNL     1       5.184   4.133  17.086  0.00  0.00    +0.000 A 
BRANCH  13  20
ATOM     19  C   UNL     1       7.307   6.764  17.210  0.00  0.00    +0.000 C 
ATOM     20  C   UNL     1       7.152   5.459  18.014  0.00  0.00    +0.000 C 
ATOM     21  C   UNL     1       7.736   5.624  19.411  0.00  0.00    +0.000 C 
ENDBRANCH  13  20
BRANCH  16  22
ATOM     22  O   UNL     1       1.639   4.081  17.885  0.00  0.00    +0.000 OA
ATOM     23  H   UNL     1       1.188   4.321  18.722  0.00  0.00    +0.000 HD
ENDBRANCH  16  22
BRANCH  18  24
ATOM     24  O   UNL     1       6.014   3.665  16.108  0.00  0.00    +0.000 OA
ATOM     25  H   UNL     1       6.082   2.699  16.189  0.00  0.00    +0.000 HD
ENDBRANCH  18  24
ENDBRANCH   1  15
BRANCH   8  26
ATOM     26  O   UNL     1      -1.018  12.544  18.572  0.00  0.00    +0.000 OA
BRANCH  26  27
ATOM     27  C   UNL     1      -0.914  13.652  19.482  0.00  0.00    +0.000 C 
BRANCH  27  28
ATOM     28  C   UNL     1      -0.080  14.735  18.814  0.00  0.00    +0.000 C 
BRANCH  28  29
ATOM     29  C   UNL     1       1.268  14.972  19.504  0.00  0.00    +0.000 C 
BRANCH  29  30
ATOM     30  N   UNL     1       2.103  13.769  19.666  0.00  0.00    +0.000 NA
ATOM     31  C   UNL     1       2.737  13.359  18.410  0.00  0.00    +0.000 C 
ATOM     32  C   UNL     1       3.134  14.006  20.681  0.00  0.00    +0.000 C 
ENDBRANCH  29  30
ENDBRANCH  28  29
ENDBRANCH  27  28
ENDBRANCH  26  27
ENDBRANCH   8  26
TORSDOF 9
ENDMDL
MODEL 3
REMARK VINA RESULT:      -7.7      1.196      1.600
REMARK  Name = 
REMARK  13 active torsions:
REMARK  status: ('A' for Active; 'I' for Inactive)
REMARK    1  A    between atoms: C_1  and  C_2
REMARK    2  A    between atoms: C_2  and  C_3
REMARK    3  A    between atoms: C_2  and  C_4
REMARK    4  A    between atoms: C_6  and  C_7
REMARK    5  A    between atoms: C_14  and  O_15
REMARK    6  A    between atoms: O_15  and  C_16
REMARK    7  A    between atoms: C_16  and  C_17
REMARK    8  A    between atoms: C_17  and  C_18
REMARK    9  A    between atoms: C_18  and  N_19
REMARK   10  A    between atoms: N_19  and  C_20
REMARK   11  A    between atoms: N_19  and  C_21
REMARK   12  A    between atoms: C_26  and  O_27
REMARK   13  A    between atoms: C_29  and  O_30
REMARK                            x       y       z     vdW  Elec       q    Type
REMARK                         _______ _______ _______ _____ _____    ______ ____
ROOT
ATOM      1  C   UNL     1       2.487   5.590  19.951  0.00  0.00    +0.000 C 
ATOM      2  O   UNL     1       1.908   4.859  20.752  0.00  0.00    +0.000 OA
ATOM      3  N   UNL     1       2.229   6.967  19.855  0.00  0.00    +0.000 N 
ATOM      4  C   UNL     1       2.803   7.858  18.844  0.00  0.00    +0.000 C 
ATOM      5  C   UNL     1       1.766   8.726  18.180  0.00  0.00    +0.000 C 
ATOM      6  C   UNL     1       0.981   9.452  19.213  0.00  0.00    +0.000 A 
ATOM      7  N   UNL     1       0.456  10.614  18.800  0.00  0.00    +0.000 NA
ATOM      8  C   UNL     1      -0.284  11.285  19.687  0.00  0.00    +0.000 A 
ATOM      9  N   UNL     1      -0.506  10.898  20.949  0.00  0.00    +0.000 NA
ATOM     10  C   UNL     1       0.038   9.717  21.313  0.00  0.00    +0.000 A 
ATOM     11  C   UNL     1       0.806   8.925  20.476  0.00  0.00    +0.000 A 
ATOM     12  C   UNL     1       1.426   7.621  20.903  0.00  0.00    +0.000 C 
ENDROOT
BRANCH   1  15
ATOM     13  C   UNL     1       5.673   4.846  18.028  0.00  0.00    +0.000 A 
ATOM     14  C   UNL     1       4.819   5.100  19.111  0.00  0.00    +0.000 A 
ATOM     15  C   UNL     1       3.428   4.935  18.987  0.00  0.00    +0.000 A 
ATOM     16  C   UNL     1       2.935   4.222  17.892  0.00  0.00    +0.000 A 
ATOM     17  C   UNL     1       3.802   3.770  16.897  0.00  0.00    +0.000 A 
ATOM     18  C   UNL     1       5.155   4.116  16.952  0.00  0.00    +0.000 A 
BRANCH  13  20
ATOM     19  C   UNL     1       7.265   6.683  17.191  0.00  0.00    +0.000 C 
ATOM     20  C   UNL     1       7.097   5.387  18.005  0.00  0.00    +0.000 C 
ATOM     21  C   UNL     1       7.616   5.580  19.424  0.00  0.00    +0.000 C 
ENDBRANCH  13  20
BRANCH  16  22
ATOM     22  O   UNL     1       1.605   3.949  17.714  0.00  0.00    +0.000 OA
ATOM     23  H   UNL     1       1.226   4.644  17.136  0.00  0.00    +0.000 HD
ENDBRANCH  16  22
BRANCH  18  24
ATOM     24  O   UNL     1       5.998   3.744  15.945  0.00  0.00    +0.000 OA
ATOM     25  H   UNL     1       6.590   3.046  16.272  0.00  0.00    +0.000 HD
ENDBRANCH  18  24
ENDBRANCH   1  15
BRANCH   8  26
ATOM     26  O   UNL     1      -0.826  12.490  19.297  0.00  0.00    +0.000 OA
BRANCH  26  27
ATOM     27  C   UNL     1      -1.437  12.387  18.000  0.00  0.00    +0.000 C 
BRANCH  27  28
ATOM     28  C   UNL     1      -2.785  11.703  18.166  0.00  0.00    +0.000 C 
BRANCH  28  29
ATOM     29  C   UNL     1      -3.492  11.428  16.833  0.00  0.00    +0.000 C 
BRANCH  29  30
ATOM     30  N   UNL     1      -2.699  10.661  15.857  0.00  0.00    +0.000 NA
ATOM     31  C   UNL     1      -2.108   9.456  16.445  0.00  0.00    +0.000 C 
ATOM     32  C   UNL     1      -3.536  10.288  14.712  0.00  0.00    +0.000 C 
ENDBRANCH  29  30
ENDBRANCH  28  29
ENDBRANCH  27  28
ENDBRANCH  26  27
ENDBRANCH   8  26
TORSDOF 9
ENDMDL
MODEL 4
REMARK VINA RESULT:      -7.7      2.870      4.206
REMARK  Name = 
REMARK  13 active torsions:
REMARK  status: ('A' for Active; 'I' for Inactive)
REMARK    1  A    between atoms: C_1  and  C_2
REMARK    2  A    between atoms: C_2  and  C_3
REMARK    3  A    between atoms: C_2  and  C_4
REMARK    4  A    between atoms: C_6  and  C_7
REMARK    5  A    between atoms: C_14  and  O_15
REMARK    6  A    between atoms: O_15  and  C_16
REMARK    7  A    between atoms: C_16  and  C_17
REMARK    8  A    between atoms: C_17  and  C_18
REMARK    9  A    between atoms: C_18  and  N_19
REMARK   10  A    between atoms: N_19  and  C_20
REMARK   11  A    between atoms: N_19  and  C_21
REMARK   12  A    between atoms: C_26  and  O_27
REMARK   13  A    between atoms: C_29  and  O_30
REMARK                            x       y       z     vdW  Elec       q    Type
REMARK                         _______ _______ _______ _____ _____    ______ ____
ROOT
ATOM      1  C   UNL     1       3.098   7.095  18.075  0.00  0.00    +0.000 C 
ATOM      2  O   UNL     1       3.597   7.661  17.104  0.00  0.00    +0.000 OA
ATOM      3  N   UNL     1       2.183   7.724  18.933  0.00  0.00    +0.000 N 
ATOM      4  C   UNL     1       1.651   7.136  20.165  0.00  0.00    +0.000 C 
ATOM      5  C   UNL     1       1.730   8.078  21.338  0.00  0.00    +0.000 C 
ATOM      6  C   UNL     1       1.087   9.372  20.990  0.00  0.00    +0.000 A 
ATOM      7  N   UNL     1       0.595  10.051  22.036  0.00  0.00    +0.000 NA
ATOM      8  C   UNL     1       0.036  11.235  21.772  0.00  0.00    +0.000 A 
ATOM      9  N   UNL     1      -0.093  11.766  20.550  0.00  0.00    +0.000 NA
ATOM     10  C   UNL     1       0.425  11.047  19.531  0.00  0.00    +0.000 A 
ATOM     11  C   UNL     1       1.045   9.818  19.684  0.00  0.00    +0.000 A 
ATOM     12  C   UNL     1       1.597   9.017  18.536  0.00  0.00    +0.000 C 
ENDROOT
BRANCH   1  15
ATOM     13  C   UNL     1       3.087   3.500  19.290  0.00  0.00    +0.000 A 
ATOM     14  C   UNL     1       2.678   4.665  18.624  0.00  0.00    +0.000 A 
ATOM     15  C   UNL     1       3.585   5.712  18.381  0.00  0.00    +0.000 A 
ATOM     16  C   UNL     1       4.951   5.458  18.519  0.00  0.00    +0.000 A 
ATOM     17  C   UNL     1       5.394   4.219  18.983  0.00  0.00    +0.000 A 
ATOM     18  C   UNL     1       4.462   3.266  19.400  0.00  0.00    +0.000 A 
BRANCH  13  20
ATOM     19  C   UNL     1       1.655   2.924  21.347  0.00  0.00    +0.000 C 
ATOM     20  C   UNL     1       2.069   2.551  19.911  0.00  0.00    +0.000 C 
ATOM     21  C   UNL     1       0.841   2.429  19.018  0.00  0.00    +0.000 C 
ENDBRANCH  13  20
BRANCH  16  22
ATOM     22  O   UNL     1       5.917   6.388  18.242  0.00  0.00    +0.000 OA
ATOM     23  H   UNL     1       6.290   6.702  19.092  0.00  0.00    +0.000 HD
ENDBRANCH  16  22
BRANCH  18  24
ATOM     24  O   UNL     1       4.885   2.079  19.927  0.00  0.00    +0.000 OA
ATOM     25  H   UNL     1       5.263   1.536  19.215  0.00  0.00    +0.000 HD
ENDBRANCH  18  24
ENDBRANCH   1  15
BRANCH   8  26
ATOM     26  O   UNL     1      -0.490  11.950  22.825  0.00  0.00    +0.000 OA
BRANCH  26  27
ATOM     27  C   UNL     1      -1.762  11.417  23.229  0.00  0.00    +0.000 C 
BRANCH  27  28
ATOM     28  C   UNL     1      -2.743  12.573  23.346  0.00  0.00    +0.000 C 
BRANCH  28  29
ATOM     29  C   UNL     1      -3.767  12.616  22.205  0.00  0.00    +0.000 C 
BRANCH  29  30
ATOM     30  N   UNL     1      -5.176  12.609  22.634  0.00  0.00    +0.000 NA
ATOM     31  C   UNL     1      -5.317  12.797  24.081  0.00  0.00    +0.000 C 
ATOM     32  C   UNL     1      -5.921  13.656  21.928  0.00  0.00    +0.000 C 
ENDBRANCH  29  30
ENDBRANCH  28  29
ENDBRANCH  27  28
ENDBRANCH  26  27
ENDBRANCH   8  26
TORSDOF 9
ENDMDL
MODEL 5
REMARK VINA RESULT:      -7.6      2.210      3.013
REMARK  Name = 
REMARK  13 active torsions:
REMARK  status: ('A' for Active; 'I' for Inactive)
REMARK    1  A    between atoms: C_1  and  C_2
REMARK    2  A    between atoms: C_2  and  C_3
REMARK    3  A    between atoms: C_2  and  C_4
REMARK    4  A    between atoms: C_6  and  C_7
REMARK    5  A    between atoms: C_14  and  O_15
REMARK    6  A    between atoms: O_15  and  C_16
REMARK    7  A    between atoms: C_16  and  C_17
REMARK    8  A    between atoms: C_17  and  C_18
REMARK    9  A    between atoms: C_18  and  N_19
REMARK   10  A    between atoms: N_19  and  C_20
REMARK   11  A    between atoms: N_19  and  C_21
REMARK   12  A    between atoms: C_26  and  O_27
REMARK   13  A    between atoms: C_29  and  O_30
REMARK                            x       y       z     vdW  Elec       q    Type
REMARK                         _______ _______ _______ _____ _____    ______ ____
ROOT
ATOM      1  C   UNL     1       2.571   5.863  20.010  0.00  0.00    +0.000 C 
ATOM      2  O   UNL     1       2.064   5.201  20.913  0.00  0.00    +0.000 OA
ATOM      3  N   UNL     1       2.234   7.204  19.770  0.00  0.00    +0.000 N 
ATOM      4  C   UNL     1       2.721   8.000  18.640  0.00  0.00    +0.000 C 
ATOM      5  C   UNL     1       1.614   8.732  17.928  0.00  0.00    +0.000 C 
ATOM      6  C   UNL     1       0.829   9.532  18.904  0.00  0.00    +0.000 A 
ATOM      7  N   UNL     1       0.226  10.611  18.386  0.00  0.00    +0.000 NA
ATOM      8  C   UNL     1      -0.516  11.342  19.221  0.00  0.00    +0.000 A 
ATOM      9  N   UNL     1      -0.669  11.094  20.528  0.00  0.00    +0.000 NA
ATOM     10  C   UNL     1      -0.048   9.991  21.000  0.00  0.00    +0.000 A 
ATOM     11  C   UNL     1       0.730   9.147  20.226  0.00  0.00    +0.000 A 
ATOM     12  C   UNL     1       1.436   7.934  20.771  0.00  0.00    +0.000 C 
ENDROOT
BRANCH   1  15
ATOM     13  C   UNL     1       5.746   5.013  18.113  0.00  0.00    +0.000 A 
ATOM     14  C   UNL     1       4.900   5.337  19.184  0.00  0.00    +0.000 A 
ATOM     15  C   UNL     1       3.510   5.148  19.087  0.00  0.00    +0.000 A 
ATOM     16  C   UNL     1       3.015   4.351  18.053  0.00  0.00    +0.000 A 
ATOM     17  C   UNL     1       3.877   3.836  17.085  0.00  0.00    +0.000 A 
ATOM     18  C   UNL     1       5.226   4.201  17.100  0.00  0.00    +0.000 A 
BRANCH  13  20
ATOM     19  C   UNL     1       7.266   6.937  17.340  0.00  0.00    +0.000 C 
ATOM     20  C   UNL     1       7.164   5.566  18.035  0.00  0.00    +0.000 C 
ATOM     21  C   UNL     1       7.789   5.626  19.422  0.00  0.00    +0.000 C 
ENDBRANCH  13  20
BRANCH  16  22
ATOM     22  O   UNL     1       1.686   4.051  17.911  0.00  0.00    +0.000 OA
ATOM     23  H   UNL     1       1.170   4.698  18.435  0.00  0.00    +0.000 HD
ENDBRANCH  16  22
BRANCH  18  24
ATOM     24  O   UNL     1       6.064   3.764  16.114  0.00  0.00    +0.000 OA
ATOM     25  H   UNL     1       5.541   3.297  15.440  0.00  0.00    +0.000 HD
ENDBRANCH  18  24
ENDBRANCH   1  15
BRANCH   8  26
ATOM     26  O   UNL     1      -1.137  12.465  18.720  0.00  0.00    +0.000 OA
BRANCH  26  27
ATOM     27  C   UNL     1      -0.175  13.431  18.266  0.00  0.00    +0.000 C 
BRANCH  27  28
ATOM     28  C   UNL     1       0.261  14.262  19.463  0.00  0.00    +0.000 C 
BRANCH  28  29
ATOM     29  C   UNL     1      -0.425  15.632  19.529  0.00  0.00    +0.000 C 
BRANCH  29  30
ATOM     30  N   UNL     1      -0.066  16.560  18.443  0.00  0.00    +0.000 NA
ATOM     31  C   UNL     1      -1.090  17.586  18.225  0.00  0.00    +0.000 C 
ATOM     32  C   UNL     1       1.218  17.204  18.737  0.00  0.00    +0.000 C 
ENDBRANCH  29  30
ENDBRANCH  28  29
ENDBRANCH  27  28
ENDBRANCH  26  27
ENDBRANCH   8  26
TORSDOF 9
ENDMDL
MODEL 6
REMARK VINA RESULT:      -7.5      1.526      1.778
REMARK  Name = 
REMARK  13 active torsions:
REMARK  status: ('A' for Active; 'I' for Inactive)
REMARK    1  A    between atoms: C_1  and  C_2
REMARK    2  A    between atoms: C_2  and  C_3
REMARK    3  A    between atoms: C_2  and  C_4
REMARK    4  A    between atoms: C_6  and  C_7
REMARK    5  A    between atoms: C_14  and  O_15
REMARK    6  A    between atoms: O_15  and  C_16
REMARK    7  A    between atoms: C_16  and  C_17
REMARK    8  A    between atoms: C_17  and  C_18
REMARK    9  A    between atoms: C_18  and  N_19
REMARK   10  A    between atoms: N_19  and  C_20
REMARK   11  A    between atoms: N_19  and  C_21
REMARK   12  A    between atoms: C_26  and  O_27
REMARK   13  A    between atoms: C_29  and  O_30
REMARK                            x       y       z     vdW  Elec       q    Type
REMARK                         _______ _______ _______ _____ _____    ______ ____
ROOT
ATOM      1  C   UNL     1       2.635   5.946  19.930  0.00  0.00    +0.000 C 
ATOM      2  O   UNL     1       2.194   5.227  20.824  0.00  0.00    +0.000 OA
ATOM      3  N   UNL     1       2.233   7.280  19.759  0.00  0.00    +0.000 N 
ATOM      4  C   UNL     1       2.638   8.141  18.645  0.00  0.00    +0.000 C 
ATOM      5  C   UNL     1       1.473   8.852  18.009  0.00  0.00    +0.000 C 
ATOM      6  C   UNL     1       0.697   9.577  19.048  0.00  0.00    +0.000 A 
ATOM      7  N   UNL     1       0.028  10.649  18.599  0.00  0.00    +0.000 NA
ATOM      8  C   UNL     1      -0.708  11.313  19.494  0.00  0.00    +0.000 A 
ATOM      9  N   UNL     1      -0.797  11.006  20.794  0.00  0.00    +0.000 NA
ATOM     10  C   UNL     1      -0.111   9.913  21.194  0.00  0.00    +0.000 A 
ATOM     11  C   UNL     1       0.669   9.136  20.355  0.00  0.00    +0.000 A 
ATOM     12  C   UNL     1       1.447   7.934  20.821  0.00  0.00    +0.000 C 
ENDROOT
BRANCH   1  15
ATOM     13  C   UNL     1       5.801   5.233  17.962  0.00  0.00    +0.000 A 
ATOM     14  C   UNL     1       4.957   5.463  19.058  0.00  0.00    +0.000 A 
ATOM     15  C   UNL     1       3.565   5.311  18.941  0.00  0.00    +0.000 A 
ATOM     16  C   UNL     1       3.058   4.630  17.831  0.00  0.00    +0.000 A 
ATOM     17  C   UNL     1       3.915   4.200  16.818  0.00  0.00    +0.000 A 
ATOM     18  C   UNL     1       5.270   4.536  16.871  0.00  0.00    +0.000 A 
BRANCH  13  20
ATOM     19  C   UNL     1       7.363   7.184  17.356  0.00  0.00    +0.000 C 
ATOM     20  C   UNL     1       7.229   5.765  17.942  0.00  0.00    +0.000 C 
ATOM     21  C   UNL     1       7.838   5.706  19.336  0.00  0.00    +0.000 C 
ENDBRANCH  13  20
BRANCH  16  22
ATOM     22  O   UNL     1       1.725   4.371  17.657  0.00  0.00    +0.000 OA
ATOM     23  H   UNL     1       1.316   4.274  18.543  0.00  0.00    +0.000 HD
ENDBRANCH  16  22
BRANCH  18  24
ATOM     24  O   UNL     1       6.103   4.185  15.847  0.00  0.00    +0.000 OA
ATOM     25  H   UNL     1       6.738   3.526  16.171  0.00  0.00    +0.000 HD
ENDBRANCH  18  24
ENDBRANCH   1  15
BRANCH   8  26
ATOM     26  O   UNL     1      -1.397  12.427  19.065  0.00  0.00    +0.000 OA
BRANCH  26  27
ATOM     27  C   UNL     1      -1.909  13.178  20.178  0.00  0.00    +0.000 C 
BRANCH  27  28
ATOM     28  C   UNL     1      -3.401  12.904  20.286  0.00  0.00    +0.000 C 
BRANCH  28  29
ATOM     29  C   UNL     1      -3.872  12.680  21.729  0.00  0.00    +0.000 C 
BRANCH  29  30
ATOM     30  N   UNL     1      -5.328  12.527  21.890  0.00  0.00    +0.000 NA
ATOM     31  C   UNL     1      -5.965  13.750  22.387  0.00  0.00    +0.000 C 
ATOM     32  C   UNL     1      -5.937  12.141  20.613  0.00  0.00    +0.000 C 
ENDBRANCH  29  30
ENDBRANCH  28  29
ENDBRANCH  27  28
ENDBRANCH  26  27
ENDBRANCH   8  26
TORSDOF 9
ENDMDL
MODEL 7
REMARK VINA RESULT:      -7.4      1.914      2.268
REMARK  Name = 
REMARK  13 active torsions:
REMARK  status: ('A' for Active; 'I' for Inactive)
REMARK    1  A    between atoms: C_1  and  C_2
REMARK    2  A    between atoms: C_2  and  C_3
REMARK    3  A    between atoms: C_2  and  C_4
REMARK    4  A    between atoms: C_6  and  C_7
REMARK    5  A    between atoms: C_14  and  O_15
REMARK    6  A    between atoms: O_15  and  C_16
REMARK    7  A    between atoms: C_16  and  C_17
REMARK    8  A    between atoms: C_17  and  C_18
REMARK    9  A    between atoms: C_18  and  N_19
REMARK   10  A    between atoms: N_19  and  C_20
REMARK   11  A    between atoms: N_19  and  C_21
REMARK   12  A    between atoms: C_26  and  O_27
REMARK   13  A    between atoms: C_29  and  O_30
REMARK                            x       y       z     vdW  Elec       q    Type
REMARK                         _______ _______ _______ _____ _____    ______ ____
ROOT
ATOM      1  C   UNL     1       2.543   5.787  20.009  0.00  0.00    +0.000 C 
ATOM      2  O   UNL     1       2.018   5.100  20.883  0.00  0.00    +0.000 OA
ATOM      3  N   UNL     1       2.234   7.143  19.819  0.00  0.00    +0.000 N 
ATOM      4  C   UNL     1       2.742   7.972  18.724  0.00  0.00    +0.000 C 
ATOM      5  C   UNL     1       1.653   8.753  18.036  0.00  0.00    +0.000 C 
ATOM      6  C   UNL     1       0.879   9.530  19.038  0.00  0.00    +0.000 A 
ATOM      7  N   UNL     1       0.300  10.640  18.559  0.00  0.00    +0.000 NA
ATOM      8  C   UNL     1      -0.432  11.352  19.419  0.00  0.00    +0.000 A 
ATOM      9  N   UNL     1      -0.598  11.056  20.714  0.00  0.00    +0.000 NA
ATOM     10  C   UNL     1      -0.001   9.924  21.146  0.00  0.00    +0.000 A 
ATOM     11  C   UNL     1       0.765   9.095  20.343  0.00  0.00    +0.000 A 
ATOM     12  C   UNL     1       1.444   7.849  20.844  0.00  0.00    +0.000 C 
ENDROOT
BRANCH   1  15
ATOM     13  C   UNL     1       5.711   4.953  18.092  0.00  0.00    +0.000 A 
ATOM     14  C   UNL     1       4.866   5.252  19.172  0.00  0.00    +0.000 A 
ATOM     15  C   UNL     1       3.474   5.091  19.063  0.00  0.00    +0.000 A 
ATOM     16  C   UNL     1       2.969   4.340  17.999  0.00  0.00    +0.000 A 
ATOM     17  C   UNL     1       3.826   3.847  17.015  0.00  0.00    +0.000 A 
ATOM     18  C   UNL     1       5.181   4.187  17.048  0.00  0.00    +0.000 A 
BRANCH  13  20
ATOM     19  C   UNL     1       7.287   6.811  17.271  0.00  0.00    +0.000 C 
ATOM     20  C   UNL     1       7.138   5.484  18.039  0.00  0.00    +0.000 C 
ATOM     21  C   UNL     1       7.709   5.618  19.445  0.00  0.00    +0.000 C 
ENDBRANCH  13  20
BRANCH  16  22
ATOM     22  O   UNL     1       1.636   4.069  17.841  0.00  0.00    +0.000 OA
ATOM     23  H   UNL     1       1.503   3.712  16.938  0.00  0.00    +0.000 HD
ENDBRANCH  16  22
BRANCH  18  24
ATOM     24  O   UNL     1       6.015   3.773  16.049  0.00  0.00    +0.000 OA
ATOM     25  H   UNL     1       5.794   4.254  15.235  0.00  0.00    +0.000 HD
ENDBRANCH  18  24
ENDBRANCH   1  15
BRANCH   8  26
ATOM     26  O   UNL     1      -1.030  12.505  18.959  0.00  0.00    +0.000 OA
BRANCH  26  27
ATOM     27  C   UNL     1      -0.761  13.612  19.836  0.00  0.00    +0.000 C 
BRANCH  27  28
ATOM     28  C   UNL     1      -2.091  14.137  20.355  0.00  0.00    +0.000 C 
BRANCH  28  29
ATOM     29  C   UNL     1      -2.192  14.119  21.885  0.00  0.00    +0.000 C 
BRANCH  29  30
ATOM     30  N   UNL     1      -3.305  13.319  22.425  0.00  0.00    +0.000 NA
ATOM     31  C   UNL     1      -4.176  12.794  21.369  0.00  0.00    +0.000 C 
ATOM     32  C   UNL     1      -2.783  12.209  23.227  0.00  0.00    +0.000 C 
ENDBRANCH  29  30
ENDBRANCH  28  29
ENDBRANCH  27  28
ENDBRANCH  26  27
ENDBRANCH   8  26
TORSDOF 9
ENDMDL
MODEL 8
REMARK VINA RESULT:      -7.4      3.228      4.608
REMARK  Name = 
REMARK  13 active torsions:
REMARK  status: ('A' for Active; 'I' for Inactive)
REMARK    1  A    between atoms: C_1  and  C_2
REMARK    2  A    between atoms: C_2  and  C_3
REMARK    3  A    between atoms: C_2  and  C_4
REMARK    4  A    between atoms: C_6  and  C_7
REMARK    5  A    between atoms: C_14  and  O_15
REMARK    6  A    between atoms: O_15  and  C_16
REMARK    7  A    between atoms: C_16  and  C_17
REMARK    8  A    between atoms: C_17  and  C_18
REMARK    9  A    between atoms: C_18  and  N_19
REMARK   10  A    between atoms: N_19  and  C_20
REMARK   11  A    between atoms: N_19  and  C_21
REMARK   12  A    between atoms: C_26  and  O_27
REMARK   13  A    between atoms: C_29  and  O_30
REMARK                            x       y       z     vdW  Elec       q    Type
REMARK                         _______ _______ _______ _____ _____    ______ ____
ROOT
ATOM      1  C   UNL     1       3.040   7.179  18.137  0.00  0.00    +0.000 C 
ATOM      2  O   UNL     1       3.526   7.780  17.181  0.00  0.00    +0.000 OA
ATOM      3  N   UNL     1       2.121   7.770  19.019  0.00  0.00    +0.000 N 
ATOM      4  C   UNL     1       1.604   7.138  20.235  0.00  0.00    +0.000 C 
ATOM      5  C   UNL     1       1.678   8.045  21.436  0.00  0.00    +0.000 C 
ATOM      6  C   UNL     1       1.018   9.340  21.131  0.00  0.00    +0.000 A 
ATOM      7  N   UNL     1       0.524   9.981  22.200  0.00  0.00    +0.000 NA
ATOM      8  C   UNL     1      -0.051  11.165  21.975  0.00  0.00    +0.000 A 
ATOM      9  N   UNL     1      -0.194  11.732  20.771  0.00  0.00    +0.000 NA
ATOM     10  C   UNL     1       0.327  11.051  19.727  0.00  0.00    +0.000 A 
ATOM     11  C   UNL     1       0.963   9.826  19.840  0.00  0.00    +0.000 A 
ATOM     12  C   UNL     1       1.518   9.067  18.664  0.00  0.00    +0.000 C 
ENDROOT
BRANCH   1  15
ATOM     13  C   UNL     1       3.093   3.560  19.281  0.00  0.00    +0.000 A 
ATOM     14  C   UNL     1       2.653   4.736  18.654  0.00  0.00    +0.000 A 
ATOM     15  C   UNL     1       3.545   5.792  18.398  0.00  0.00    +0.000 A 
ATOM     16  C   UNL     1       4.917   5.545  18.481  0.00  0.00    +0.000 A 
ATOM     17  C   UNL     1       5.383   4.300  18.904  0.00  0.00    +0.000 A 
ATOM     18  C   UNL     1       4.472   3.333  19.336  0.00  0.00    +0.000 A 
BRANCH  13  20
ATOM     19  C   UNL     1       1.685   2.977  21.352  0.00  0.00    +0.000 C 
ATOM     20  C   UNL     1       2.104   2.594  19.920  0.00  0.00    +0.000 C 
ATOM     21  C   UNL     1       0.876   2.425  19.034  0.00  0.00    +0.000 C 
ENDBRANCH  13  20
BRANCH  16  22
ATOM     22  O   UNL     1       5.867   6.486  18.187  0.00  0.00    +0.000 OA
ATOM     23  H   UNL     1       6.737   6.037  18.140  0.00  0.00    +0.000 HD
ENDBRANCH  16  22
BRANCH  18  24
ATOM     24  O   UNL     1       4.921   2.139  19.824  0.00  0.00    +0.000 OA
ATOM     25  H   UNL     1       4.195   1.493  19.791  0.00  0.00    +0.000 HD
ENDBRANCH  18  24
ENDBRANCH   1  15
BRANCH   8  26
ATOM     26  O   UNL     1      -0.580  11.842  23.052  0.00  0.00    +0.000 OA
BRANCH  26  27
ATOM     27  C   UNL     1      -1.691  12.662  22.654  0.00  0.00    +0.000 C 
BRANCH  27  28
ATOM     28  C   UNL     1      -2.930  12.165  23.383  0.00  0.00    +0.000 C 
BRANCH  28  29
ATOM     29  C   UNL     1      -3.800  13.299  23.938  0.00  0.00    +0.000 C 
BRANCH  29  30
ATOM     30  N   UNL     1      -3.144  14.616  23.991  0.00  0.00    +0.000 NA
ATOM     31  C   UNL     1      -3.998  15.684  23.461  0.00  0.00    +0.000 C 
ATOM     32  C   UNL     1      -2.762  14.933  25.370  0.00  0.00    +0.000 C 
ENDBRANCH  29  30
ENDBRANCH  28  29
ENDBRANCH  27  28
ENDBRANCH  26  27
ENDBRANCH   8  26
TORSDOF 9
ENDMDL
MODEL 9
REMARK VINA RESULT:      -7.4      2.241      2.855
REMARK  Name = 
REMARK  13 active torsions:
REMARK  status: ('A' for Active; 'I' for Inactive)
REMARK    1  A    between atoms: C_1  and  C_2
REMARK    2  A    between atoms: C_2  and  C_3
REMARK    3  A    between atoms: C_2  and  C_4
REMARK    4  A    between atoms: C_6  and  C_7
REMARK    5  A    between atoms: C_14  and  O_15
REMARK    6  A    between atoms: O_15  and  C_16
REMARK    7  A    between atoms: C_16  and  C_17
REMARK    8  A    between atoms: C_17  and  C_18
REMARK    9  A    between atoms: C_18  and  N_19
REMARK   10  A    between atoms: N_19  and  C_20
REMARK   11  A    between atoms: N_19  and  C_21
REMARK   12  A    between atoms: C_26  and  O_27
REMARK   13  A    between atoms: C_29  and  O_30
REMARK                            x       y       z     vdW  Elec       q    Type
REMARK                         _______ _______ _______ _____ _____    ______ ____
ROOT
ATOM      1  C   UNL     1       2.534   5.789  19.952  0.00  0.00    +0.000 C 
ATOM      2  O   UNL     1       1.980   5.124  20.825  0.00  0.00    +0.000 OA
ATOM      3  N   UNL     1       2.243   7.145  19.730  0.00  0.00    +0.000 N 
ATOM      4  C   UNL     1       2.787   7.949  18.634  0.00  0.00    +0.000 C 
ATOM      5  C   UNL     1       1.724   8.727  17.903  0.00  0.00    +0.000 C 
ATOM      6  C   UNL     1       0.931   9.529  18.871  0.00  0.00    +0.000 A 
ATOM      7  N   UNL     1       0.375  10.635  18.357  0.00  0.00    +0.000 NA
ATOM      8  C   UNL     1      -0.372  11.369  19.185  0.00  0.00    +0.000 A 
ATOM      9  N   UNL     1      -0.575  11.099  20.480  0.00  0.00    +0.000 NA
ATOM     10  C   UNL     1       0.001   9.969  20.947  0.00  0.00    +0.000 A 
ATOM     11  C   UNL     1       0.779   9.120  20.180  0.00  0.00    +0.000 A 
ATOM     12  C   UNL     1       1.434   7.876  20.721  0.00  0.00    +0.000 C 
ENDROOT
BRANCH   1  15
ATOM     13  C   UNL     1       5.732   4.918  18.102  0.00  0.00    +0.000 A 
ATOM     14  C   UNL     1       4.872   5.250  19.160  0.00  0.00    +0.000 A 
ATOM     15  C   UNL     1       3.483   5.068  19.044  0.00  0.00    +0.000 A 
ATOM     16  C   UNL     1       2.997   4.270  18.005  0.00  0.00    +0.000 A 
ATOM     17  C   UNL     1       3.871   3.749  17.050  0.00  0.00    +0.000 A 
ATOM     18  C   UNL     1       5.221   4.106  17.083  0.00  0.00    +0.000 A 
BRANCH  13  20
ATOM     19  C   UNL     1       7.287   6.785  17.261  0.00  0.00    +0.000 C 
ATOM     20  C   UNL     1       7.153   5.465  18.042  0.00  0.00    +0.000 C 
ATOM     21  C   UNL     1       7.723   5.617  19.446  0.00  0.00    +0.000 C 
ENDBRANCH  13  20
BRANCH  16  22
ATOM     22  O   UNL     1       1.669   3.977  17.845  0.00  0.00    +0.000 OA
ATOM     23  H   UNL     1       1.205   4.800  17.584  0.00  0.00    +0.000 HD
ENDBRANCH  16  22
BRANCH  18  24
ATOM     24  O   UNL     1       6.070   3.663  16.110  0.00  0.00    +0.000 OA
ATOM     25  H   UNL     1       5.804   2.767  15.845  0.00  0.00    +0.000 HD
ENDBRANCH  18  24
ENDBRANCH   1  15
BRANCH   8  26
ATOM     26  O   UNL     1      -0.946  12.520  18.688  0.00  0.00    +0.000 OA
BRANCH  26  27
ATOM     27  C   UNL     1       0.044  13.535  18.460  0.00  0.00    +0.000 C 
BRANCH  27  28
ATOM     28  C   UNL     1      -0.450  14.828  19.092  0.00  0.00    +0.000 C 
BRANCH  28  29
ATOM     29  C   UNL     1       0.120  15.071  20.495  0.00  0.00    +0.000 C 
BRANCH  29  30
ATOM     30  N   UNL     1      -0.885  15.357  21.533  0.00  0.00    +0.000 NA
ATOM     31  C   UNL     1      -2.030  14.444  21.465  0.00  0.00    +0.000 C 
ATOM     32  C   UNL     1      -0.273  15.277  22.862  0.00  0.00    +0.000 C 
ENDBRANCH  29  30
ENDBRANCH  28  29
ENDBRANCH  27  28
ENDBRANCH  26  27
ENDBRANCH   8  26
TORSDOF 9
ENDMDL
