MODEL 1
REMARK VINA RESULT:      -9.3      0.000      0.000
REMARK  Name = 
REMARK  5 active torsions:
REMARK  status: ('A' for Active; 'I' for Inactive)
REMARK    1  A    between atoms: C_4  and  N_5
REMARK    2  A    between atoms: N_5  and  C_6
REMARK    3  A    between atoms: C_6  and  C_7
REMARK    4  A    between atoms: C_7  and  C_8
REMARK    5  A    between atoms: C_7  and  C_14
REMARK                            x       y       z     vdW  Elec       q    Type
REMARK                         _______ _______ _______ _____ _____    ______ ____
ROOT
ATOM      1  N   UNL     1       1.563   8.482  19.365  0.00  0.00    +0.000 N 
ATOM      2  H   UNL     1       2.037   9.048  18.661  0.00  0.00    +0.000 HD
ENDROOT
BRANCH   1   6
ATOM      3  O   UNL     1       0.385   9.605  23.846  0.00  0.00    +0.000 OA
ATOM      4  C   UNL     1       0.240   9.826  22.650  0.00  0.00    +0.000 C 
ATOM      5  C   UNL     1       1.000   9.057  21.650  0.00  0.00    +0.000 C 
ATOM      6  C   UNL     1       0.934   9.276  20.329  0.00  0.00    +0.000 C 
ATOM      7  C   UNL     1       0.064  10.407  19.823  0.00  0.00    +0.000 C 
ATOM      8  O   UNL     1       0.064  10.717  18.632  0.00  0.00    +0.000 OA
ATOM      9  C   UNL     1      -0.800  11.109  20.811  0.00  0.00    +0.000 A 
ATOM     10  N   UNL     1      -1.675  12.026  20.310  0.00  0.00    +0.000 NA
ATOM     11  C   UNL     1      -2.482  12.661  21.188  0.00  0.00    +0.000 A 
ATOM     12  C   UNL     1      -2.462  12.429  22.553  0.00  0.00    +0.000 A 
ATOM     13  C   UNL     1      -1.560  11.493  23.048  0.00  0.00    +0.000 A 
ATOM     14  C   UNL     1      -0.714  10.823  22.160  0.00  0.00    +0.000 A 
ENDBRANCH   1   6
BRANCH   1  15
ATOM     15  C   UNL     1       2.304   7.278  19.759  0.00  0.00    +0.000 C 
BRANCH  15  16
ATOM     16  C   UNL     1       2.612   6.272  18.620  0.00  0.00    +0.000 C 
BRANCH  16  17
ATOM     17  C   UNL     1       4.109   6.155  18.315  0.00  0.00    +0.000 A 
ATOM     18  C   UNL     1       4.980   5.471  19.181  0.00  0.00    +0.000 A 
ATOM     19  C   UNL     1       6.329   5.306  18.864  0.00  0.00    +0.000 A 
ATOM     20  C   UNL     1       6.836   5.827  17.677  0.00  0.00    +0.000 A 
ATOM     21  C   UNL     1       5.992   6.519  16.811  0.00  0.00    +0.000 A 
ATOM     22  C   UNL     1       4.639   6.683  17.125  0.00  0.00    +0.000 A 
ENDBRANCH  16  17
BRANCH  16  23
ATOM     23  C   UNL     1       2.013   4.887  18.937  0.00  0.00    +0.000 A 
ATOM     24  C   UNL     1       2.009   3.881  17.959  0.00  0.00    +0.000 A 
ATOM     25  C   UNL     1       1.547   2.594  18.260  0.00  0.00    +0.000 A 
ATOM     26  C   UNL     1       1.078   2.293  19.537  0.00  0.00    +0.000 A 
ATOM     27  C   UNL     1       1.051   3.281  20.512  0.00  0.00    +0.000 A 
ATOM     28  C   UNL     1       1.515   4.563  20.215  0.00  0.00    +0.000 A 
ENDBRANCH  16  23
ENDBRANCH  15  16
ENDBRANCH   1  15
TORSDOF 5
ENDMDL
MODEL 2
REMARK VINA RESULT:      -8.8      1.078      1.391
REMARK  Name = 
REMARK  5 active torsions:
REMARK  status: ('A' for Active; 'I' for Inactive)
REMARK    1  A    between atoms: C_4  and  N_5
REMARK    2  A    between atoms: N_5  and  C_6
REMARK    3  A    between atoms: C_6  and  C_7
REMARK    4  A    between atoms: C_7  and  C_8
REMARK    5  A    between atoms: C_7  and  C_14
REMARK                            x       y       z     vdW  Elec       q    Type
REMARK                         _______ _______ _______ _____ _____    ______ ____
ROOT
ATOM      1  N   UNL     1       1.713   7.975  18.361  0.00  0.00    +0.000 N 
ATOM      2  H   UNL     1       1.501   8.384  17.450  0.00  0.00    +0.000 HD
ENDROOT
BRANCH   1   6
ATOM      3  O   UNL     1       1.490   9.251  22.949  0.00  0.00    +0.000 OA
ATOM      4  C   UNL     1       1.092   9.426  21.804  0.00  0.00    +0.000 C 
ATOM      5  C   UNL     1       1.637   8.629  20.691  0.00  0.00    +0.000 C 
ATOM      6  C   UNL     1       1.288   8.798  19.408  0.00  0.00    +0.000 C 
ATOM      7  C   UNL     1       0.310   9.899  19.060  0.00  0.00    +0.000 C 
ATOM      8  O   UNL     1       0.052  10.165  17.886  0.00  0.00    +0.000 OA
ATOM      9  C   UNL     1      -0.338  10.629  20.185  0.00  0.00    +0.000 A 
ATOM     10  N   UNL     1      -1.316  11.517  19.849  0.00  0.00    +0.000 NA
ATOM     11  C   UNL     1      -1.930  12.175  20.857  0.00  0.00    +0.000 A 
ATOM     12  C   UNL     1      -1.617  11.995  22.193  0.00  0.00    +0.000 A 
ATOM     13  C   UNL     1      -0.614  11.088  22.518  0.00  0.00    +0.000 A 
ATOM     14  C   UNL     1       0.037  10.394  21.493  0.00  0.00    +0.000 A 
ENDBRANCH   1   6
BRANCH   1  15
ATOM     15  C   UNL     1       3.015   7.301  18.422  0.00  0.00    +0.000 C 
BRANCH  15  16
ATOM     16  C   UNL     1       3.057   5.859  17.854  0.00  0.00    +0.000 C 
BRANCH  16  17
ATOM     17  C   UNL     1       4.482   5.371  17.570  0.00  0.00    +0.000 A 
ATOM     18  C   UNL     1       4.803   4.709  16.373  0.00  0.00    +0.000 A 
ATOM     19  C   UNL     1       6.116   4.330  16.087  0.00  0.00    +0.000 A 
ATOM     20  C   UNL     1       7.133   4.602  16.996  0.00  0.00    +0.000 A 
ATOM     21  C   UNL     1       6.835   5.246  18.195  0.00  0.00    +0.000 A 
ATOM     22  C   UNL     1       5.520   5.629  18.482  0.00  0.00    +0.000 A 
ENDBRANCH  16  17
BRANCH  16  23
ATOM     23  C   UNL     1       2.327   4.879  18.794  0.00  0.00    +0.000 A 
ATOM     24  C   UNL     1       1.593   3.808  18.263  0.00  0.00    +0.000 A 
ATOM     25  C   UNL     1       0.996   2.863  19.105  0.00  0.00    +0.000 A 
ATOM     26  C   UNL     1       1.116   2.975  20.489  0.00  0.00    +0.000 A 
ATOM     27  C   UNL     1       1.817   4.042  21.036  0.00  0.00    +0.000 A 
ATOM     28  C   UNL     1       2.417   4.982  20.197  0.00  0.00    +0.000 A 
ENDBRANCH  16  23
ENDBRANCH  15  16
ENDBRANCH   1  15
TORSDOF 5
ENDMDL
MODEL 3
REMARK VINA RESULT:      -8.8      1.255      4.138
REMARK  Name = 
REMARK  5 active torsions:
REMARK  status: ('A' for Active; 'I' for Inactive)
REMARK    1  A    between atoms: C_4  and  N_5
REMARK    2  A    between atoms: N_5  and  C_6
REMARK    3  A    between atoms: C_6  and  C_7
REMARK    4  A    between atoms: C_7  and  C_8
REMARK    5  A    between atoms: C_7  and  C_14
REMARK                            x       y       z     vdW  Elec       q    Type
REMARK                         _______ _______ _______ _____ _____    ______ ____
ROOT
ATOM      1  N   UNL     1       2.351   8.867  18.465  0.00  0.00    +0.000 N 
ATOM      2  H   UNL     1       3.200   9.056  18.997  0.00  0.00    +0.000 HD
ENDROOT
BRANCH   1   6
ATOM      3  O   UNL     1      -1.264  11.962  18.176  0.00  0.00    +0.000 OA
ATOM      4  C   UNL     1      -0.583  11.226  18.880  0.00  0.00    +0.000 C 
ATOM      5  C   UNL     1       0.499  10.418  18.292  0.00  0.00    +0.000 C 
ATOM      6  C   UNL     1       1.251   9.553  18.988  0.00  0.00    +0.000 C 
ATOM      7  C   UNL     1       0.953   9.352  20.458  0.00  0.00    +0.000 C 
ATOM      8  O   UNL     1       1.540   8.486  21.106  0.00  0.00    +0.000 OA
ATOM      9  C   UNL     1      -0.055  10.249  21.089  0.00  0.00    +0.000 A 
ATOM     10  N   UNL     1      -0.202  10.141  22.439  0.00  0.00    +0.000 NA
ATOM     11  C   UNL     1      -1.098  10.960  23.033  0.00  0.00    +0.000 A 
ATOM     12  C   UNL     1      -1.862  11.888  22.347  0.00  0.00    +0.000 A 
ATOM     13  C   UNL     1      -1.702  11.981  20.968  0.00  0.00    +0.000 A 
ATOM     14  C   UNL     1      -0.781  11.145  20.329  0.00  0.00    +0.000 A 
ENDBRANCH   1   6
BRANCH   1  15
ATOM     15  C   UNL     1       2.221   7.473  18.026  0.00  0.00    +0.000 C 
BRANCH  15  16
ATOM     16  C   UNL     1       3.015   6.428  18.853  0.00  0.00    +0.000 C 
BRANCH  16  17
ATOM     17  C   UNL     1       2.205   5.161  19.148  0.00  0.00    +0.000 A 
ATOM     18  C   UNL     1       1.817   4.285  18.121  0.00  0.00    +0.000 A 
ATOM     19  C   UNL     1       1.142   3.096  18.402  0.00  0.00    +0.000 A 
ATOM     20  C   UNL     1       0.835   2.763  19.718  0.00  0.00    +0.000 A 
ATOM     21  C   UNL     1       1.198   3.625  20.751  0.00  0.00    +0.000 A 
ATOM     22  C   UNL     1       1.878   4.815  20.471  0.00  0.00    +0.000 A 
ENDBRANCH  16  17
BRANCH  16  23
ATOM     23  C   UNL     1       4.342   6.072  18.155  0.00  0.00    +0.000 A 
ATOM     24  C   UNL     1       5.328   5.349  18.844  0.00  0.00    +0.000 A 
ATOM     25  C   UNL     1       6.502   4.946  18.196  0.00  0.00    +0.000 A 
ATOM     26  C   UNL     1       6.712   5.262  16.856  0.00  0.00    +0.000 A 
ATOM     27  C   UNL     1       5.760   5.998  16.163  0.00  0.00    +0.000 A 
ATOM     28  C   UNL     1       4.588   6.396  16.806  0.00  0.00    +0.000 A 
ENDBRANCH  16  23
ENDBRANCH  15  16
ENDBRANCH   1  15
TORSDOF 5
ENDMDL
MODEL 4
REMARK VINA RESULT:      -8.7      1.036      4.077
REMARK  Name = 
REMARK  5 active torsions:
REMARK  status: ('A' for Active; 'I' for Inactive)
REMARK    1  A    between atoms: C_4  and  N_5
REMARK    2  A    between atoms: N_5  and  C_6
REMARK    3  A    between atoms: C_6  and  C_7
REMARK    4  A    between atoms: C_7  and  C_8
REMARK    5  A    between atoms: C_7  and  C_14
REMARK                            x       y       z     vdW  Elec       q    Type
REMARK                         _______ _______ _______ _____ _____    ______ ____
ROOT
ATOM      1  N   UNL     1       1.785   8.030  20.628  0.00  0.00    +0.000 N 
ATOM      2  H   UNL     1       1.538   7.335  21.333  0.00  0.00    +0.000 HD
ENDROOT
BRANCH   1   6
ATOM      3  O   UNL     1      -1.117  11.012  18.301  0.00  0.00    +0.000 OA
ATOM      4  C   UNL     1      -0.609  10.680  19.365  0.00  0.00    +0.000 C 
ATOM      5  C   UNL     1       0.292   9.516  19.433  0.00  0.00    +0.000 C 
ATOM      6  C   UNL     1       0.842   9.061  20.568  0.00  0.00    +0.000 C 
ATOM      7  C   UNL     1       0.492   9.747  21.871  0.00  0.00    +0.000 C 
ATOM      8  O   UNL     1       0.882   9.293  22.946  0.00  0.00    +0.000 OA
ATOM      9  C   UNL     1      -0.317  10.995  21.800  0.00  0.00    +0.000 A 
ATOM     10  N   UNL     1      -0.500  11.668  22.970  0.00  0.00    +0.000 NA
ATOM     11  C   UNL     1      -1.215  12.813  22.925  0.00  0.00    +0.000 A 
ATOM     12  C   UNL     1      -1.765  13.327  21.763  0.00  0.00    +0.000 A 
ATOM     13  C   UNL     1      -1.573  12.624  20.577  0.00  0.00    +0.000 A 
ATOM     14  C   UNL     1      -0.836  11.437  20.598  0.00  0.00    +0.000 A 
ENDBRANCH   1   6
BRANCH   1  15
ATOM     15  C   UNL     1       2.344   7.458  19.399  0.00  0.00    +0.000 C 
BRANCH  15  16
ATOM     16  C   UNL     1       3.153   6.146  19.571  0.00  0.00    +0.000 C 
BRANCH  16  17
ATOM     17  C   UNL     1       2.266   4.898  19.609  0.00  0.00    +0.000 A 
ATOM     18  C   UNL     1       1.819   4.282  18.428  0.00  0.00    +0.000 A 
ATOM     19  C   UNL     1       1.070   3.104  18.467  0.00  0.00    +0.000 A 
ATOM     20  C   UNL     1       0.748   2.523  19.690  0.00  0.00    +0.000 A 
ATOM     21  C   UNL     1       1.170   3.124  20.873  0.00  0.00    +0.000 A 
ATOM     22  C   UNL     1       1.924   4.302  20.837  0.00  0.00    +0.000 A 
ENDBRANCH  16  17
BRANCH  16  23
ATOM     23  C   UNL     1       4.225   6.016  18.471  0.00  0.00    +0.000 A 
ATOM     24  C   UNL     1       5.276   5.097  18.616  0.00  0.00    +0.000 A 
ATOM     25  C   UNL     1       6.207   4.908  17.588  0.00  0.00    +0.000 A 
ATOM     26  C   UNL     1       6.108   5.635  16.404  0.00  0.00    +0.000 A 
ATOM     27  C   UNL     1       5.090   6.567  16.250  0.00  0.00    +0.000 A 
ATOM     28  C   UNL     1       4.158   6.753  17.272  0.00  0.00    +0.000 A 
ENDBRANCH  16  23
ENDBRANCH  15  16
ENDBRANCH   1  15
TORSDOF 5
ENDMDL
MODEL 5
REMARK VINA RESULT:      -8.6      1.013      4.004
REMARK  Name = 
REMARK  5 active torsions:
REMARK  status: ('A' for Active; 'I' for Inactive)
REMARK    1  A    between atoms: C_4  and  N_5
REMARK    2  A    between atoms: N_5  and  C_6
REMARK    3  A    between atoms: C_6  and  C_7
REMARK    4  A    between atoms: C_7  and  C_8
REMARK    5  A    between atoms: C_7  and  C_14
REMARK                            x       y       z     vdW  Elec       q    Type
REMARK                         _______ _______ _______ _____ _____    ______ ____
ROOT
ATOM      1  N   UNL     1       1.935   8.069  20.579  0.00  0.00    +0.000 N 
ATOM      2  H   UNL     1       1.810   7.458  21.387  0.00  0.00    +0.000 HD
ENDROOT
BRANCH   1   6
ATOM      3  O   UNL     1      -1.113  10.911  18.264  0.00  0.00    +0.000 OA
ATOM      4  C   UNL     1      -0.582  10.606  19.325  0.00  0.00    +0.000 C 
ATOM      5  C   UNL     1       0.369   9.483  19.391  0.00  0.00    +0.000 C 
ATOM      6  C   UNL     1       0.948   9.058  20.522  0.00  0.00    +0.000 C 
ATOM      7  C   UNL     1       0.580   9.734  21.825  0.00  0.00    +0.000 C 
ATOM      8  O   UNL     1       0.998   9.302  22.899  0.00  0.00    +0.000 OA
ATOM      9  C   UNL     1      -0.284  10.945  21.756  0.00  0.00    +0.000 A 
ATOM     10  N   UNL     1      -0.485  11.615  22.925  0.00  0.00    +0.000 NA
ATOM     11  C   UNL     1      -1.251  12.728  22.880  0.00  0.00    +0.000 A 
ATOM     12  C   UNL     1      -1.832  13.212  21.720  0.00  0.00    +0.000 A 
ATOM     13  C   UNL     1      -1.620  12.513  20.536  0.00  0.00    +0.000 A 
ATOM     14  C   UNL     1      -0.831  11.358  20.557  0.00  0.00    +0.000 A 
ENDBRANCH   1   6
BRANCH   1  15
ATOM     15  C   UNL     1       2.360   7.368  19.362  0.00  0.00    +0.000 C 
BRANCH  15  16
ATOM     16  C   UNL     1       3.218   6.095  19.581  0.00  0.00    +0.000 C 
BRANCH  16  17
ATOM     17  C   UNL     1       2.379   4.815  19.653  0.00  0.00    +0.000 A 
ATOM     18  C   UNL     1       2.043   4.229  20.885  0.00  0.00    +0.000 A 
ATOM     19  C   UNL     1       1.218   3.104  20.948  0.00  0.00    +0.000 A 
ATOM     20  C   UNL     1       0.718   2.540  19.779  0.00  0.00    +0.000 A 
ATOM     21  C   UNL     1       1.050   3.096  18.546  0.00  0.00    +0.000 A 
ATOM     22  C   UNL     1       1.873   4.226  18.480  0.00  0.00    +0.000 A 
ENDBRANCH  16  17
BRANCH  16  23
ATOM     23  C   UNL     1       4.302   5.972  18.491  0.00  0.00    +0.000 A 
ATOM     24  C   UNL     1       4.211   6.738  17.319  0.00  0.00    +0.000 A 
ATOM     25  C   UNL     1       5.230   6.699  16.360  0.00  0.00    +0.000 A 
ATOM     26  C   UNL     1       6.351   5.894  16.553  0.00  0.00    +0.000 A 
ATOM     27  C   UNL     1       6.448   5.109  17.694  0.00  0.00    +0.000 A 
ATOM     28  C   UNL     1       5.435   5.149  18.653  0.00  0.00    +0.000 A 
ENDBRANCH  16  23
ENDBRANCH  15  16
ENDBRANCH   1  15
TORSDOF 5
ENDMDL
MODEL 6
REMARK VINA RESULT:      -8.6      1.030      2.240
REMARK  Name = 
REMARK  5 active torsions:
REMARK  status: ('A' for Active; 'I' for Inactive)
REMARK    1  A    between atoms: C_4  and  N_5
REMARK    2  A    between atoms: N_5  and  C_6
REMARK    3  A    between atoms: C_6  and  C_7
REMARK    4  A    between atoms: C_7  and  C_8
REMARK    5  A    between atoms: C_7  and  C_14
REMARK                            x       y       z     vdW  Elec       q    Type
REMARK                         _______ _______ _______ _____ _____    ______ ____
ROOT
ATOM      1  N   UNL     1       2.163   8.548  19.090  0.00  0.00    +0.000 N 
ATOM      2  H   UNL     1       3.042   9.053  19.203  0.00  0.00    +0.000 HD
ENDROOT
BRANCH   1   6
ATOM      3  O   UNL     1      -1.571  11.336  18.084  0.00  0.00    +0.000 OA
ATOM      4  C   UNL     1      -0.832  10.862  18.938  0.00  0.00    +0.000 C 
ATOM      5  C   UNL     1       0.250   9.936  18.561  0.00  0.00    +0.000 C 
ATOM      6  C   UNL     1       1.064   9.338  19.442  0.00  0.00    +0.000 C 
ATOM      7  C   UNL     1       0.843   9.586  20.919  0.00  0.00    +0.000 C 
ATOM      8  O   UNL     1       1.491   8.969  21.765  0.00  0.00    +0.000 OA
ATOM      9  C   UNL     1      -0.165  10.611  21.305  0.00  0.00    +0.000 A 
ATOM     10  N   UNL     1      -0.245  10.914  22.631  0.00  0.00    +0.000 NA
ATOM     11  C   UNL     1      -1.140  11.857  23.000  0.00  0.00    +0.000 A 
ATOM     12  C   UNL     1      -1.969  12.517  22.109  0.00  0.00    +0.000 A 
ATOM     13  C   UNL     1      -1.877  12.192  20.760  0.00  0.00    +0.000 A 
ATOM     14  C   UNL     1      -0.958  11.220  20.353  0.00  0.00    +0.000 A 
ENDBRANCH   1   6
BRANCH   1  15
ATOM     15  C   UNL     1       2.229   7.139  19.495  0.00  0.00    +0.000 C 
BRANCH  15  16
ATOM     16  C   UNL     1       2.685   6.142  18.399  0.00  0.00    +0.000 C 
BRANCH  16  17
ATOM     17  C   UNL     1       4.208   6.085  18.240  0.00  0.00    +0.000 A 
ATOM     18  C   UNL     1       4.855   6.706  17.158  0.00  0.00    +0.000 A 
ATOM     19  C   UNL     1       6.247   6.714  17.056  0.00  0.00    +0.000 A 
ATOM     20  C   UNL     1       7.020   6.093  18.033  0.00  0.00    +0.000 A 
ATOM     21  C   UNL     1       6.400   5.460  19.107  0.00  0.00    +0.000 A 
ATOM     22  C   UNL     1       5.005   5.455  19.213  0.00  0.00    +0.000 A 
ENDBRANCH  16  17
BRANCH  16  23
ATOM     23  C   UNL     1       2.116   4.735  18.668  0.00  0.00    +0.000 A 
ATOM     24  C   UNL     1       2.299   3.709  17.728  0.00  0.00    +0.000 A 
ATOM     25  C   UNL     1       1.862   2.407  17.997  0.00  0.00    +0.000 A 
ATOM     26  C   UNL     1       1.232   2.109  19.204  0.00  0.00    +0.000 A 
ATOM     27  C   UNL     1       1.019   3.115  20.137  0.00  0.00    +0.000 A 
ATOM     28  C   UNL     1       1.458   4.412  19.872  0.00  0.00    +0.000 A 
ENDBRANCH  16  23
ENDBRANCH  15  16
ENDBRANCH   1  15
TORSDOF 5
ENDMDL
MODEL 7
REMARK VINA RESULT:      -8.5      0.954      3.600
REMARK  Name = 
REMARK  5 active torsions:
REMARK  status: ('A' for Active; 'I' for Inactive)
REMARK    1  A    between atoms: C_4  and  N_5
REMARK    2  A    between atoms: N_5  and  C_6
REMARK    3  A    between atoms: C_6  and  C_7
REMARK    4  A    between atoms: C_7  and  C_8
REMARK    5  A    between atoms: C_7  and  C_14
REMARK                            x       y       z     vdW  Elec       q    Type
REMARK                         _______ _______ _______ _____ _____    ______ ____
ROOT
ATOM      1  N   UNL     1       1.587   7.852  18.520  0.00  0.00    +0.000 N 
ATOM      2  H   UNL     1       1.006   7.948  17.687  0.00  0.00    +0.000 HD
ENDROOT
BRANCH   1   6
ATOM      3  O   UNL     1       1.437   9.355  23.042  0.00  0.00    +0.000 OA
ATOM      4  C   UNL     1       1.036   9.487  21.892  0.00  0.00    +0.000 C 
ATOM      5  C   UNL     1       1.548   8.620  20.816  0.00  0.00    +0.000 C 
ATOM      6  C   UNL     1       1.196   8.738  19.528  0.00  0.00    +0.000 C 
ATOM      7  C   UNL     1       0.250   9.852  19.133  0.00  0.00    +0.000 C 
ATOM      8  O   UNL     1      -0.007  10.068  17.949  0.00  0.00    +0.000 OA
ATOM      9  C   UNL     1      -0.367  10.655  20.224  0.00  0.00    +0.000 A 
ATOM     10  N   UNL     1      -1.318  11.556  19.851  0.00  0.00    +0.000 NA
ATOM     11  C   UNL     1      -1.904  12.282  20.829  0.00  0.00    +0.000 A 
ATOM     12  C   UNL     1      -1.588  12.157  22.171  0.00  0.00    +0.000 A 
ATOM     13  C   UNL     1      -0.611  11.235  22.533  0.00  0.00    +0.000 A 
ATOM     14  C   UNL     1       0.010  10.472  21.540  0.00  0.00    +0.000 A 
ENDBRANCH   1   6
BRANCH   1  15
ATOM     15  C   UNL     1       3.009   7.631  18.231  0.00  0.00    +0.000 C 
BRANCH  15  16
ATOM     16  C   UNL     1       3.635   6.357  18.856  0.00  0.00    +0.000 C 
BRANCH  16  17
ATOM     17  C   UNL     1       2.605   5.252  19.116  0.00  0.00    +0.000 A 
ATOM     18  C   UNL     1       2.130   4.435  18.077  0.00  0.00    +0.000 A 
ATOM     19  C   UNL     1       1.247   3.384  18.330  0.00  0.00    +0.000 A 
ATOM     20  C   UNL     1       0.817   3.134  19.630  0.00  0.00    +0.000 A 
ATOM     21  C   UNL     1       1.265   3.940  20.674  0.00  0.00    +0.000 A 
ATOM     22  C   UNL     1       2.153   4.991  20.422  0.00  0.00    +0.000 A 
ENDBRANCH  16  17
BRANCH  16  23
ATOM     23  C   UNL     1       4.787   5.828  17.979  0.00  0.00    +0.000 A 
ATOM     24  C   UNL     1       4.820   6.122  16.607  0.00  0.00    +0.000 A 
ATOM     25  C   UNL     1       5.903   5.720  15.817  0.00  0.00    +0.000 A 
ATOM     26  C   UNL     1       6.965   5.015  16.380  0.00  0.00    +0.000 A 
ATOM     27  C   UNL     1       6.940   4.693  17.730  0.00  0.00    +0.000 A 
ATOM     28  C   UNL     1       5.863   5.096  18.520  0.00  0.00    +0.000 A 
ENDBRANCH  16  23
ENDBRANCH  15  16
ENDBRANCH   1  15
TORSDOF 5
ENDMDL
MODEL 8
REMARK VINA RESULT:      -8.5      1.179      2.264
REMARK  Name = 
REMARK  5 active torsions:
REMARK  status: ('A' for Active; 'I' for Inactive)
REMARK    1  A    between atoms: C_4  and  N_5
REMARK    2  A    between atoms: N_5  and  C_6
REMARK    3  A    between atoms: C_6  and  C_7
REMARK    4  A    between atoms: C_7  and  C_8
REMARK    5  A    between atoms: C_7  and  C_14
REMARK                            x       y       z     vdW  Elec       q    Type
REMARK                         _______ _______ _______ _____ _____    ______ ____
ROOT
ATOM      1  N   UNL     1       2.134   8.722  18.998  0.00  0.00    +0.000 N 
ATOM      2  H   UNL     1       2.891   9.343  19.284  0.00  0.00    +0.000 HD
ENDROOT
BRANCH   1   6
ATOM      3  O   UNL     1      -1.871  10.296  16.945  0.00  0.00    +0.000 OA
ATOM      4  C   UNL     1      -1.153  10.277  17.938  0.00  0.00    +0.000 C 
ATOM      5  C   UNL     1       0.090   9.487  17.947  0.00  0.00    +0.000 C 
ATOM      6  C   UNL     1       0.897   9.375  19.012  0.00  0.00    +0.000 C 
ATOM      7  C   UNL     1       0.498  10.060  20.301  0.00  0.00    +0.000 C 
ATOM      8  O   UNL     1       1.149   9.888  21.332  0.00  0.00    +0.000 OA
ATOM      9  C   UNL     1      -0.689  10.957  20.269  0.00  0.00    +0.000 A 
ATOM     10  N   UNL     1      -0.944  11.669  21.403  0.00  0.00    +0.000 NA
ATOM     11  C   UNL     1      -2.006  12.504  21.387  0.00  0.00    +0.000 A 
ATOM     12  C   UNL     1      -2.836  12.668  20.292  0.00  0.00    +0.000 A 
ATOM     13  C   UNL     1      -2.564  11.931  19.144  0.00  0.00    +0.000 A 
ATOM     14  C   UNL     1      -1.470  11.060  19.134  0.00  0.00    +0.000 A 
ENDBRANCH   1   6
BRANCH   1  15
ATOM     15  C   UNL     1       2.261   7.353  19.510  0.00  0.00    +0.000 C 
BRANCH  15  16
ATOM     16  C   UNL     1       2.632   6.271  18.463  0.00  0.00    +0.000 C 
BRANCH  16  17
ATOM     17  C   UNL     1       4.143   6.154  18.236  0.00  0.00    +0.000 A 
ATOM     18  C   UNL     1       4.969   5.476  19.148  0.00  0.00    +0.000 A 
ATOM     19  C   UNL     1       6.333   5.310  18.902  0.00  0.00    +0.000 A 
ATOM     20  C   UNL     1       6.899   5.825  17.739  0.00  0.00    +0.000 A 
ATOM     21  C   UNL     1       6.101   6.513  16.828  0.00  0.00    +0.000 A 
ATOM     22  C   UNL     1       4.733   6.677  17.071  0.00  0.00    +0.000 A 
ENDBRANCH  16  17
BRANCH  16  23
ATOM     23  C   UNL     1       2.035   4.905  18.853  0.00  0.00    +0.000 A 
ATOM     24  C   UNL     1       2.034   3.848  17.930  0.00  0.00    +0.000 A 
ATOM     25  C   UNL     1       1.573   2.579  18.298  0.00  0.00    +0.000 A 
ATOM     26  C   UNL     1       1.101   2.346  19.589  0.00  0.00    +0.000 A 
ATOM     27  C   UNL     1       1.071   3.385  20.510  0.00  0.00    +0.000 A 
ATOM     28  C   UNL     1       1.535   4.649  20.145  0.00  0.00    +0.000 A 
ENDBRANCH  16  23
ENDBRANCH  15  16
ENDBRANCH   1  15
TORSDOF 5
ENDMDL
MODEL 9
REMARK VINA RESULT:      -8.4      1.452      1.600
REMARK  Name = 
REMARK  5 active torsions:
REMARK  status: ('A' for Active; 'I' for Inactive)
REMARK    1  A    between atoms: C_4  and  N_5
REMARK    2  A    between atoms: N_5  and  C_6
REMARK    3  A    between atoms: C_6  and  C_7
REMARK    4  A    between atoms: C_7  and  C_8
REMARK    5  A    between atoms: C_7  and  C_14
REMARK                            x       y       z     vdW  Elec       q    Type
REMARK                         _______ _______ _______ _____ _____    ______ ____
ROOT
ATOM      1  N   UNL     1       1.361   8.631  18.035  0.00  0.00    +0.000 N 
ATOM      2  H   UNL     1       1.606   8.877  17.075  0.00  0.00    +0.000 HD
ENDROOT
BRANCH   1   6
ATOM      3  O   UNL     1       1.016  11.886  21.500  0.00  0.00    +0.000 OA
ATOM      4  C   UNL     1       0.491  11.334  20.541  0.00  0.00    +0.000 C 
ATOM      5  C   UNL     1       1.217  10.300  19.783  0.00  0.00    +0.000 C 
ATOM      6  C   UNL     1       0.730   9.690  18.693  0.00  0.00    +0.000 C 
ATOM      7  C   UNL     1      -0.629  10.109  18.173  0.00  0.00    +0.000 C 
ATOM      8  O   UNL     1      -1.063   9.659  17.113  0.00  0.00    +0.000 OA
ATOM      9  C   UNL     1      -1.421  11.062  18.998  0.00  0.00    +0.000 A 
ATOM     10  N   UNL     1      -2.693  11.314  18.580  0.00  0.00    +0.000 NA
ATOM     11  C   UNL     1      -3.436  12.162  19.326  0.00  0.00    +0.000 A 
ATOM     12  C   UNL     1      -2.973  12.779  20.475  0.00  0.00    +0.000 A 
ATOM     13  C   UNL     1      -1.670  12.514  20.885  0.00  0.00    +0.000 A 
ATOM     14  C   UNL     1      -0.881  11.640  20.130  0.00  0.00    +0.000 A 
ENDBRANCH   1   6
BRANCH   1  15
ATOM     15  C   UNL     1       2.377   7.825  18.720  0.00  0.00    +0.000 C 
BRANCH  15  16
ATOM     16  C   UNL     1       2.788   6.509  18.011  0.00  0.00    +0.000 C 
BRANCH  16  17
ATOM     17  C   UNL     1       4.303   6.280  18.008  0.00  0.00    +0.000 A 
ATOM     18  C   UNL     1       4.945   5.619  19.068  0.00  0.00    +0.000 A 
ATOM     19  C   UNL     1       6.314   5.350  19.028  0.00  0.00    +0.000 A 
ATOM     20  C   UNL     1       7.070   5.743  17.928  0.00  0.00    +0.000 A 
ATOM     21  C   UNL     1       6.456   6.411  16.871  0.00  0.00    +0.000 A 
ATOM     22  C   UNL     1       5.083   6.679  16.908  0.00  0.00    +0.000 A 
ENDBRANCH  16  17
BRANCH  16  23
ATOM     23  C   UNL     1       2.059   5.301  18.633  0.00  0.00    +0.000 A 
ATOM     24  C   UNL     1       1.768   4.174  17.849  0.00  0.00    +0.000 A 
ATOM     25  C   UNL     1       1.183   3.038  18.421  0.00  0.00    +0.000 A 
ATOM     26  C   UNL     1       0.875   3.011  19.779  0.00  0.00    +0.000 A 
ATOM     27  C   UNL     1       1.133   4.125  20.567  0.00  0.00    +0.000 A 
ATOM     28  C   UNL     1       1.719   5.256  20.000  0.00  0.00    +0.000 A 
ENDBRANCH  16  23
ENDBRANCH  15  16
ENDBRANCH   1  15
TORSDOF 5
ENDMDL
