MODEL 1
REMARK VINA RESULT:      -7.7      0.000      0.000
REMARK  Name = 
REMARK  10 active torsions:
REMARK  status: ('A' for Active; 'I' for Inactive)
REMARK    1  A    between atoms: C_1  and  C_2
REMARK    2  A    between atoms: C_2  and  C_3
REMARK    3  A    between atoms: C_2  and  C_4
REMARK    4  A    between atoms: C_2  and  C_9
REMARK    5  A    between atoms: C_4  and  C_5
REMARK    6  A    between atoms: C_5  and  C_6
REMARK    7  A    between atoms: C_6  and  O_8
REMARK    8  A    between atoms: C_9  and  C_10
REMARK    9  A    between atoms: N_19  and  C_20
REMARK   10  A    between atoms: C_20  and  C_21
REMARK                            x       y       z     vdW  Elec       q    Type
REMARK                         _______ _______ _______ _____ _____    ______ ____
ROOT
ATOM      1  C   UNL     1       4.107   5.370  17.819  0.00  0.00    +0.000 A 
ATOM      2  N   UNL     1       3.941   4.127  17.412  0.00  0.00    +0.000 NA
ATOM      3  C   UNL     1       2.850   3.645  18.078  0.00  0.00    +0.000 A 
ATOM      4  C   UNL     1       2.205   2.413  17.931  0.00  0.00    +0.000 A 
ATOM      5  C   UNL     1       1.075   2.176  18.708  0.00  0.00    +0.000 A 
ATOM      6  F   UNL     1       0.429   1.009  18.578  0.00  0.00    +0.000 F 
ATOM      7  C   UNL     1       0.592   3.120  19.610  0.00  0.00    +0.000 A 
ATOM      8  C   UNL     1       1.239   4.350  19.780  0.00  0.00    +0.000 A 
ATOM      9  C   UNL     1       2.374   4.582  18.989  0.00  0.00    +0.000 A 
ATOM     10  N   UNL     1       3.247   5.647  18.866  0.00  0.00    +0.000 N 
ENDROOT
BRANCH   1  11
ATOM     11  C   UNL     1       5.086   6.333  17.205  0.00  0.00    +0.000 C 
BRANCH  11  13
ATOM     12  C   UNL     1       6.700   5.527  19.018  0.00  0.00    +0.000 C 
ATOM     13  C   UNL     1       6.579   6.049  17.573  0.00  0.00    +0.000 C 
ATOM     14  C   UNL     1       7.446   7.325  17.450  0.00  0.00    +0.000 C 
BRANCH  13  15
ATOM     15  C   UNL     1       7.193   5.011  16.582  0.00  0.00    +0.000 C 
BRANCH  15  16
ATOM     16  C   UNL     1       6.806   5.164  15.112  0.00  0.00    +0.000 C 
BRANCH  16  17
ATOM     17  C   UNL     1       6.249   3.865  14.580  0.00  0.00    +0.000 C 
ATOM     18  O   UNL     1       6.101   3.631  13.393  0.00  0.00    +0.000 OA
BRANCH  17  19
ATOM     19  O   UNL     1       5.960   2.967  15.548  0.00  0.00    +0.000 OA
ATOM     20  H   UNL     1       6.576   2.977  16.302  0.00  0.00    +0.000 HD
ENDBRANCH  17  19
ENDBRANCH  16  17
ENDBRANCH  15  16
ENDBRANCH  13  15
ENDBRANCH  11  13
ENDBRANCH   1  11
BRANCH  10  21
ATOM     21  C   UNL     1       3.287   6.807  19.750  0.00  0.00    +0.000 C 
BRANCH  21  22
ATOM     22  C   UNL     1       2.255   7.859  19.414  0.00  0.00    +0.000 A 
ATOM     23  C   UNL     1       2.062   8.324  18.103  0.00  0.00    +0.000 A 
ATOM     24  C   UNL     1       1.138   9.335  17.833  0.00  0.00    +0.000 A 
ATOM     25  C   UNL     1       0.376   9.871  18.866  0.00  0.00    +0.000 A 
ATOM     26 CL   UNL     1      -0.711  11.163  18.544  0.00  0.00    +0.000 Cl
ATOM     27  C   UNL     1       0.501   9.375  20.160  0.00  0.00    +0.000 A 
ATOM     28  C   UNL     1       1.430   8.366  20.432  0.00  0.00    +0.000 A 
ENDBRANCH  21  22
ENDBRANCH  10  21
TORSDOF 8
ENDMDL
MODEL 2
REMARK VINA RESULT:      -7.6      2.547      4.897
REMARK  Name = 
REMARK  10 active torsions:
REMARK  status: ('A' for Active; 'I' for Inactive)
REMARK    1  A    between atoms: C_1  and  C_2
REMARK    2  A    between atoms: C_2  and  C_3
REMARK    3  A    between atoms: C_2  and  C_4
REMARK    4  A    between atoms: C_2  and  C_9
REMARK    5  A    between atoms: C_4  and  C_5
REMARK    6  A    between atoms: C_5  and  C_6
REMARK    7  A    between atoms: C_6  and  O_8
REMARK    8  A    between atoms: C_9  and  C_10
REMARK    9  A    between atoms: N_19  and  C_20
REMARK   10  A    between atoms: C_20  and  C_21
REMARK                            x       y       z     vdW  Elec       q    Type
REMARK                         _______ _______ _______ _____ _____    ______ ____
ROOT
ATOM      1  C   UNL     1       2.735   4.631  17.742  0.00  0.00    +0.000 A 
ATOM      2  N   UNL     1       3.252   4.238  16.595  0.00  0.00    +0.000 NA
ATOM      3  C   UNL     1       4.563   4.617  16.612  0.00  0.00    +0.000 A 
ATOM      4  C   UNL     1       5.567   4.351  15.674  0.00  0.00    +0.000 A 
ATOM      5  C   UNL     1       6.848   4.818  15.946  0.00  0.00    +0.000 A 
ATOM      6  F   UNL     1       7.832   4.566  15.071  0.00  0.00    +0.000 F 
ATOM      7  C   UNL     1       7.140   5.533  17.104  0.00  0.00    +0.000 A 
ATOM      8  C   UNL     1       6.141   5.822  18.042  0.00  0.00    +0.000 A 
ATOM      9  C   UNL     1       4.854   5.342  17.762  0.00  0.00    +0.000 A 
ATOM     10  N   UNL     1       3.645   5.411  18.431  0.00  0.00    +0.000 N 
ENDROOT
BRANCH   1  11
ATOM     11  C   UNL     1       1.358   4.257  18.218  0.00  0.00    +0.000 C 
BRANCH  11  13
ATOM     12  C   UNL     1       0.248   2.071  18.943  0.00  0.00    +0.000 C 
ATOM     13  C   UNL     1       1.336   3.108  19.278  0.00  0.00    +0.000 C 
ATOM     14  C   UNL     1       1.058   3.654  20.700  0.00  0.00    +0.000 C 
BRANCH  13  15
ATOM     15  C   UNL     1       2.731   2.410  19.347  0.00  0.00    +0.000 C 
BRANCH  15  16
ATOM     16  C   UNL     1       3.302   2.170  20.744  0.00  0.00    +0.000 C 
BRANCH  16  17
ATOM     17  C   UNL     1       4.799   1.987  20.671  0.00  0.00    +0.000 C 
ATOM     18  O   UNL     1       5.452   1.426  21.534  0.00  0.00    +0.000 OA
BRANCH  17  19
ATOM     19  O   UNL     1       5.347   2.476  19.537  0.00  0.00    +0.000 OA
ATOM     20  H   UNL     1       6.312   2.359  19.474  0.00  0.00    +0.000 HD
ENDBRANCH  17  19
ENDBRANCH  16  17
ENDBRANCH  15  16
ENDBRANCH  13  15
ENDBRANCH  11  13
ENDBRANCH   1  11
BRANCH  10  21
ATOM     21  C   UNL     1       3.381   6.236  19.606  0.00  0.00    +0.000 C 
BRANCH  21  22
ATOM     22  C   UNL     1       2.487   7.421  19.324  0.00  0.00    +0.000 A 
ATOM     23  C   UNL     1       2.424   8.026  18.058  0.00  0.00    +0.000 A 
ATOM     24  C   UNL     1       1.628   9.153  17.844  0.00  0.00    +0.000 A 
ATOM     25  C   UNL     1       0.864   9.668  18.884  0.00  0.00    +0.000 A 
ATOM     26 CL   UNL     1      -0.062  11.096  18.638  0.00  0.00    +0.000 Cl
ATOM     27  C   UNL     1       0.856   9.042  20.127  0.00  0.00    +0.000 A 
ATOM     28  C   UNL     1       1.657   7.917  20.344  0.00  0.00    +0.000 A 
ENDBRANCH  21  22
ENDBRANCH  10  21
TORSDOF 8
ENDMDL
MODEL 3
REMARK VINA RESULT:      -7.4      1.286      1.712
REMARK  Name = 
REMARK  10 active torsions:
REMARK  status: ('A' for Active; 'I' for Inactive)
REMARK    1  A    between atoms: C_1  and  C_2
REMARK    2  A    between atoms: C_2  and  C_3
REMARK    3  A    between atoms: C_2  and  C_4
REMARK    4  A    between atoms: C_2  and  C_9
REMARK    5  A    between atoms: C_4  and  C_5
REMARK    6  A    between atoms: C_5  and  C_6
REMARK    7  A    between atoms: C_6  and  O_8
REMARK    8  A    between atoms: C_9  and  C_10
REMARK    9  A    between atoms: N_19  and  C_20
REMARK   10  A    between atoms: C_20  and  C_21
REMARK                            x       y       z     vdW  Elec       q    Type
REMARK                         _______ _______ _______ _____ _____    ______ ____
ROOT
ATOM      1  C   UNL     1       4.685   5.416  18.882  0.00  0.00    +0.000 A 
ATOM      2  N   UNL     1       4.640   4.260  19.513  0.00  0.00    +0.000 NA
ATOM      3  C   UNL     1       3.430   3.703  19.212  0.00  0.00    +0.000 A 
ATOM      4  C   UNL     1       2.934   2.441  19.555  0.00  0.00    +0.000 A 
ATOM      5  C   UNL     1       1.672   2.091  19.087  0.00  0.00    +0.000 A 
ATOM      6  F   UNL     1       1.177   0.882  19.388  0.00  0.00    +0.000 F 
ATOM      7  C   UNL     1       0.910   2.957  18.307  0.00  0.00    +0.000 A 
ATOM      8  C   UNL     1       1.387   4.231  17.972  0.00  0.00    +0.000 A 
ATOM      9  C   UNL     1       2.663   4.572  18.444  0.00  0.00    +0.000 A 
ATOM     10  N   UNL     1       3.455   5.699  18.317  0.00  0.00    +0.000 N 
ENDROOT
BRANCH   1  11
ATOM     11  C   UNL     1       5.915   6.278  18.790  0.00  0.00    +0.000 C 
BRANCH  11  13
ATOM     12  C   UNL     1       7.797   4.795  17.898  0.00  0.00    +0.000 C 
ATOM     13  C   UNL     1       6.835   5.952  17.568  0.00  0.00    +0.000 C 
ATOM     14  C   UNL     1       7.685   7.179  17.156  0.00  0.00    +0.000 C 
BRANCH  13  15
ATOM     15  C   UNL     1       5.970   5.585  16.322  0.00  0.00    +0.000 C 
BRANCH  15  16
ATOM     16  C   UNL     1       6.250   4.230  15.676  0.00  0.00    +0.000 C 
BRANCH  16  17
ATOM     17  C   UNL     1       6.760   4.418  14.268  0.00  0.00    +0.000 C 
ATOM     18  O   UNL     1       6.344   3.788  13.310  0.00  0.00    +0.000 OA
BRANCH  17  19
ATOM     19  O   UNL     1       7.703   5.380  14.160  0.00  0.00    +0.000 OA
ATOM     20  H   UNL     1       7.606   5.952  13.378  0.00  0.00    +0.000 HD
ENDBRANCH  17  19
ENDBRANCH  16  17
ENDBRANCH  15  16
ENDBRANCH  13  15
ENDBRANCH  11  13
ENDBRANCH   1  11
BRANCH  10  21
ATOM     21  C   UNL     1       3.019   6.974  17.757  0.00  0.00    +0.000 C 
BRANCH  21  22
ATOM     22  C   UNL     1       2.231   7.823  18.727  0.00  0.00    +0.000 A 
ATOM     23  C   UNL     1       2.063   7.458  20.073  0.00  0.00    +0.000 A 
ATOM     24  C   UNL     1       1.285   8.237  20.932  0.00  0.00    +0.000 A 
ATOM     25  C   UNL     1       0.691   9.402  20.462  0.00  0.00    +0.000 A 
ATOM     26 CL   UNL     1      -0.325  10.323  21.501  0.00  0.00    +0.000 Cl
ATOM     27  C   UNL     1       0.902   9.819  19.152  0.00  0.00    +0.000 A 
ATOM     28  C   UNL     1       1.677   9.038  18.290  0.00  0.00    +0.000 A 
ENDBRANCH  21  22
ENDBRANCH  10  21
TORSDOF 8
ENDMDL
MODEL 4
REMARK VINA RESULT:      -7.4      3.118      5.514
REMARK  Name = 
REMARK  10 active torsions:
REMARK  status: ('A' for Active; 'I' for Inactive)
REMARK    1  A    between atoms: C_1  and  C_2
REMARK    2  A    between atoms: C_2  and  C_3
REMARK    3  A    between atoms: C_2  and  C_4
REMARK    4  A    between atoms: C_2  and  C_9
REMARK    5  A    between atoms: C_4  and  C_5
REMARK    6  A    between atoms: C_5  and  C_6
REMARK    7  A    between atoms: C_6  and  O_8
REMARK    8  A    between atoms: C_9  and  C_10
REMARK    9  A    between atoms: N_19  and  C_20
REMARK   10  A    between atoms: C_20  and  C_21
REMARK                            x       y       z     vdW  Elec       q    Type
REMARK                         _______ _______ _______ _____ _____    ______ ____
ROOT
ATOM      1  C   UNL     1       3.930   3.705  17.952  0.00  0.00    +0.000 A 
ATOM      2  N   UNL     1       4.178   3.280  16.729  0.00  0.00    +0.000 NA
ATOM      3  C   UNL     1       5.153   4.093  16.228  0.00  0.00    +0.000 A 
ATOM      4  C   UNL     1       5.832   4.001  15.008  0.00  0.00    +0.000 A 
ATOM      5  C   UNL     1       6.824   4.941  14.746  0.00  0.00    +0.000 A 
ATOM      6  F   UNL     1       7.500   4.869  13.591  0.00  0.00    +0.000 F 
ATOM      7  C   UNL     1       7.142   5.948  15.654  0.00  0.00    +0.000 A 
ATOM      8  C   UNL     1       6.458   6.061  16.871  0.00  0.00    +0.000 A 
ATOM      9  C   UNL     1       5.463   5.107  17.127  0.00  0.00    +0.000 A 
ATOM     10  N   UNL     1       4.604   4.888  18.190  0.00  0.00    +0.000 N 
ENDROOT
BRANCH   1  11
ATOM     11  C   UNL     1       3.048   2.980  18.932  0.00  0.00    +0.000 C 
BRANCH  11  13
ATOM     12  C   UNL     1       0.673   2.095  18.599  0.00  0.00    +0.000 C 
ATOM     13  C   UNL     1       1.533   3.352  18.827  0.00  0.00    +0.000 C 
ATOM     14  C   UNL     1       1.270   4.332  17.658  0.00  0.00    +0.000 C 
BRANCH  13  15
ATOM     15  C   UNL     1       1.065   4.088  20.122  0.00  0.00    +0.000 C 
BRANCH  15  16
ATOM     16  C   UNL     1       2.037   4.072  21.301  0.00  0.00    +0.000 C 
BRANCH  16  17
ATOM     17  C   UNL     1       1.974   2.742  22.012  0.00  0.00    +0.000 C 
ATOM     18  O   UNL     1       0.951   2.277  22.485  0.00  0.00    +0.000 OA
BRANCH  17  19
ATOM     19  O   UNL     1       3.159   2.092  22.046  0.00  0.00    +0.000 OA
ATOM     20  H   UNL     1       3.603   2.112  22.912  0.00  0.00    +0.000 HD
ENDBRANCH  17  19
ENDBRANCH  16  17
ENDBRANCH  15  16
ENDBRANCH  13  15
ENDBRANCH  11  13
ENDBRANCH   1  11
BRANCH  10  21
ATOM     21  C   UNL     1       4.405   5.801  19.311  0.00  0.00    +0.000 C 
BRANCH  21  22
ATOM     22  C   UNL     1       3.369   6.868  19.044  0.00  0.00    +0.000 A 
ATOM     23  C   UNL     1       3.259   7.509  17.799  0.00  0.00    +0.000 A 
ATOM     24  C   UNL     1       2.326   8.528  17.600  0.00  0.00    +0.000 A 
ATOM     25  C   UNL     1       1.473   8.897  18.634  0.00  0.00    +0.000 A 
ATOM     26 CL   UNL     1       0.373  10.200  18.411  0.00  0.00    +0.000 Cl
ATOM     27  C   UNL     1       1.517   8.227  19.853  0.00  0.00    +0.000 A 
ATOM     28  C   UNL     1       2.454   7.210  20.055  0.00  0.00    +0.000 A 
ENDBRANCH  21  22
ENDBRANCH  10  21
TORSDOF 8
ENDMDL
MODEL 5
REMARK VINA RESULT:      -7.0      2.291      3.041
REMARK  Name = 
REMARK  10 active torsions:
REMARK  status: ('A' for Active; 'I' for Inactive)
REMARK    1  A    between atoms: C_1  and  C_2
REMARK    2  A    between atoms: C_2  and  C_3
REMARK    3  A    between atoms: C_2  and  C_4
REMARK    4  A    between atoms: C_2  and  C_9
REMARK    5  A    between atoms: C_4  and  C_5
REMARK    6  A    between atoms: C_5  and  C_6
REMARK    7  A    between atoms: C_6  and  O_8
REMARK    8  A    between atoms: C_9  and  C_10
REMARK    9  A    between atoms: N_19  and  C_20
REMARK   10  A    between atoms: C_20  and  C_21
REMARK                            x       y       z     vdW  Elec       q    Type
REMARK                         _______ _______ _______ _____ _____    ______ ____
ROOT
ATOM      1  C   UNL     1       3.888   5.541  17.618  0.00  0.00    +0.000 A 
ATOM      2  N   UNL     1       3.706   4.301  17.211  0.00  0.00    +0.000 NA
ATOM      3  C   UNL     1       2.699   3.787  17.977  0.00  0.00    +0.000 A 
ATOM      4  C   UNL     1       2.068   2.543  17.878  0.00  0.00    +0.000 A 
ATOM      5  C   UNL     1       1.028   2.271  18.762  0.00  0.00    +0.000 A 
ATOM      6  F   UNL     1       0.396   1.091  18.681  0.00  0.00    +0.000 F 
ATOM      7  C   UNL     1       0.621   3.192  19.723  0.00  0.00    +0.000 A 
ATOM      8  C   UNL     1       1.256   4.434  19.845  0.00  0.00    +0.000 A 
ATOM      9  C   UNL     1       2.299   4.700  18.946  0.00  0.00    +0.000 A 
ATOM     10  N   UNL     1       3.134   5.786  18.751  0.00  0.00    +0.000 N 
ENDROOT
BRANCH   1  11
ATOM     11  C   UNL     1       4.780   6.533  16.922  0.00  0.00    +0.000 C 
BRANCH  11  13
ATOM     12  C   UNL     1       6.953   5.420  16.165  0.00  0.00    +0.000 C 
ATOM     13  C   UNL     1       6.303   6.340  17.216  0.00  0.00    +0.000 C 
ATOM     14  C   UNL     1       6.536   5.713  18.612  0.00  0.00    +0.000 C 
BRANCH  13  15
ATOM     15  C   UNL     1       7.031   7.721  17.233  0.00  0.00    +0.000 C 
BRANCH  15  16
ATOM     16  C   UNL     1       8.205   7.858  18.200  0.00  0.00    +0.000 C 
BRANCH  16  17
ATOM     17  C   UNL     1       8.539   9.315  18.413  0.00  0.00    +0.000 C 
ATOM     18  O   UNL     1       8.184  10.205  17.660  0.00  0.00    +0.000 OA
BRANCH  17  19
ATOM     19  O   UNL     1       9.245   9.546  19.542  0.00  0.00    +0.000 OA
ATOM     20  H   UNL     1       9.417  10.488  19.722  0.00  0.00    +0.000 HD
ENDBRANCH  17  19
ENDBRANCH  16  17
ENDBRANCH  15  16
ENDBRANCH  13  15
ENDBRANCH  11  13
ENDBRANCH   1  11
BRANCH  10  21
ATOM     21  C   UNL     1       3.240   6.935  19.644  0.00  0.00    +0.000 C 
BRANCH  21  22
ATOM     22  C   UNL     1       2.174   7.981  19.413  0.00  0.00    +0.000 A 
ATOM     23  C   UNL     1       1.364   8.464  20.453  0.00  0.00    +0.000 A 
ATOM     24  C   UNL     1       0.352   9.391  20.198  0.00  0.00    +0.000 A 
ATOM     25  C   UNL     1       0.158   9.867  18.907  0.00  0.00    +0.000 A 
ATOM     26 CL   UNL     1      -1.133  10.956  18.581  0.00  0.00    +0.000 Cl
ATOM     27  C   UNL     1       0.996   9.456  17.874  0.00  0.00    +0.000 A 
ATOM     28  C   UNL     1       2.006   8.523  18.128  0.00  0.00    +0.000 A 
ENDBRANCH  21  22
ENDBRANCH  10  21
TORSDOF 8
ENDMDL
MODEL 6
REMARK VINA RESULT:      -7.0      2.359      3.020
REMARK  Name = 
REMARK  10 active torsions:
REMARK  status: ('A' for Active; 'I' for Inactive)
REMARK    1  A    between atoms: C_1  and  C_2
REMARK    2  A    between atoms: C_2  and  C_3
REMARK    3  A    between atoms: C_2  and  C_4
REMARK    4  A    between atoms: C_2  and  C_9
REMARK    5  A    between atoms: C_4  and  C_5
REMARK    6  A    between atoms: C_5  and  C_6
REMARK    7  A    between atoms: C_6  and  O_8
REMARK    8  A    between atoms: C_9  and  C_10
REMARK    9  A    between atoms: N_19  and  C_20
REMARK   10  A    between atoms: C_20  and  C_21
REMARK                            x       y       z     vdW  Elec       q    Type
REMARK                         _______ _______ _______ _____ _____    ______ ____
ROOT
ATOM      1  C   UNL     1       4.052   5.863  18.601  0.00  0.00    +0.000 A 
ATOM      2  N   UNL     1       4.461   5.020  19.529  0.00  0.00    +0.000 NA
ATOM      3  C   UNL     1       3.344   4.393  20.001  0.00  0.00    +0.000 A 
ATOM      4  C   UNL     1       3.248   3.346  20.923  0.00  0.00    +0.000 A 
ATOM      5  C   UNL     1       1.980   2.850  21.211  0.00  0.00    +0.000 A 
ATOM      6  F   UNL     1       1.859   1.837  22.081  0.00  0.00    +0.000 F 
ATOM      7  C   UNL     1       0.834   3.369  20.614  0.00  0.00    +0.000 A 
ATOM      8  C   UNL     1       0.915   4.429  19.703  0.00  0.00    +0.000 A 
ATOM      9  C   UNL     1       2.197   4.919  19.416  0.00  0.00    +0.000 A 
ATOM     10  N   UNL     1       2.671   5.919  18.585  0.00  0.00    +0.000 N 
ENDROOT
BRANCH   1  11
ATOM     11  C   UNL     1       4.975   6.629  17.693  0.00  0.00    +0.000 C 
BRANCH  11  13
ATOM     12  C   UNL     1       5.357   6.293  15.188  0.00  0.00    +0.000 C 
ATOM     13  C   UNL     1       5.666   5.754  16.597  0.00  0.00    +0.000 C 
ATOM     14  C   UNL     1       5.190   4.282  16.663  0.00  0.00    +0.000 C 
BRANCH  13  15
ATOM     15  C   UNL     1       7.210   5.720  16.825  0.00  0.00    +0.000 C 
BRANCH  15  16
ATOM     16  C   UNL     1       7.707   4.860  17.985  0.00  0.00    +0.000 C 
BRANCH  16  17
ATOM     17  C   UNL     1       7.939   5.716  19.207  0.00  0.00    +0.000 C 
ATOM     18  O   UNL     1       7.762   5.324  20.348  0.00  0.00    +0.000 OA
BRANCH  17  19
ATOM     19  O   UNL     1       8.397   6.954  18.919  0.00  0.00    +0.000 OA
ATOM     20  H   UNL     1       7.707   7.641  18.891  0.00  0.00    +0.000 HD
ENDBRANCH  17  19
ENDBRANCH  16  17
ENDBRANCH  15  16
ENDBRANCH  13  15
ENDBRANCH  11  13
ENDBRANCH   1  11
BRANCH  10  21
ATOM     21  C   UNL     1       1.840   6.898  17.891  0.00  0.00    +0.000 C 
BRANCH  21  22
ATOM     22  C   UNL     1       1.574   8.146  18.701  0.00  0.00    +0.000 A 
ATOM     23  C   UNL     1       1.505   8.127  20.103  0.00  0.00    +0.000 A 
ATOM     24  C   UNL     1       1.204   9.286  20.819  0.00  0.00    +0.000 A 
ATOM     25  C   UNL     1       0.999  10.484  20.144  0.00  0.00    +0.000 A 
ATOM     26 CL   UNL     1       0.560  11.896  21.021  0.00  0.00    +0.000 Cl
ATOM     27  C   UNL     1       1.133  10.541  18.760  0.00  0.00    +0.000 A 
ATOM     28  C   UNL     1       1.428   9.378  18.041  0.00  0.00    +0.000 A 
ENDBRANCH  21  22
ENDBRANCH  10  21
TORSDOF 8
ENDMDL
MODEL 7
REMARK VINA RESULT:      -7.0      2.243      2.904
REMARK  Name = 
REMARK  10 active torsions:
REMARK  status: ('A' for Active; 'I' for Inactive)
REMARK    1  A    between atoms: C_1  and  C_2
REMARK    2  A    between atoms: C_2  and  C_3
REMARK    3  A    between atoms: C_2  and  C_4
REMARK    4  A    between atoms: C_2  and  C_9
REMARK    5  A    between atoms: C_4  and  C_5
REMARK    6  A    between atoms: C_5  and  C_6
REMARK    7  A    between atoms: C_6  and  O_8
REMARK    8  A    between atoms: C_9  and  C_10
REMARK    9  A    between atoms: N_19  and  C_20
REMARK   10  A    between atoms: C_20  and  C_21
REMARK                            x       y       z     vdW  Elec       q    Type
REMARK                         _______ _______ _______ _____ _____    ______ ____
ROOT
ATOM      1  C   UNL     1       4.062   5.464  17.722  0.00  0.00    +0.000 A 
ATOM      2  N   UNL     1       3.893   4.220  17.320  0.00  0.00    +0.000 NA
ATOM      3  C   UNL     1       2.829   3.728  18.020  0.00  0.00    +0.000 A 
ATOM      4  C   UNL     1       2.190   2.490  17.892  0.00  0.00    +0.000 A 
ATOM      5  C   UNL     1       1.088   2.242  18.705  0.00  0.00    +0.000 A 
ATOM      6  F   UNL     1       0.448   1.070  18.594  0.00  0.00    +0.000 F 
ATOM      7  C   UNL     1       0.626   3.181  19.623  0.00  0.00    +0.000 A 
ATOM      8  C   UNL     1       1.267   4.417  19.773  0.00  0.00    +0.000 A 
ATOM      9  C   UNL     1       2.374   4.659  18.947  0.00  0.00    +0.000 A 
ATOM     10  N   UNL     1       3.234   5.732  18.797  0.00  0.00    +0.000 N 
ENDROOT
BRANCH   1  11
ATOM     11  C   UNL     1       5.012   6.436  17.078  0.00  0.00    +0.000 C 
BRANCH  11  13
ATOM     12  C   UNL     1       7.045   5.082  16.322  0.00  0.00    +0.000 C 
ATOM     13  C   UNL     1       6.522   6.119  17.334  0.00  0.00    +0.000 C 
ATOM     14  C   UNL     1       6.750   5.557  18.758  0.00  0.00    +0.000 C 
BRANCH  13  15
ATOM     15  C   UNL     1       7.372   7.425  17.242  0.00  0.00    +0.000 C 
BRANCH  15  16
ATOM     16  C   UNL     1       8.247   7.752  18.450  0.00  0.00    +0.000 C 
BRANCH  16  17
ATOM     17  C   UNL     1       8.527   9.235  18.506  0.00  0.00    +0.000 C 
ATOM     18  O   UNL     1       9.313   9.744  19.286  0.00  0.00    +0.000 OA
BRANCH  17  19
ATOM     19  O   UNL     1       7.846   9.947  17.581  0.00  0.00    +0.000 OA
ATOM     20  H   UNL     1       7.543  10.819  17.889  0.00  0.00    +0.000 HD
ENDBRANCH  17  19
ENDBRANCH  16  17
ENDBRANCH  15  16
ENDBRANCH  13  15
ENDBRANCH  11  13
ENDBRANCH   1  11
BRANCH  10  21
ATOM     21  C   UNL     1       3.292   6.892  19.681  0.00  0.00    +0.000 C 
BRANCH  21  22
ATOM     22  C   UNL     1       2.248   7.941  19.372  0.00  0.00    +0.000 A 
ATOM     23  C   UNL     1       2.035   8.422  18.070  0.00  0.00    +0.000 A 
ATOM     24  C   UNL     1       1.100   9.429  17.825  0.00  0.00    +0.000 A 
ATOM     25  C   UNL     1       0.347   9.944  18.874  0.00  0.00    +0.000 A 
ATOM     26 CL   UNL     1      -0.754  11.233  18.583  0.00  0.00    +0.000 Cl
ATOM     27  C   UNL     1       0.491   9.432  20.159  0.00  0.00    +0.000 A 
ATOM     28  C   UNL     1       1.431   8.427  20.406  0.00  0.00    +0.000 A 
ENDBRANCH  21  22
ENDBRANCH  10  21
TORSDOF 8
ENDMDL
MODEL 8
REMARK VINA RESULT:      -6.9      2.345      2.854
REMARK  Name = 
REMARK  10 active torsions:
REMARK  status: ('A' for Active; 'I' for Inactive)
REMARK    1  A    between atoms: C_1  and  C_2
REMARK    2  A    between atoms: C_2  and  C_3
REMARK    3  A    between atoms: C_2  and  C_4
REMARK    4  A    between atoms: C_2  and  C_9
REMARK    5  A    between atoms: C_4  and  C_5
REMARK    6  A    between atoms: C_5  and  C_6
REMARK    7  A    between atoms: C_6  and  O_8
REMARK    8  A    between atoms: C_9  and  C_10
REMARK    9  A    between atoms: N_19  and  C_20
REMARK   10  A    between atoms: C_20  and  C_21
REMARK                            x       y       z     vdW  Elec       q    Type
REMARK                         _______ _______ _______ _____ _____    ______ ____
ROOT
ATOM      1  C   UNL     1       4.123   5.683  18.584  0.00  0.00    +0.000 A 
ATOM      2  N   UNL     1       4.492   4.874  19.558  0.00  0.00    +0.000 NA
ATOM      3  C   UNL     1       3.351   4.287  20.025  0.00  0.00    +0.000 A 
ATOM      4  C   UNL     1       3.212   3.282  20.987  0.00  0.00    +0.000 A 
ATOM      5  C   UNL     1       1.928   2.819  21.261  0.00  0.00    +0.000 A 
ATOM      6  F   UNL     1       1.766   1.847  22.169  0.00  0.00    +0.000 F 
ATOM      7  C   UNL     1       0.808   3.331  20.611  0.00  0.00    +0.000 A 
ATOM      8  C   UNL     1       0.933   4.350  19.658  0.00  0.00    +0.000 A 
ATOM      9  C   UNL     1       2.230   4.806  19.386  0.00  0.00    +0.000 A 
ATOM     10  N   UNL     1       2.744   5.762  18.527  0.00  0.00    +0.000 N 
ENDROOT
BRANCH   1  11
ATOM     11  C   UNL     1       5.084   6.395  17.671  0.00  0.00    +0.000 C 
BRANCH  11  13
ATOM     12  C   UNL     1       5.399   6.046  15.158  0.00  0.00    +0.000 C 
ATOM     13  C   UNL     1       5.704   5.485  16.560  0.00  0.00    +0.000 C 
ATOM     14  C   UNL     1       5.145   4.043  16.632  0.00  0.00    +0.000 C 
BRANCH  13  15
ATOM     15  C   UNL     1       7.247   5.363  16.759  0.00  0.00    +0.000 C 
BRANCH  15  16
ATOM     16  C   UNL     1       7.715   4.751  18.078  0.00  0.00    +0.000 C 
BRANCH  16  17
ATOM     17  C   UNL     1       8.019   5.839  19.080  0.00  0.00    +0.000 C 
ATOM     18  O   UNL     1       8.266   6.992  18.770  0.00  0.00    +0.000 OA
BRANCH  17  19
ATOM     19  O   UNL     1       7.957   5.422  20.364  0.00  0.00    +0.000 OA
ATOM     20  H   UNL     1       8.428   4.587  20.538  0.00  0.00    +0.000 HD
ENDBRANCH  17  19
ENDBRANCH  16  17
ENDBRANCH  15  16
ENDBRANCH  13  15
ENDBRANCH  11  13
ENDBRANCH   1  11
BRANCH  10  21
ATOM     21  C   UNL     1       1.950   6.724  17.770  0.00  0.00    +0.000 C 
BRANCH  21  22
ATOM     22  C   UNL     1       1.632   7.985  18.541  0.00  0.00    +0.000 A 
ATOM     23  C   UNL     1       1.400   9.213  17.901  0.00  0.00    +0.000 A 
ATOM     24  C   UNL     1       1.161  10.371  18.644  0.00  0.00    +0.000 A 
ATOM     25  C   UNL     1       1.122  10.308  20.032  0.00  0.00    +0.000 A 
ATOM     26 CL   UNL     1       0.897  11.746  20.947  0.00  0.00    +0.000 Cl
ATOM     27  C   UNL     1       1.279   9.088  20.683  0.00  0.00    +0.000 A 
ATOM     28  C   UNL     1       1.523   7.929  19.941  0.00  0.00    +0.000 A 
ENDBRANCH  21  22
ENDBRANCH  10  21
TORSDOF 8
ENDMDL
MODEL 9
REMARK VINA RESULT:      -6.8      2.462      3.166
REMARK  Name = 
REMARK  10 active torsions:
REMARK  status: ('A' for Active; 'I' for Inactive)
REMARK    1  A    between atoms: C_1  and  C_2
REMARK    2  A    between atoms: C_2  and  C_3
REMARK    3  A    between atoms: C_2  and  C_4
REMARK    4  A    between atoms: C_2  and  C_9
REMARK    5  A    between atoms: C_4  and  C_5
REMARK    6  A    between atoms: C_5  and  C_6
REMARK    7  A    between atoms: C_6  and  O_8
REMARK    8  A    between atoms: C_9  and  C_10
REMARK    9  A    between atoms: N_19  and  C_20
REMARK   10  A    between atoms: C_20  and  C_21
REMARK                            x       y       z     vdW  Elec       q    Type
REMARK                         _______ _______ _______ _____ _____    ______ ____
ROOT
ATOM      1  C   UNL     1       4.810   5.300  18.922  0.00  0.00    +0.000 A 
ATOM      2  N   UNL     1       4.697   4.150  19.556  0.00  0.00    +0.000 NA
ATOM      3  C   UNL     1       3.455   3.667  19.261  0.00  0.00    +0.000 A 
ATOM      4  C   UNL     1       2.885   2.438  19.608  0.00  0.00    +0.000 A 
ATOM      5  C   UNL     1       1.602   2.164  19.145  0.00  0.00    +0.000 A 
ATOM      6  F   UNL     1       1.037   0.987  19.451  0.00  0.00    +0.000 F 
ATOM      7  C   UNL     1       0.892   3.073  18.365  0.00  0.00    +0.000 A 
ATOM      8  C   UNL     1       1.444   4.314  18.026  0.00  0.00    +0.000 A 
ATOM      9  C   UNL     1       2.739   4.579  18.493  0.00  0.00    +0.000 A 
ATOM     10  N   UNL     1       3.598   5.655  18.360  0.00  0.00    +0.000 N 
ENDROOT
BRANCH   1  11
ATOM     11  C   UNL     1       6.090   6.086  18.824  0.00  0.00    +0.000 C 
BRANCH  11  13
ATOM     12  C   UNL     1       5.996   5.555  16.325  0.00  0.00    +0.000 C 
ATOM     13  C   UNL     1       6.922   5.796  17.533  0.00  0.00    +0.000 C 
ATOM     14  C   UNL     1       7.821   4.547  17.706  0.00  0.00    +0.000 C 
BRANCH  13  15
ATOM     15  C   UNL     1       7.887   6.986  17.232  0.00  0.00    +0.000 C 
BRANCH  15  16
ATOM     16  C   UNL     1       7.343   8.387  17.505  0.00  0.00    +0.000 C 
BRANCH  16  17
ATOM     17  C   UNL     1       8.366   9.208  18.252  0.00  0.00    +0.000 C 
ATOM     18  O   UNL     1       8.612  10.374  17.996  0.00  0.00    +0.000 OA
BRANCH  17  19
ATOM     19  O   UNL     1       8.964   8.536  19.261  0.00  0.00    +0.000 OA
ATOM     20  H   UNL     1       9.624   9.055  19.754  0.00  0.00    +0.000 HD
ENDBRANCH  17  19
ENDBRANCH  16  17
ENDBRANCH  15  16
ENDBRANCH  13  15
ENDBRANCH  11  13
ENDBRANCH   1  11
BRANCH  10  21
ATOM     21  C   UNL     1       3.238   6.953  17.798  0.00  0.00    +0.000 C 
BRANCH  21  22
ATOM     22  C   UNL     1       2.374   7.790  18.714  0.00  0.00    +0.000 A 
ATOM     23  C   UNL     1       2.179   7.460  20.065  0.00  0.00    +0.000 A 
ATOM     24  C   UNL     1       1.334   8.224  20.871  0.00  0.00    +0.000 A 
ATOM     25  C   UNL     1       0.698   9.342  20.344  0.00  0.00    +0.000 A 
ATOM     26 CL   UNL     1      -0.398  10.241  21.318  0.00  0.00    +0.000 Cl
ATOM     27  C   UNL     1       0.932   9.728  19.028  0.00  0.00    +0.000 A 
ATOM     28  C   UNL     1       1.775   8.960  18.218  0.00  0.00    +0.000 A 
ENDBRANCH  21  22
ENDBRANCH  10  21
TORSDOF 8
ENDMDL
