MODEL 1
REMARK VINA RESULT:      -7.2      0.000      0.000
REMARK  Name = 
REMARK  12 active torsions:
REMARK  status: ('A' for Active; 'I' for Inactive)
REMARK    1  A    between atoms: C_1  and  N_2
REMARK    2  A    between atoms: C_3  and  C_5
REMARK    3  A    between atoms: C_5  and  C_6
REMARK    4  A    between atoms: C_6  and  S_7
REMARK    5  A    between atoms: S_7  and  C_10
REMARK    6  A    between atoms: C_10  and  C_11
REMARK    7  A    between atoms: C_11  and  C_12
REMARK    8  A    between atoms: C_12  and  C_13
REMARK    9  A    between atoms: N_15  and  C_16
REMARK   10  A    between atoms: C_17  and  C_18
REMARK   11  A    between atoms: C_20  and  C_21
REMARK   12  A    between atoms: C_23  and  C_24
REMARK                            x       y       z     vdW  Elec       q    Type
REMARK                         _______ _______ _______ _____ _____    ______ ____
ROOT
ATOM      1  C   UNL     1       8.650   8.461  18.709  0.00  0.00    +0.000 C 
ENDROOT
BRANCH   1   2
ATOM      2  C   UNL     1       8.938   9.949  18.847  0.00  0.00    +0.000 C 
ATOM      3  O   UNL     1       8.505  10.741  18.013  0.00  0.00    +0.000 OA
ATOM      4  N   UNL     1       9.719  10.283  19.933  0.00  0.00    +0.000 N 
ATOM      5  H   UNL     1      10.396   9.587  20.209  0.00  0.00    +0.000 HD
BRANCH   4   6
ATOM      6  C   UNL     1      10.028  11.598  20.326  0.00  0.00    +0.000 A 
ATOM      7  C   UNL     1       9.341  12.265  21.359  0.00  0.00    +0.000 A 
ATOM      8  C   UNL     1       8.314  11.617  22.250  0.00  0.00    +0.000 C 
ATOM      9  C   UNL     1       9.652  13.611  21.612  0.00  0.00    +0.000 A 
ATOM     10  C   UNL     1      10.660  14.266  20.901  0.00  0.00    +0.000 A 
ATOM     11  C   UNL     1      10.949  15.720  21.131  0.00  0.00    +0.000 C 
ATOM     12  C   UNL     1      11.400  13.559  19.951  0.00  0.00    +0.000 A 
ATOM     13  C   UNL     1      11.103  12.223  19.660  0.00  0.00    +0.000 A 
ATOM     14  C   UNL     1      11.900  11.517  18.592  0.00  0.00    +0.000 C 
ENDBRANCH   4   6
ENDBRANCH   1   2
BRANCH   1  15
ATOM     15  C   UNL     1       7.743   8.026  17.557  0.00  0.00    +0.000 C 
BRANCH  15  16
ATOM     16  C   UNL     1       7.073   6.673  17.787  0.00  0.00    +0.000 C 
BRANCH  16  17
ATOM     17  S   UNL     1       6.545   5.958  16.238  0.00  0.00    +0.000 S 
ATOM     18  O   UNL     1       7.714   5.892  15.382  0.00  0.00    +0.000 OA
ATOM     19  O   UNL     1       5.346   6.649  15.819  0.00  0.00    +0.000 OA
BRANCH  17  20
ATOM     20  C   UNL     1       6.105   4.285  16.672  0.00  0.00    +0.000 C 
BRANCH  20  21
ATOM     21  C   UNL     1       4.610   4.047  16.575  0.00  0.00    +0.000 C 
BRANCH  21  24
ATOM     22  C   UNL     1       4.157   2.423  19.944  0.00  0.00    +0.000 C 
ATOM     23  N   UNL     1       4.603   2.787  18.624  0.00  0.00    +0.000 N 
ATOM     24  C   UNL     1       4.008   3.818  17.938  0.00  0.00    +0.000 C 
ATOM     25  O   UNL     1       3.059   4.468  18.371  0.00  0.00    +0.000 OA
ATOM     26  H   UNL     1       5.401   2.305  18.225  0.00  0.00    +0.000 HD
ENDBRANCH  21  24
ENDBRANCH  20  21
ENDBRANCH  17  20
ENDBRANCH  16  17
ENDBRANCH  15  16
ENDBRANCH   1  15
TORSDOF 8
ENDMDL
MODEL 2
REMARK VINA RESULT:      -7.2      3.182      9.902
REMARK  Name = 
REMARK  12 active torsions:
REMARK  status: ('A' for Active; 'I' for Inactive)
REMARK    1  A    between atoms: C_1  and  N_2
REMARK    2  A    between atoms: C_3  and  C_5
REMARK    3  A    between atoms: C_5  and  C_6
REMARK    4  A    between atoms: C_6  and  S_7
REMARK    5  A    between atoms: S_7  and  C_10
REMARK    6  A    between atoms: C_10  and  C_11
REMARK    7  A    between atoms: C_11  and  C_12
REMARK    8  A    between atoms: C_12  and  C_13
REMARK    9  A    between atoms: N_15  and  C_16
REMARK   10  A    between atoms: C_17  and  C_18
REMARK   11  A    between atoms: C_20  and  C_21
REMARK   12  A    between atoms: C_23  and  C_24
REMARK                            x       y       z     vdW  Elec       q    Type
REMARK                         _______ _______ _______ _____ _____    ______ ____
ROOT
ATOM      1  C   UNL     1       8.062   8.545  17.458  0.00  0.00    +0.000 C 
ENDROOT
BRANCH   1   2
ATOM      2  C   UNL     1       7.234   7.301  17.748  0.00  0.00    +0.000 C 
ATOM      3  O   UNL     1       7.492   6.603  18.724  0.00  0.00    +0.000 OA
ATOM      4  N   UNL     1       6.240   7.047  16.827  0.00  0.00    +0.000 N 
ATOM      5  H   UNL     1       6.442   7.338  15.881  0.00  0.00    +0.000 HD
BRANCH   4   6
ATOM      6  C   UNL     1       5.284   6.022  16.939  0.00  0.00    +0.000 A 
ATOM      7  C   UNL     1       4.001   6.233  17.481  0.00  0.00    +0.000 A 
ATOM      8  C   UNL     1       3.454   7.584  17.863  0.00  0.00    +0.000 C 
ATOM      9  C   UNL     1       3.151   5.127  17.646  0.00  0.00    +0.000 A 
ATOM     10  C   UNL     1       3.537   3.851  17.231  0.00  0.00    +0.000 A 
ATOM     11  C   UNL     1       2.654   2.661  17.462  0.00  0.00    +0.000 C 
ATOM     12  C   UNL     1       4.772   3.678  16.602  0.00  0.00    +0.000 A 
ATOM     13  C   UNL     1       5.651   4.755  16.440  0.00  0.00    +0.000 A 
ATOM     14  C   UNL     1       6.992   4.508  15.797  0.00  0.00    +0.000 C 
ENDBRANCH   4   6
ENDBRANCH   1   2
BRANCH   1  15
ATOM     15  C   UNL     1       8.711   9.249  18.650  0.00  0.00    +0.000 C 
BRANCH  15  16
ATOM     16  C   UNL     1       9.545  10.467  18.257  0.00  0.00    +0.000 C 
BRANCH  16  17
ATOM     17  S   UNL     1       9.930  11.458  19.692  0.00  0.00    +0.000 S 
ATOM     18  O   UNL     1      11.359  11.711  19.661  0.00  0.00    +0.000 OA
ATOM     19  O   UNL     1       9.302  10.840  20.838  0.00  0.00    +0.000 OA
BRANCH  17  20
ATOM     20  C   UNL     1       9.108  13.008  19.369  0.00  0.00    +0.000 C 
BRANCH  20  21
ATOM     21  C   UNL     1       9.381  13.514  17.965  0.00  0.00    +0.000 C 
BRANCH  21  24
ATOM     22  C   UNL     1      10.425  17.035  17.128  0.00  0.00    +0.000 C 
ATOM     23  N   UNL     1       9.736  15.774  17.224  0.00  0.00    +0.000 N 
ATOM     24  C   UNL     1      10.239  14.753  17.992  0.00  0.00    +0.000 C 
ATOM     25  O   UNL     1      11.298  14.822  18.613  0.00  0.00    +0.000 OA
ATOM     26  H   UNL     1       8.843  15.666  16.756  0.00  0.00    +0.000 HD
ENDBRANCH  21  24
ENDBRANCH  20  21
ENDBRANCH  17  20
ENDBRANCH  16  17
ENDBRANCH  15  16
ENDBRANCH   1  15
TORSDOF 8
ENDMDL
MODEL 3
REMARK VINA RESULT:      -7.1      5.880      8.621
REMARK  Name = 
REMARK  12 active torsions:
REMARK  status: ('A' for Active; 'I' for Inactive)
REMARK    1  A    between atoms: C_1  and  N_2
REMARK    2  A    between atoms: C_3  and  C_5
REMARK    3  A    between atoms: C_5  and  C_6
REMARK    4  A    between atoms: C_6  and  S_7
REMARK    5  A    between atoms: S_7  and  C_10
REMARK    6  A    between atoms: C_10  and  C_11
REMARK    7  A    between atoms: C_11  and  C_12
REMARK    8  A    between atoms: C_12  and  C_13
REMARK    9  A    between atoms: N_15  and  C_16
REMARK   10  A    between atoms: C_17  and  C_18
REMARK   11  A    between atoms: C_20  and  C_21
REMARK   12  A    between atoms: C_23  and  C_24
REMARK                            x       y       z     vdW  Elec       q    Type
REMARK                         _______ _______ _______ _____ _____    ______ ____
ROOT
ATOM      1  C   UNL     1       6.004   6.729  17.309  0.00  0.00    +0.000 C 
ENDROOT
BRANCH   1   2
ATOM      2  C   UNL     1       5.384   5.828  18.369  0.00  0.00    +0.000 C 
ATOM      3  O   UNL     1       6.069   5.409  19.298  0.00  0.00    +0.000 OA
ATOM      4  N   UNL     1       4.055   5.530  18.160  0.00  0.00    +0.000 N 
ATOM      5  H   UNL     1       3.769   5.480  17.193  0.00  0.00    +0.000 HD
BRANCH   4   6
ATOM      6  C   UNL     1       3.244   4.808  19.054  0.00  0.00    +0.000 A 
ATOM      7  C   UNL     1       2.458   5.431  20.043  0.00  0.00    +0.000 A 
ATOM      8  C   UNL     1       2.279   6.921  20.168  0.00  0.00    +0.000 C 
ATOM      9  C   UNL     1       1.761   4.622  20.955  0.00  0.00    +0.000 A 
ATOM     10  C   UNL     1       1.790   3.229  20.856  0.00  0.00    +0.000 A 
ATOM     11  C   UNL     1       1.094   2.366  21.866  0.00  0.00    +0.000 C 
ATOM     12  C   UNL     1       2.491   2.631  19.807  0.00  0.00    +0.000 A 
ATOM     13  C   UNL     1       3.213   3.406  18.893  0.00  0.00    +0.000 A 
ATOM     14  C   UNL     1       3.993   2.711  17.805  0.00  0.00    +0.000 C 
ENDBRANCH   4   6
ENDBRANCH   1   2
BRANCH   1  15
ATOM     15  C   UNL     1       5.298   6.810  15.956  0.00  0.00    +0.000 C 
BRANCH  15  16
ATOM     16  C   UNL     1       5.209   5.466  15.235  0.00  0.00    +0.000 C 
BRANCH  16  17
ATOM     17  S   UNL     1       6.832   4.746  15.041  0.00  0.00    +0.000 S 
ATOM     18  O   UNL     1       7.045   3.869  16.177  0.00  0.00    +0.000 OA
ATOM     19  O   UNL     1       7.756   5.814  14.734  0.00  0.00    +0.000 OA
BRANCH  17  20
ATOM     20  C   UNL     1       6.667   3.714  13.595  0.00  0.00    +0.000 C 
BRANCH  20  21
ATOM     21  C   UNL     1       5.315   3.882  12.928  0.00  0.00    +0.000 C 
BRANCH  21  24
ATOM     22  C   UNL     1       6.060   0.821  10.864  0.00  0.00    +0.000 C 
ATOM     23  N   UNL     1       6.092   1.889  11.829  0.00  0.00    +0.000 N 
ATOM     24  C   UNL     1       5.109   2.848  11.851  0.00  0.00    +0.000 C 
ATOM     25  O   UNL     1       4.173   2.886  11.055  0.00  0.00    +0.000 OA
ATOM     26  H   UNL     1       6.824   1.896  12.530  0.00  0.00    +0.000 HD
ENDBRANCH  21  24
ENDBRANCH  20  21
ENDBRANCH  17  20
ENDBRANCH  16  17
ENDBRANCH  15  16
ENDBRANCH   1  15
TORSDOF 8
ENDMDL
MODEL 4
REMARK VINA RESULT:      -7.0      3.337      7.932
REMARK  Name = 
REMARK  12 active torsions:
REMARK  status: ('A' for Active; 'I' for Inactive)
REMARK    1  A    between atoms: C_1  and  N_2
REMARK    2  A    between atoms: C_3  and  C_5
REMARK    3  A    between atoms: C_5  and  C_6
REMARK    4  A    between atoms: C_6  and  S_7
REMARK    5  A    between atoms: S_7  and  C_10
REMARK    6  A    between atoms: C_10  and  C_11
REMARK    7  A    between atoms: C_11  and  C_12
REMARK    8  A    between atoms: C_12  and  C_13
REMARK    9  A    between atoms: N_15  and  C_16
REMARK   10  A    between atoms: C_17  and  C_18
REMARK   11  A    between atoms: C_20  and  C_21
REMARK   12  A    between atoms: C_23  and  C_24
REMARK                            x       y       z     vdW  Elec       q    Type
REMARK                         _______ _______ _______ _____ _____    ______ ____
ROOT
ATOM      1  C   UNL     1       4.090   3.831  16.809  0.00  0.00    +0.000 C 
ENDROOT
BRANCH   1   2
ATOM      2  C   UNL     1       3.840   4.646  18.071  0.00  0.00    +0.000 C 
ATOM      3  O   UNL     1       4.693   4.692  18.954  0.00  0.00    +0.000 OA
ATOM      4  N   UNL     1       2.608   5.263  18.119  0.00  0.00    +0.000 N 
ATOM      5  H   UNL     1       1.860   4.773  17.651  0.00  0.00    +0.000 HD
BRANCH   4   6
ATOM      6  C   UNL     1       2.194   6.150  19.129  0.00  0.00    +0.000 A 
ATOM      7  C   UNL     1       1.719   5.712  20.381  0.00  0.00    +0.000 A 
ATOM      8  C   UNL     1       1.734   4.276  20.837  0.00  0.00    +0.000 C 
ATOM      9  C   UNL     1       1.232   6.668  21.287  0.00  0.00    +0.000 A 
ATOM     10  C   UNL     1       1.269   8.032  20.988  0.00  0.00    +0.000 A 
ATOM     11  C   UNL     1       0.694   9.047  21.931  0.00  0.00    +0.000 C 
ATOM     12  C   UNL     1       1.838   8.456  19.785  0.00  0.00    +0.000 A 
ATOM     13  C   UNL     1       2.314   7.529  18.851  0.00  0.00    +0.000 A 
ATOM     14  C   UNL     1       2.876   8.034  17.546  0.00  0.00    +0.000 C 
ENDBRANCH   4   6
ENDBRANCH   1   2
BRANCH   1  15
ATOM     15  C   UNL     1       5.522   3.362  16.550  0.00  0.00    +0.000 C 
BRANCH  15  16
ATOM     16  C   UNL     1       6.023   3.687  15.144  0.00  0.00    +0.000 C 
BRANCH  16  17
ATOM     17  S   UNL     1       6.603   5.374  15.056  0.00  0.00    +0.000 S 
ATOM     18  O   UNL     1       5.435   6.214  14.874  0.00  0.00    +0.000 OA
ATOM     19  O   UNL     1       7.708   5.414  14.125  0.00  0.00    +0.000 OA
BRANCH  17  20
ATOM     20  C   UNL     1       7.237   5.690  16.693  0.00  0.00    +0.000 C 
BRANCH  20  21
ATOM     21  C   UNL     1       6.682   6.974  17.279  0.00  0.00    +0.000 C 
BRANCH  21  24
ATOM     22  C   UNL     1       8.831   9.905  18.270  0.00  0.00    +0.000 C 
ATOM     23  N   UNL     1       7.865   9.035  17.650  0.00  0.00    +0.000 N 
ATOM     24  C   UNL     1       7.743   7.725  18.043  0.00  0.00    +0.000 C 
ATOM     25  O   UNL     1       8.446   7.201  18.905  0.00  0.00    +0.000 OA
ATOM     26  H   UNL     1       7.237   9.417  16.952  0.00  0.00    +0.000 HD
ENDBRANCH  21  24
ENDBRANCH  20  21
ENDBRANCH  17  20
ENDBRANCH  16  17
ENDBRANCH  15  16
ENDBRANCH   1  15
TORSDOF 8
ENDMDL
MODEL 5
REMARK VINA RESULT:      -7.0      2.909      9.835
REMARK  Name = 
REMARK  12 active torsions:
REMARK  status: ('A' for Active; 'I' for Inactive)
REMARK    1  A    between atoms: C_1  and  N_2
REMARK    2  A    between atoms: C_3  and  C_5
REMARK    3  A    between atoms: C_5  and  C_6
REMARK    4  A    between atoms: C_6  and  S_7
REMARK    5  A    between atoms: S_7  and  C_10
REMARK    6  A    between atoms: C_10  and  C_11
REMARK    7  A    between atoms: C_11  and  C_12
REMARK    8  A    between atoms: C_12  and  C_13
REMARK    9  A    between atoms: N_15  and  C_16
REMARK   10  A    between atoms: C_17  and  C_18
REMARK   11  A    between atoms: C_20  and  C_21
REMARK   12  A    between atoms: C_23  and  C_24
REMARK                            x       y       z     vdW  Elec       q    Type
REMARK                         _______ _______ _______ _____ _____    ______ ____
ROOT
ATOM      1  C   UNL     1       7.959   7.802  17.374  0.00  0.00    +0.000 C 
ENDROOT
BRANCH   1   2
ATOM      2  C   UNL     1       6.900   6.796  17.805  0.00  0.00    +0.000 C 
ATOM      3  O   UNL     1       7.052   6.146  18.836  0.00  0.00    +0.000 OA
ATOM      4  N   UNL     1       5.833   6.683  16.941  0.00  0.00    +0.000 N 
ATOM      5  H   UNL     1       6.046   6.839  15.966  0.00  0.00    +0.000 HD
BRANCH   4   6
ATOM      6  C   UNL     1       4.687   5.901  17.178  0.00  0.00    +0.000 A 
ATOM      7  C   UNL     1       3.505   6.430  17.731  0.00  0.00    +0.000 A 
ATOM      8  C   UNL     1       3.275   7.895  17.995  0.00  0.00    +0.000 C 
ATOM      9  C   UNL     1       2.450   5.552  18.026  0.00  0.00    +0.000 A 
ATOM     10  C   UNL     1       2.536   4.191  17.725  0.00  0.00    +0.000 A 
ATOM     11  C   UNL     1       1.434   3.244  18.095  0.00  0.00    +0.000 C 
ATOM     12  C   UNL     1       3.676   3.701  17.083  0.00  0.00    +0.000 A 
ATOM     13  C   UNL     1       4.754   4.545  16.793  0.00  0.00    +0.000 A 
ATOM     14  C   UNL     1       5.981   3.960  16.141  0.00  0.00    +0.000 C 
ENDBRANCH   4   6
ENDBRANCH   1   2
BRANCH   1  15
ATOM     15  C   UNL     1       7.760   9.256  17.803  0.00  0.00    +0.000 C 
BRANCH  15  16
ATOM     16  C   UNL     1       8.877   9.782  18.704  0.00  0.00    +0.000 C 
BRANCH  16  17
ATOM     17  S   UNL     1       9.373  11.422  18.202  0.00  0.00    +0.000 S 
ATOM     18  O   UNL     1       8.265  11.990  17.456  0.00  0.00    +0.000 OA
ATOM     19  O   UNL     1      10.695  11.327  17.624  0.00  0.00    +0.000 OA
BRANCH  17  20
ATOM     20  C   UNL     1       9.496  12.317  19.739  0.00  0.00    +0.000 C 
BRANCH  20  21
ATOM     21  C   UNL     1       9.119  13.778  19.578  0.00  0.00    +0.000 C 
BRANCH  21  24
ATOM     22  C   UNL     1      10.747  15.776  16.831  0.00  0.00    +0.000 C 
ATOM     23  N   UNL     1       9.831  15.019  17.646  0.00  0.00    +0.000 N 
ATOM     24  C   UNL     1      10.211  14.546  18.878  0.00  0.00    +0.000 C 
ATOM     25  O   UNL     1      11.334  14.700  19.353  0.00  0.00    +0.000 OA
ATOM     26  H   UNL     1       8.881  14.884  17.319  0.00  0.00    +0.000 HD
ENDBRANCH  21  24
ENDBRANCH  20  21
ENDBRANCH  17  20
ENDBRANCH  16  17
ENDBRANCH  15  16
ENDBRANCH   1  15
TORSDOF 8
ENDMDL
MODEL 6
REMARK VINA RESULT:      -7.0      6.936      8.412
REMARK  Name = 
REMARK  12 active torsions:
REMARK  status: ('A' for Active; 'I' for Inactive)
REMARK    1  A    between atoms: C_1  and  N_2
REMARK    2  A    between atoms: C_3  and  C_5
REMARK    3  A    between atoms: C_5  and  C_6
REMARK    4  A    between atoms: C_6  and  S_7
REMARK    5  A    between atoms: S_7  and  C_10
REMARK    6  A    between atoms: C_10  and  C_11
REMARK    7  A    between atoms: C_11  and  C_12
REMARK    8  A    between atoms: C_12  and  C_13
REMARK    9  A    between atoms: N_15  and  C_16
REMARK   10  A    between atoms: C_17  and  C_18
REMARK   11  A    between atoms: C_20  and  C_21
REMARK   12  A    between atoms: C_23  and  C_24
REMARK                            x       y       z     vdW  Elec       q    Type
REMARK                         _______ _______ _______ _____ _____    ______ ____
ROOT
ATOM      1  C   UNL     1       1.496   9.138  17.721  0.00  0.00    +0.000 C 
ENDROOT
BRANCH   1   2
ATOM      2  C   UNL     1       1.075  10.197  18.731  0.00  0.00    +0.000 C 
ATOM      3  O   UNL     1       1.694  11.255  18.808  0.00  0.00    +0.000 OA
ATOM      4  N   UNL     1       0.004   9.841  19.521  0.00  0.00    +0.000 N 
ATOM      5  H   UNL     1      -0.073   8.855  19.728  0.00  0.00    +0.000 HD
BRANCH   4   6
ATOM      6  C   UNL     1      -0.629  10.690  20.447  0.00  0.00    +0.000 A 
ATOM      7  C   UNL     1      -1.518  11.711  20.060  0.00  0.00    +0.000 A 
ATOM      8  C   UNL     1      -2.006  11.921  18.650  0.00  0.00    +0.000 C 
ATOM      9  C   UNL     1      -2.021  12.574  21.048  0.00  0.00    +0.000 A 
ATOM     10  C   UNL     1      -1.701  12.395  22.395  0.00  0.00    +0.000 A 
ATOM     11  C   UNL     1      -2.190  13.352  23.441  0.00  0.00    +0.000 C 
ATOM     12  C   UNL     1      -0.899  11.315  22.773  0.00  0.00    +0.000 A 
ATOM     13  C   UNL     1      -0.365  10.448  21.812  0.00  0.00    +0.000 A 
ATOM     14  C   UNL     1       0.533   9.325  22.266  0.00  0.00    +0.000 C 
ENDBRANCH   4   6
ENDBRANCH   1   2
BRANCH   1  15
ATOM     15  C   UNL     1       2.657   8.222  18.108  0.00  0.00    +0.000 C 
BRANCH  15  16
ATOM     16  C   UNL     1       2.265   6.748  18.195  0.00  0.00    +0.000 C 
BRANCH  16  17
ATOM     17  S   UNL     1       3.716   5.707  18.177  0.00  0.00    +0.000 S 
ATOM     18  O   UNL     1       4.164   5.582  19.552  0.00  0.00    +0.000 OA
ATOM     19  O   UNL     1       4.599   6.196  17.142  0.00  0.00    +0.000 OA
BRANCH  17  20
ATOM     20  C   UNL     1       3.090   4.115  17.674  0.00  0.00    +0.000 C 
BRANCH  20  21
ATOM     21  C   UNL     1       1.576   4.050  17.748  0.00  0.00    +0.000 C 
BRANCH  21  24
ATOM     22  C   UNL     1       1.440   2.792  21.296  0.00  0.00    +0.000 C 
ATOM     23  N   UNL     1       1.745   3.510  20.086  0.00  0.00    +0.000 N 
ATOM     24  C   UNL     1       1.126   3.191  18.902  0.00  0.00    +0.000 C 
ATOM     25  O   UNL     1       0.313   2.276  18.781  0.00  0.00    +0.000 OA
ATOM     26  H   UNL     1       2.387   4.294  20.129  0.00  0.00    +0.000 HD
ENDBRANCH  21  24
ENDBRANCH  20  21
ENDBRANCH  17  20
ENDBRANCH  16  17
ENDBRANCH  15  16
ENDBRANCH   1  15
TORSDOF 8
ENDMDL
MODEL 7
REMARK VINA RESULT:      -7.0      2.865      9.876
REMARK  Name = 
REMARK  12 active torsions:
REMARK  status: ('A' for Active; 'I' for Inactive)
REMARK    1  A    between atoms: C_1  and  N_2
REMARK    2  A    between atoms: C_3  and  C_5
REMARK    3  A    between atoms: C_5  and  C_6
REMARK    4  A    between atoms: C_6  and  S_7
REMARK    5  A    between atoms: S_7  and  C_10
REMARK    6  A    between atoms: C_10  and  C_11
REMARK    7  A    between atoms: C_11  and  C_12
REMARK    8  A    between atoms: C_12  and  C_13
REMARK    9  A    between atoms: N_15  and  C_16
REMARK   10  A    between atoms: C_17  and  C_18
REMARK   11  A    between atoms: C_20  and  C_21
REMARK   12  A    between atoms: C_23  and  C_24
REMARK                            x       y       z     vdW  Elec       q    Type
REMARK                         _______ _______ _______ _____ _____    ______ ____
ROOT
ATOM      1  C   UNL     1       8.135   8.393  17.267  0.00  0.00    +0.000 C 
ENDROOT
BRANCH   1   2
ATOM      2  C   UNL     1       7.268   7.191  17.616  0.00  0.00    +0.000 C 
ATOM      3  O   UNL     1       7.526   6.513  18.607  0.00  0.00    +0.000 OA
ATOM      4  N   UNL     1       6.241   6.948  16.730  0.00  0.00    +0.000 N 
ATOM      5  H   UNL     1       6.429   7.202  15.770  0.00  0.00    +0.000 HD
BRANCH   4   6
ATOM      6  C   UNL     1       5.250   5.964  16.898  0.00  0.00    +0.000 A 
ATOM      7  C   UNL     1       4.001   6.234  17.490  0.00  0.00    +0.000 A 
ATOM      8  C   UNL     1       3.526   7.612  17.873  0.00  0.00    +0.000 C 
ATOM      9  C   UNL     1       3.116   5.166  17.708  0.00  0.00    +0.000 A 
ATOM     10  C   UNL     1       3.432   3.870  17.297  0.00  0.00    +0.000 A 
ATOM     11  C   UNL     1       2.513   2.720  17.585  0.00  0.00    +0.000 C 
ATOM     12  C   UNL     1       4.632   3.638  16.620  0.00  0.00    +0.000 A 
ATOM     13  C   UNL     1       5.545   4.676  16.404  0.00  0.00    +0.000 A 
ATOM     14  C   UNL     1       6.847   4.366  15.709  0.00  0.00    +0.000 C 
ENDBRANCH   4   6
ENDBRANCH   1   2
BRANCH   1  15
ATOM     15  C   UNL     1       7.958   9.655  18.112  0.00  0.00    +0.000 C 
BRANCH  15  16
ATOM     16  C   UNL     1       9.142   9.939  19.035  0.00  0.00    +0.000 C 
BRANCH  16  17
ATOM     17  S   UNL     1       9.908  11.497  18.617  0.00  0.00    +0.000 S 
ATOM     18  O   UNL     1       8.850  12.488  18.563  0.00  0.00    +0.000 OA
ATOM     19  O   UNL     1      10.782  11.271  17.488  0.00  0.00    +0.000 OA
BRANCH  17  20
ATOM     20  C   UNL     1      10.916  11.869  20.041  0.00  0.00    +0.000 C 
BRANCH  20  21
ATOM     21  C   UNL     1      12.160  12.653  19.667  0.00  0.00    +0.000 C 
BRANCH  21  24
ATOM     22  C   UNL     1      11.279  15.538  17.411  0.00  0.00    +0.000 C 
ATOM     23  N   UNL     1      11.615  14.245  17.949  0.00  0.00    +0.000 N 
ATOM     24  C   UNL     1      11.816  14.073  19.297  0.00  0.00    +0.000 C 
ATOM     25  O   UNL     1      11.757  14.986  20.118  0.00  0.00    +0.000 OA
ATOM     26  H   UNL     1      11.650  13.448  17.324  0.00  0.00    +0.000 HD
ENDBRANCH  21  24
ENDBRANCH  20  21
ENDBRANCH  17  20
ENDBRANCH  16  17
ENDBRANCH  15  16
ENDBRANCH   1  15
TORSDOF 8
ENDMDL
MODEL 8
REMARK VINA RESULT:      -6.9      0.998      2.040
REMARK  Name = 
REMARK  12 active torsions:
REMARK  status: ('A' for Active; 'I' for Inactive)
REMARK    1  A    between atoms: C_1  and  N_2
REMARK    2  A    between atoms: C_3  and  C_5
REMARK    3  A    between atoms: C_5  and  C_6
REMARK    4  A    between atoms: C_6  and  S_7
REMARK    5  A    between atoms: S_7  and  C_10
REMARK    6  A    between atoms: C_10  and  C_11
REMARK    7  A    between atoms: C_11  and  C_12
REMARK    8  A    between atoms: C_12  and  C_13
REMARK    9  A    between atoms: N_15  and  C_16
REMARK   10  A    between atoms: C_17  and  C_18
REMARK   11  A    between atoms: C_20  and  C_21
REMARK   12  A    between atoms: C_23  and  C_24
REMARK                            x       y       z     vdW  Elec       q    Type
REMARK                         _______ _______ _______ _____ _____    ______ ____
ROOT
ATOM      1  C   UNL     1       8.517   8.456  18.625  0.00  0.00    +0.000 C 
ENDROOT
BRANCH   1   2
ATOM      2  C   UNL     1       8.781   9.956  18.651  0.00  0.00    +0.000 C 
ATOM      3  O   UNL     1       8.198  10.697  17.864  0.00  0.00    +0.000 OA
ATOM      4  N   UNL     1       9.715  10.357  19.582  0.00  0.00    +0.000 N 
ATOM      5  H   UNL     1      10.447   9.689  19.775  0.00  0.00    +0.000 HD
BRANCH   4   6
ATOM      6  C   UNL     1      10.045  11.695  19.863  0.00  0.00    +0.000 A 
ATOM      7  C   UNL     1      10.876  12.467  19.029  0.00  0.00    +0.000 A 
ATOM      8  C   UNL     1      11.385  12.012  17.685  0.00  0.00    +0.000 C 
ATOM      9  C   UNL     1      11.231  13.760  19.445  0.00  0.00    +0.000 A 
ATOM     10  C   UNL     1      10.729  14.302  20.629  0.00  0.00    +0.000 A 
ATOM     11  C   UNL     1      11.156  15.659  21.102  0.00  0.00    +0.000 C 
ATOM     12  C   UNL     1       9.824  13.561  21.393  0.00  0.00    +0.000 A 
ATOM     13  C   UNL     1       9.464  12.261  21.018  0.00  0.00    +0.000 A 
ATOM     14  C   UNL     1       8.520  11.485  21.901  0.00  0.00    +0.000 C 
ENDBRANCH   4   6
ENDBRANCH   1   2
BRANCH   1  15
ATOM     15  C   UNL     1       7.812   7.890  17.392  0.00  0.00    +0.000 C 
BRANCH  15  16
ATOM     16  C   UNL     1       6.747   6.847  17.727  0.00  0.00    +0.000 C 
BRANCH  16  17
ATOM     17  S   UNL     1       6.270   5.940  16.264  0.00  0.00    +0.000 S 
ATOM     18  O   UNL     1       7.494   5.570  15.578  0.00  0.00    +0.000 OA
ATOM     19  O   UNL     1       5.234   6.694  15.595  0.00  0.00    +0.000 OA
BRANCH  17  20
ATOM     20  C   UNL     1       5.547   4.443  16.910  0.00  0.00    +0.000 C 
BRANCH  20  21
ATOM     21  C   UNL     1       5.470   4.457  18.425  0.00  0.00    +0.000 C 
BRANCH  21  24
ATOM     22  C   UNL     1       2.489   2.157  18.534  0.00  0.00    +0.000 C 
ATOM     23  N   UNL     1       3.448   3.176  18.193  0.00  0.00    +0.000 N 
ATOM     24  C   UNL     1       4.593   3.342  18.934  0.00  0.00    +0.000 C 
ATOM     25  O   UNL     1       4.863   2.677  19.932  0.00  0.00    +0.000 OA
ATOM     26  H   UNL     1       3.294   3.737  17.363  0.00  0.00    +0.000 HD
ENDBRANCH  21  24
ENDBRANCH  20  21
ENDBRANCH  17  20
ENDBRANCH  16  17
ENDBRANCH  15  16
ENDBRANCH   1  15
TORSDOF 8
ENDMDL
MODEL 9
REMARK VINA RESULT:      -6.8      5.962      7.998
REMARK  Name = 
REMARK  12 active torsions:
REMARK  status: ('A' for Active; 'I' for Inactive)
REMARK    1  A    between atoms: C_1  and  N_2
REMARK    2  A    between atoms: C_3  and  C_5
REMARK    3  A    between atoms: C_5  and  C_6
REMARK    4  A    between atoms: C_6  and  S_7
REMARK    5  A    between atoms: S_7  and  C_10
REMARK    6  A    between atoms: C_10  and  C_11
REMARK    7  A    between atoms: C_11  and  C_12
REMARK    8  A    between atoms: C_12  and  C_13
REMARK    9  A    between atoms: N_15  and  C_16
REMARK   10  A    between atoms: C_17  and  C_18
REMARK   11  A    between atoms: C_20  and  C_21
REMARK   12  A    between atoms: C_23  and  C_24
REMARK                            x       y       z     vdW  Elec       q    Type
REMARK                         _______ _______ _______ _____ _____    ______ ____
ROOT
ATOM      1  C   UNL     1       2.170   8.257  17.873  0.00  0.00    +0.000 C 
ENDROOT
BRANCH   1   2
ATOM      2  C   UNL     1       1.234   9.302  18.464  0.00  0.00    +0.000 C 
ATOM      3  O   UNL     1       0.279   9.712  17.810  0.00  0.00    +0.000 OA
ATOM      4  N   UNL     1       1.579   9.730  19.727  0.00  0.00    +0.000 N 
ATOM      5  H   UNL     1       2.568   9.736  19.928  0.00  0.00    +0.000 HD
BRANCH   4   6
ATOM      6  C   UNL     1       0.811  10.607  20.515  0.00  0.00    +0.000 A 
ATOM      7  C   UNL     1       0.877  12.008  20.382  0.00  0.00    +0.000 A 
ATOM      8  C   UNL     1       1.652  12.720  19.304  0.00  0.00    +0.000 C 
ATOM      9  C   UNL     1       0.150  12.803  21.282  0.00  0.00    +0.000 A 
ATOM     10  C   UNL     1      -0.672  12.229  22.254  0.00  0.00    +0.000 A 
ATOM     11  C   UNL     1      -1.401  13.078  23.252  0.00  0.00    +0.000 C 
ATOM     12  C   UNL     1      -0.806  10.839  22.305  0.00  0.00    +0.000 A 
ATOM     13  C   UNL     1      -0.080  10.016  21.436  0.00  0.00    +0.000 A 
ATOM     14  C   UNL     1      -0.223   8.521  21.562  0.00  0.00    +0.000 C 
ENDBRANCH   4   6
ENDBRANCH   1   2
BRANCH   1  15
ATOM     15  C   UNL     1       2.623   7.121  18.791  0.00  0.00    +0.000 C 
BRANCH  15  16
ATOM     16  C   UNL     1       2.537   5.742  18.139  0.00  0.00    +0.000 C 
BRANCH  16  17
ATOM     17  S   UNL     1       3.965   4.755  18.561  0.00  0.00    +0.000 S 
ATOM     18  O   UNL     1       3.471   3.483  19.053  0.00  0.00    +0.000 OA
ATOM     19  O   UNL     1       4.849   5.575  19.358  0.00  0.00    +0.000 OA
BRANCH  17  20
ATOM     20  C   UNL     1       4.749   4.450  16.988  0.00  0.00    +0.000 C 
BRANCH  20  21
ATOM     21  C   UNL     1       5.005   5.734  16.222  0.00  0.00    +0.000 C 
BRANCH  21  24
ATOM     22  C   UNL     1       7.770   7.922  17.549  0.00  0.00    +0.000 C 
ATOM     23  N   UNL     1       6.498   7.321  17.241  0.00  0.00    +0.000 N 
ATOM     24  C   UNL     1       6.418   6.216  16.429  0.00  0.00    +0.000 C 
ATOM     25  O   UNL     1       7.392   5.690  15.894  0.00  0.00    +0.000 OA
ATOM     26  H   UNL     1       5.661   7.694  17.676  0.00  0.00    +0.000 HD
ENDBRANCH  21  24
ENDBRANCH  20  21
ENDBRANCH  17  20
ENDBRANCH  16  17
ENDBRANCH  15  16
ENDBRANCH   1  15
TORSDOF 8
ENDMDL
