MODEL 1
REMARK VINA RESULT:      -7.5      0.000      0.000
REMARK  Name = 
REMARK  5 active torsions:
REMARK  status: ('A' for Active; 'I' for Inactive)
REMARK    1  A    between atoms: C_1  and  O_2
REMARK    2  A    between atoms: O_2  and  C_3
REMARK    3  A    between atoms: C_6  and  C_7
REMARK    4  A    between atoms: C_18  and  O_19
REMARK    5  A    between atoms: O_19  and  C_20
REMARK                            x       y       z     vdW  Elec       q    Type
REMARK                         _______ _______ _______ _____ _____    ______ ____
ROOT
ATOM      1  C   UNL     1       2.985   6.955  18.500  0.00  0.00    +0.000 A 
ATOM      2  N   UNL     1       2.434   8.052  18.003  0.00  0.00    +0.000 NA
ATOM      3  C   UNL     1       1.724   8.619  19.029  0.00  0.00    +0.000 A 
ATOM      4  C   UNL     1       1.006   9.823  19.069  0.00  0.00    +0.000 A 
ATOM      5  C   UNL     1       0.403  10.206  20.274  0.00  0.00    +0.000 A 
ATOM      6  C   UNL     1       0.507   9.398  21.410  0.00  0.00    +0.000 A 
ATOM      7 CL   UNL     1      -0.227   9.911  22.883  0.00  0.00    +0.000 Cl
ATOM      8  C   UNL     1       1.202   8.186  21.387  0.00  0.00    +0.000 A 
ATOM      9  C   UNL     1       1.799   7.837  20.174  0.00  0.00    +0.000 A 
ATOM     10  N   UNL     1       2.560   6.768  19.797  0.00  0.00    +0.000 N 
ATOM     11  H   UNL     1       2.839   6.009  20.402  0.00  0.00    +0.000 HD
ENDROOT
BRANCH   1  15
ATOM     12  C   UNL     1       5.766   4.595  16.250  0.00  0.00    +0.000 A 
ATOM     13  C   UNL     1       4.521   4.076  16.630  0.00  0.00    +0.000 A 
ATOM     14  C   UNL     1       3.629   4.829  17.396  0.00  0.00    +0.000 A 
ATOM     15  C   UNL     1       3.978   6.109  17.833  0.00  0.00    +0.000 A 
ATOM     16  C   UNL     1       5.267   6.573  17.547  0.00  0.00    +0.000 A 
ATOM     17  C   UNL     1       6.165   5.837  16.759  0.00  0.00    +0.000 A 
BRANCH  12  19
ATOM     18  C   UNL     1       6.278   3.981  14.024  0.00  0.00    +0.000 C 
ATOM     19  O   UNL     1       6.600   3.904  15.414  0.00  0.00    +0.000 OA
ENDBRANCH  12  19
BRANCH  17  20
ATOM     20  O   UNL     1       7.337   6.519  16.584  0.00  0.00    +0.000 OA
ATOM     21  C   UNL     1       7.646   7.604  17.442  0.00  0.00    +0.000 C 
ENDBRANCH  17  20
ENDBRANCH   1  15
TORSDOF 3
ENDMDL
MODEL 2
REMARK VINA RESULT:      -7.5      4.283      4.497
REMARK  Name = 
REMARK  5 active torsions:
REMARK  status: ('A' for Active; 'I' for Inactive)
REMARK    1  A    between atoms: C_1  and  O_2
REMARK    2  A    between atoms: O_2  and  C_3
REMARK    3  A    between atoms: C_6  and  C_7
REMARK    4  A    between atoms: C_18  and  O_19
REMARK    5  A    between atoms: O_19  and  C_20
REMARK                            x       y       z     vdW  Elec       q    Type
REMARK                         _______ _______ _______ _____ _____    ______ ____
ROOT
ATOM      1  C   UNL     1       4.320   3.565  17.348  0.00  0.00    +0.000 A 
ATOM      2  N   UNL     1       3.024   3.539  17.078  0.00  0.00    +0.000 NA
ATOM      3  C   UNL     1       2.397   3.228  18.257  0.00  0.00    +0.000 A 
ATOM      4  C   UNL     1       1.028   3.137  18.552  0.00  0.00    +0.000 A 
ATOM      5  C   UNL     1       0.643   2.850  19.868  0.00  0.00    +0.000 A 
ATOM      6  C   UNL     1       1.603   2.650  20.863  0.00  0.00    +0.000 A 
ATOM      7 CL   UNL     1       1.093   2.321  22.477  0.00  0.00    +0.000 Cl
ATOM      8  C   UNL     1       2.971   2.718  20.588  0.00  0.00    +0.000 A 
ATOM      9  C   UNL     1       3.323   3.015  19.269  0.00  0.00    +0.000 A 
ATOM     10  N   UNL     1       4.531   3.185  18.655  0.00  0.00    +0.000 N 
ATOM     11  H   UNL     1       5.430   3.128  19.112  0.00  0.00    +0.000 HD
ENDROOT
BRANCH   1  15
ATOM     12  C   UNL     1       7.190   5.115  14.568  0.00  0.00    +0.000 A 
ATOM     13  C   UNL     1       6.435   3.973  14.265  0.00  0.00    +0.000 A 
ATOM     14  C   UNL     1       5.527   3.444  15.184  0.00  0.00    +0.000 A 
ATOM     15  C   UNL     1       5.380   4.023  16.447  0.00  0.00    +0.000 A 
ATOM     16  C   UNL     1       6.220   5.091  16.782  0.00  0.00    +0.000 A 
ATOM     17  C   UNL     1       7.120   5.648  15.861  0.00  0.00    +0.000 A 
BRANCH  12  19
ATOM     18  C   UNL     1       7.787   5.281  12.285  0.00  0.00    +0.000 C 
ATOM     19  O   UNL     1       8.003   5.698  13.635  0.00  0.00    +0.000 OA
ENDBRANCH  12  19
BRANCH  17  20
ATOM     20  O   UNL     1       7.791   6.706  16.409  0.00  0.00    +0.000 OA
ATOM     21  C   UNL     1       7.257   7.354  17.551  0.00  0.00    +0.000 C 
ENDBRANCH  17  20
ENDBRANCH   1  15
TORSDOF 3
ENDMDL
MODEL 3
REMARK VINA RESULT:      -7.3      1.587      2.239
REMARK  Name = 
REMARK  5 active torsions:
REMARK  status: ('A' for Active; 'I' for Inactive)
REMARK    1  A    between atoms: C_1  and  O_2
REMARK    2  A    between atoms: O_2  and  C_3
REMARK    3  A    between atoms: C_6  and  C_7
REMARK    4  A    between atoms: C_18  and  O_19
REMARK    5  A    between atoms: O_19  and  C_20
REMARK                            x       y       z     vdW  Elec       q    Type
REMARK                         _______ _______ _______ _____ _____    ______ ____
ROOT
ATOM      1  C   UNL     1       2.478   7.430  19.071  0.00  0.00    +0.000 A 
ATOM      2  N   UNL     1       1.943   8.505  18.513  0.00  0.00    +0.000 NA
ATOM      3  C   UNL     1       1.198   9.110  19.491  0.00  0.00    +0.000 A 
ATOM      4  C   UNL     1       0.478  10.314  19.460  0.00  0.00    +0.000 A 
ATOM      5  C   UNL     1      -0.167  10.741  20.628  0.00  0.00    +0.000 A 
ATOM      6  C   UNL     1      -0.101   9.979  21.797  0.00  0.00    +0.000 A 
ATOM      7 CL   UNL     1      -0.886  10.546  23.223  0.00  0.00    +0.000 Cl
ATOM      8  C   UNL     1       0.595   8.768  21.845  0.00  0.00    +0.000 A 
ATOM      9  C   UNL     1       1.234   8.374  20.668  0.00  0.00    +0.000 A 
ATOM     10  N   UNL     1       2.008   7.292  20.358  0.00  0.00    +0.000 N 
ATOM     11  H   UNL     1       2.267   6.558  21.002  0.00  0.00    +0.000 HD
ENDROOT
BRANCH   1  15
ATOM     12  C   UNL     1       5.688   5.082  17.473  0.00  0.00    +0.000 A 
ATOM     13  C   UNL     1       5.171   6.175  16.764  0.00  0.00    +0.000 A 
ATOM     14  C   UNL     1       4.099   6.918  17.265  0.00  0.00    +0.000 A 
ATOM     15  C   UNL     1       3.494   6.561  18.472  0.00  0.00    +0.000 A 
ATOM     16  C   UNL     1       3.941   5.402  19.114  0.00  0.00    +0.000 A 
ATOM     17  C   UNL     1       5.032   4.659  18.636  0.00  0.00    +0.000 A 
BRANCH  12  19
ATOM     18  C   UNL     1       7.043   4.475  15.632  0.00  0.00    +0.000 C 
ATOM     19  O   UNL     1       6.801   4.415  17.040  0.00  0.00    +0.000 OA
ENDBRANCH  12  19
BRANCH  17  20
ATOM     20  O   UNL     1       5.304   3.602  19.459  0.00  0.00    +0.000 OA
ATOM     21  C   UNL     1       4.311   2.614  19.677  0.00  0.00    +0.000 C 
ENDBRANCH  17  20
ENDBRANCH   1  15
TORSDOF 3
ENDMDL
MODEL 4
REMARK VINA RESULT:      -7.1      1.104      2.192
REMARK  Name = 
REMARK  5 active torsions:
REMARK  status: ('A' for Active; 'I' for Inactive)
REMARK    1  A    between atoms: C_1  and  O_2
REMARK    2  A    between atoms: O_2  and  C_3
REMARK    3  A    between atoms: C_6  and  C_7
REMARK    4  A    between atoms: C_18  and  O_19
REMARK    5  A    between atoms: O_19  and  C_20
REMARK                            x       y       z     vdW  Elec       q    Type
REMARK                         _______ _______ _______ _____ _____    ______ ____
ROOT
ATOM      1  C   UNL     1       2.561   7.253  18.584  0.00  0.00    +0.000 A 
ATOM      2  N   UNL     1       2.014   8.397  18.202  0.00  0.00    +0.000 NA
ATOM      3  C   UNL     1       1.397   8.913  19.312  0.00  0.00    +0.000 A 
ATOM      4  C   UNL     1       0.726  10.132  19.483  0.00  0.00    +0.000 A 
ATOM      5  C   UNL     1       0.221  10.448  20.752  0.00  0.00    +0.000 A 
ATOM      6  C   UNL     1       0.377   9.562  21.820  0.00  0.00    +0.000 A 
ATOM      7 CL   UNL     1      -0.235   9.993  23.373  0.00  0.00    +0.000 Cl
ATOM      8  C   UNL     1       1.026   8.334  21.667  0.00  0.00    +0.000 A 
ATOM      9  C   UNL     1       1.525   8.052  20.394  0.00  0.00    +0.000 A 
ATOM     10  N   UNL     1       2.221   6.990  19.892  0.00  0.00    +0.000 N 
ATOM     11  H   UNL     1       2.514   6.182  20.424  0.00  0.00    +0.000 HD
ENDROOT
BRANCH   1  15
ATOM     12  C   UNL     1       5.448   4.833  16.540  0.00  0.00    +0.000 A 
ATOM     13  C   UNL     1       5.478   6.231  16.440  0.00  0.00    +0.000 A 
ATOM     14  C   UNL     1       4.515   7.020  17.074  0.00  0.00    +0.000 A 
ATOM     15  C   UNL     1       3.475   6.426  17.793  0.00  0.00    +0.000 A 
ATOM     16  C   UNL     1       3.388   5.030  17.790  0.00  0.00    +0.000 A 
ATOM     17  C   UNL     1       4.360   4.224  17.178  0.00  0.00    +0.000 A 
BRANCH  12  19
ATOM     18  C   UNL     1       6.492   4.015  14.582  0.00  0.00    +0.000 C 
ATOM     19  O   UNL     1       6.445   4.061  16.010  0.00  0.00    +0.000 OA
ENDBRANCH  12  19
BRANCH  17  20
ATOM     20  O   UNL     1       4.078   2.897  17.351  0.00  0.00    +0.000 OA
ATOM     21  C   UNL     1       3.550   2.453  18.588  0.00  0.00    +0.000 C 
ENDBRANCH  17  20
ENDBRANCH   1  15
TORSDOF 3
ENDMDL
MODEL 5
REMARK VINA RESULT:      -7.0      1.451      2.735
REMARK  Name = 
REMARK  5 active torsions:
REMARK  status: ('A' for Active; 'I' for Inactive)
REMARK    1  A    between atoms: C_1  and  O_2
REMARK    2  A    between atoms: O_2  and  C_3
REMARK    3  A    between atoms: C_6  and  C_7
REMARK    4  A    between atoms: C_18  and  O_19
REMARK    5  A    between atoms: O_19  and  C_20
REMARK                            x       y       z     vdW  Elec       q    Type
REMARK                         _______ _______ _______ _____ _____    ______ ____
ROOT
ATOM      1  C   UNL     1       2.649   7.345  18.621  0.00  0.00    +0.000 A 
ATOM      2  N   UNL     1       2.322   7.172  19.892  0.00  0.00    +0.000 NA
ATOM      3  C   UNL     1       1.501   8.220  20.219  0.00  0.00    +0.000 A 
ATOM      4  C   UNL     1       0.818   8.489  21.414  0.00  0.00    +0.000 A 
ATOM      5  C   UNL     1      -0.011   9.617  21.474  0.00  0.00    +0.000 A 
ATOM      6  C   UNL     1      -0.147  10.460  20.367  0.00  0.00    +0.000 A 
ATOM      7 CL   UNL     1      -1.194  11.826  20.467  0.00  0.00    +0.000 Cl
ATOM      8  C   UNL     1       0.537  10.220  19.173  0.00  0.00    +0.000 A 
ATOM      9  C   UNL     1       1.349   9.084  19.143  0.00  0.00    +0.000 A 
ATOM     10  N   UNL     1       2.125   8.533  18.163  0.00  0.00    +0.000 N 
ATOM     11  H   UNL     1       2.224   8.896  17.225  0.00  0.00    +0.000 HD
ENDROOT
BRANCH   1  15
ATOM     12  C   UNL     1       4.987   4.519  16.401  0.00  0.00    +0.000 A 
ATOM     13  C   UNL     1       5.198   5.898  16.262  0.00  0.00    +0.000 A 
ATOM     14  C   UNL     1       4.412   6.822  16.955  0.00  0.00    +0.000 A 
ATOM     15  C   UNL     1       3.368   6.387  17.776  0.00  0.00    +0.000 A 
ATOM     16  C   UNL     1       3.092   5.017  17.818  0.00  0.00    +0.000 A 
ATOM     17  C   UNL     1       3.887   4.076  17.146  0.00  0.00    +0.000 A 
BRANCH  12  19
ATOM     18  C   UNL     1       6.297   3.970  14.510  0.00  0.00    +0.000 C 
ATOM     19  O   UNL     1       5.818   3.609  15.808  0.00  0.00    +0.000 OA
ENDBRANCH  12  19
BRANCH  17  20
ATOM     20  O   UNL     1       3.443   2.804  17.378  0.00  0.00    +0.000 OA
ATOM     21  C   UNL     1       3.632   2.222  18.656  0.00  0.00    +0.000 C 
ENDBRANCH  17  20
ENDBRANCH   1  15
TORSDOF 3
ENDMDL
MODEL 6
REMARK VINA RESULT:      -7.0      0.991      1.632
REMARK  Name = 
REMARK  5 active torsions:
REMARK  status: ('A' for Active; 'I' for Inactive)
REMARK    1  A    between atoms: C_1  and  O_2
REMARK    2  A    between atoms: O_2  and  C_3
REMARK    3  A    between atoms: C_6  and  C_7
REMARK    4  A    between atoms: C_18  and  O_19
REMARK    5  A    between atoms: O_19  and  C_20
REMARK                            x       y       z     vdW  Elec       q    Type
REMARK                         _______ _______ _______ _____ _____    ______ ____
ROOT
ATOM      1  C   UNL     1       3.033   7.210  18.507  0.00  0.00    +0.000 A 
ATOM      2  N   UNL     1       2.566   7.130  19.743  0.00  0.00    +0.000 NA
ATOM      3  C   UNL     1       1.626   8.121  19.860  0.00  0.00    +0.000 A 
ATOM      4  C   UNL     1       0.781   8.437  20.933  0.00  0.00    +0.000 A 
ATOM      5  C   UNL     1      -0.140   9.482  20.777  0.00  0.00    +0.000 A 
ATOM      6  C   UNL     1      -0.208  10.198  19.579  0.00  0.00    +0.000 A 
ATOM      7 CL   UNL     1      -1.370  11.461  19.412  0.00  0.00    +0.000 Cl
ATOM      8  C   UNL     1       0.636   9.911  18.504  0.00  0.00    +0.000 A 
ATOM      9  C   UNL     1       1.537   8.860  18.688  0.00  0.00    +0.000 A 
ATOM     10  N   UNL     1       2.472   8.294  17.868  0.00  0.00    +0.000 N 
ATOM     11  H   UNL     1       2.656   8.573  16.915  0.00  0.00    +0.000 HD
ENDROOT
BRANCH   1  15
ATOM     12  C   UNL     1       5.529   4.511  16.304  0.00  0.00    +0.000 A 
ATOM     13  C   UNL     1       4.256   4.121  16.743  0.00  0.00    +0.000 A 
ATOM     14  C   UNL     1       3.456   4.986  17.494  0.00  0.00    +0.000 A 
ATOM     15  C   UNL     1       3.928   6.250  17.857  0.00  0.00    +0.000 A 
ATOM     16  C   UNL     1       5.242   6.585  17.514  0.00  0.00    +0.000 A 
ATOM     17  C   UNL     1       6.049   5.737  16.740  0.00  0.00    +0.000 A 
BRANCH  12  19
ATOM     18  C   UNL     1       6.106   3.943  14.082  0.00  0.00    +0.000 C 
ATOM     19  O   UNL     1       6.274   3.710  15.483  0.00  0.00    +0.000 OA
ENDBRANCH  12  19
BRANCH  17  20
ATOM     20  O   UNL     1       7.269   6.304  16.500  0.00  0.00    +0.000 OA
ATOM     21  C   UNL     1       7.714   7.372  17.319  0.00  0.00    +0.000 C 
ENDBRANCH  17  20
ENDBRANCH   1  15
TORSDOF 3
ENDMDL
MODEL 7
REMARK VINA RESULT:      -6.9      4.202      7.501
REMARK  Name = 
REMARK  5 active torsions:
REMARK  status: ('A' for Active; 'I' for Inactive)
REMARK    1  A    between atoms: C_1  and  O_2
REMARK    2  A    between atoms: O_2  and  C_3
REMARK    3  A    between atoms: C_6  and  C_7
REMARK    4  A    between atoms: C_18  and  O_19
REMARK    5  A    between atoms: O_19  and  C_20
REMARK                            x       y       z     vdW  Elec       q    Type
REMARK                         _______ _______ _______ _____ _____    ______ ____
ROOT
ATOM      1  C   UNL     1       2.581   7.199  18.500  0.00  0.00    +0.000 A 
ATOM      2  N   UNL     1       2.503   5.877  18.488  0.00  0.00    +0.000 NA
ATOM      3  C   UNL     1       3.492   5.446  17.643  0.00  0.00    +0.000 A 
ATOM      4  C   UNL     1       3.894   4.141  17.320  0.00  0.00    +0.000 A 
ATOM      5  C   UNL     1       4.983   3.969  16.455  0.00  0.00    +0.000 A 
ATOM      6  C   UNL     1       5.648   5.075  15.919  0.00  0.00    +0.000 A 
ATOM      7 CL   UNL     1       6.998   4.827  14.876  0.00  0.00    +0.000 Cl
ATOM      8  C   UNL     1       5.252   6.382  16.212  0.00  0.00    +0.000 A 
ATOM      9  C   UNL     1       4.170   6.521  17.084  0.00  0.00    +0.000 A 
ATOM     10  N   UNL     1       3.541   7.616  17.604  0.00  0.00    +0.000 N 
ATOM     11  H   UNL     1       3.801   8.576  17.427  0.00  0.00    +0.000 HD
ENDROOT
BRANCH   1  15
ATOM     12  C   UNL     1       0.736   9.963  21.206  0.00  0.00    +0.000 A 
ATOM     13  C   UNL     1       1.085   8.671  21.622  0.00  0.00    +0.000 A 
ATOM     14  C   UNL     1       1.652   7.756  20.732  0.00  0.00    +0.000 A 
ATOM     15  C   UNL     1       1.846   8.100  19.392  0.00  0.00    +0.000 A 
ATOM     16  C   UNL     1       1.389   9.349  18.961  0.00  0.00    +0.000 A 
ATOM     17  C   UNL     1       0.840  10.288  19.848  0.00  0.00    +0.000 A 
BRANCH  12  19
ATOM     18  C   UNL     1      -0.746  10.447  22.985  0.00  0.00    +0.000 C 
ATOM     19  O   UNL     1       0.278  10.897  22.095  0.00  0.00    +0.000 OA
ENDBRANCH  12  19
BRANCH  17  20
ATOM     20  O   UNL     1       0.512  11.445  19.197  0.00  0.00    +0.000 OA
ATOM     21  C   UNL     1       1.504  12.437  18.997  0.00  0.00    +0.000 C 
ENDBRANCH  17  20
ENDBRANCH   1  15
TORSDOF 3
ENDMDL
MODEL 8
REMARK VINA RESULT:      -6.8      1.395      1.473
REMARK  Name = 
REMARK  5 active torsions:
REMARK  status: ('A' for Active; 'I' for Inactive)
REMARK    1  A    between atoms: C_1  and  O_2
REMARK    2  A    between atoms: O_2  and  C_3
REMARK    3  A    between atoms: C_6  and  C_7
REMARK    4  A    between atoms: C_18  and  O_19
REMARK    5  A    between atoms: O_19  and  C_20
REMARK                            x       y       z     vdW  Elec       q    Type
REMARK                         _______ _______ _______ _____ _____    ______ ____
ROOT
ATOM      1  C   UNL     1       2.490   7.068  19.269  0.00  0.00    +0.000 A 
ATOM      2  N   UNL     1       2.032   8.150  18.660  0.00  0.00    +0.000 NA
ATOM      3  C   UNL     1       1.316   8.843  19.602  0.00  0.00    +0.000 A 
ATOM      4  C   UNL     1       0.676  10.087  19.511  0.00  0.00    +0.000 A 
ATOM      5  C   UNL     1       0.046  10.604  20.651  0.00  0.00    +0.000 A 
ATOM      6  C   UNL     1       0.050   9.889  21.851  0.00  0.00    +0.000 A 
ATOM      7 CL   UNL     1      -0.713  10.564  23.242  0.00  0.00    +0.000 Cl
ATOM      8  C   UNL     1       0.666   8.639  21.960  0.00  0.00    +0.000 A 
ATOM      9  C   UNL     1       1.291   8.156  20.808  0.00  0.00    +0.000 A 
ATOM     10  N   UNL     1       1.998   7.015  20.555  0.00  0.00    +0.000 N 
ATOM     11  H   UNL     1       2.201   6.293  21.232  0.00  0.00    +0.000 HD
ENDROOT
BRANCH   1  15
ATOM     12  C   UNL     1       5.446   4.529  17.485  0.00  0.00    +0.000 A 
ATOM     13  C   UNL     1       4.186   4.695  16.894  0.00  0.00    +0.000 A 
ATOM     14  C   UNL     1       3.208   5.491  17.494  0.00  0.00    +0.000 A 
ATOM     15  C   UNL     1       3.455   6.111  18.721  0.00  0.00    +0.000 A 
ATOM     16  C   UNL     1       4.671   5.847  19.358  0.00  0.00    +0.000 A 
ATOM     17  C   UNL     1       5.673   5.068  18.758  0.00  0.00    +0.000 A 
BRANCH  12  19
ATOM     18  C   UNL     1       7.005   4.479  15.707  0.00  0.00    +0.000 C 
ATOM     19  O   UNL     1       6.443   3.836  16.853  0.00  0.00    +0.000 OA
ENDBRANCH  12  19
BRANCH  17  20
ATOM     20  O   UNL     1       6.781   4.995  19.555  0.00  0.00    +0.000 OA
ATOM     21  C   UNL     1       7.890   5.834  19.286  0.00  0.00    +0.000 C 
ENDBRANCH  17  20
ENDBRANCH   1  15
TORSDOF 3
ENDMDL
MODEL 9
REMARK VINA RESULT:      -6.7      2.513      3.846
REMARK  Name = 
REMARK  5 active torsions:
REMARK  status: ('A' for Active; 'I' for Inactive)
REMARK    1  A    between atoms: C_1  and  O_2
REMARK    2  A    between atoms: O_2  and  C_3
REMARK    3  A    between atoms: C_6  and  C_7
REMARK    4  A    between atoms: C_18  and  O_19
REMARK    5  A    between atoms: O_19  and  C_20
REMARK                            x       y       z     vdW  Elec       q    Type
REMARK                         _______ _______ _______ _____ _____    ______ ____
ROOT
ATOM      1  C   UNL     1       1.544   8.109  20.382  0.00  0.00    +0.000 A 
ATOM      2  N   UNL     1       1.283   8.143  21.679  0.00  0.00    +0.000 NA
ATOM      3  C   UNL     1       0.498   9.248  21.880  0.00  0.00    +0.000 A 
ATOM      4  C   UNL     1      -0.115   9.716  23.052  0.00  0.00    +0.000 A 
ATOM      5  C   UNL     1      -0.921  10.860  22.977  0.00  0.00    +0.000 A 
ATOM      6  C   UNL     1      -1.103  11.524  21.761  0.00  0.00    +0.000 A 
ATOM      7 CL   UNL     1      -2.121  12.915  21.701  0.00  0.00    +0.000 Cl
ATOM      8  C   UNL     1      -0.488  11.086  20.586  0.00  0.00    +0.000 A 
ATOM      9  C   UNL     1       0.302   9.940  20.692  0.00  0.00    +0.000 A 
ATOM     10  N   UNL     1       1.016   9.225  19.772  0.00  0.00    +0.000 N 
ATOM     11  H   UNL     1       1.070   9.436  18.785  0.00  0.00    +0.000 HD
ENDROOT
BRANCH   1  15
ATOM     12  C   UNL     1       3.761   5.009  18.421  0.00  0.00    +0.000 A 
ATOM     13  C   UNL     1       3.579   6.259  17.815  0.00  0.00    +0.000 A 
ATOM     14  C   UNL     1       2.825   7.259  18.435  0.00  0.00    +0.000 A 
ATOM     15  C   UNL     1       2.201   7.016  19.661  0.00  0.00    +0.000 A 
ATOM     16  C   UNL     1       2.293   5.729  20.202  0.00  0.00    +0.000 A 
ATOM     17  C   UNL     1       3.066   4.723  19.603  0.00  0.00    +0.000 A 
BRANCH  12  19
ATOM     18  C   UNL     1       4.903   4.259  16.490  0.00  0.00    +0.000 C 
ATOM     19  O   UNL     1       4.583   4.064  17.870  0.00  0.00    +0.000 OA
ENDBRANCH  12  19
BRANCH  17  20
ATOM     20  O   UNL     1       3.033   3.573  20.342  0.00  0.00    +0.000 OA
ATOM     21  C   UNL     1       2.189   3.499  21.478  0.00  0.00    +0.000 C 
ENDBRANCH  17  20
ENDBRANCH   1  15
TORSDOF 3
ENDMDL
