MODEL 1
REMARK VINA RESULT:      -8.2      0.000      0.000
REMARK  Name = 
REMARK  5 active torsions:
REMARK  status: ('A' for Active; 'I' for Inactive)
REMARK    1  A    between atoms: C_1  and  C_2
REMARK    2  A    between atoms: C_5  and  C_6
REMARK    3  A    between atoms: C_7  and  C_8
REMARK    4  A    between atoms: C_8  and  N_9
REMARK    5  A    between atoms: C_12  and  C_13
REMARK                            x       y       z     vdW  Elec       q    Type
REMARK                         _______ _______ _______ _____ _____    ______ ____
ROOT
ATOM      1  N   UNL     1       3.560   5.735  17.432  0.00  0.00    +0.000 N 
ATOM      2  C   UNL     1       4.868   5.866  16.944  0.00  0.00    +0.000 A 
ATOM      3  C   UNL     1       5.212   5.141  15.821  0.00  0.00    +0.000 A 
ATOM      4  C   UNL     1       6.524   5.219  15.395  0.00  0.00    +0.000 A 
ATOM      5  N   UNL     1       7.410   6.032  15.997  0.00  0.00    +0.000 NA
ATOM      6  C   UNL     1       6.976   6.740  17.043  0.00  0.00    +0.000 A 
ATOM      7  N   UNL     1       7.878   7.582  17.656  0.00  0.00    +0.000 N 
ATOM      8  N   UNL     1       5.750   6.662  17.563  0.00  0.00    +0.000 NA
ATOM      9  H   UNL     1       2.908   6.174  16.787  0.00  0.00    +0.000 HD
ATOM     10  H   UNL     1       8.818   7.257  17.484  0.00  0.00    +0.000 HD
ATOM     11  H   UNL     1       7.606   7.734  18.616  0.00  0.00    +0.000 HD
ENDROOT
BRANCH   4  12
ATOM     12  C   UNL     1       6.985   4.422  14.207  0.00  0.00    +0.000 C 
ATOM     13  C   UNL     1       5.847   3.733  13.482  0.00  0.00    +0.000 C 
ATOM     14  C   UNL     1       6.451   3.446  12.123  0.00  0.00    +0.000 C 
ATOM     15  O   UNL     1       7.461   4.435  11.881  0.00  0.00    +0.000 OA
ATOM     16  C   UNL     1       7.618   5.223  13.075  0.00  0.00    +0.000 C 
ENDBRANCH   4  12
BRANCH   1  17
ATOM     17  C   UNL     1       3.362   6.187  18.801  0.00  0.00    +0.000 C 
BRANCH  17  24
ATOM     18  C   UNL     1       4.599   1.482  20.108  0.00  0.00    +0.000 C 
ATOM     19  C   UNL     1       3.738   2.693  20.315  0.00  0.00    +0.000 A 
ATOM     20  C   UNL     1       2.731   2.695  21.282  0.00  0.00    +0.000 A 
ATOM     21  C   UNL     1       1.932   3.825  21.466  0.00  0.00    +0.000 A 
ATOM     22  C   UNL     1       2.115   4.974  20.684  0.00  0.00    +0.000 A 
ATOM     23  C   UNL     1       1.233   6.167  20.923  0.00  0.00    +0.000 C 
ATOM     24  C   UNL     1       3.121   4.978  19.687  0.00  0.00    +0.000 A 
ATOM     25  C   UNL     1       3.932   3.838  19.530  0.00  0.00    +0.000 A 
ENDBRANCH  17  24
ENDBRANCH   1  17
TORSDOF 3
ENDMDL
MODEL 2
REMARK VINA RESULT:      -8.1      1.407      1.416
REMARK  Name = 
REMARK  5 active torsions:
REMARK  status: ('A' for Active; 'I' for Inactive)
REMARK    1  A    between atoms: C_1  and  C_2
REMARK    2  A    between atoms: C_5  and  C_6
REMARK    3  A    between atoms: C_7  and  C_8
REMARK    4  A    between atoms: C_8  and  N_9
REMARK    5  A    between atoms: C_12  and  C_13
REMARK                            x       y       z     vdW  Elec       q    Type
REMARK                         _______ _______ _______ _____ _____    ______ ____
ROOT
ATOM      1  N   UNL     1       3.864   6.597  17.315  0.00  0.00    +0.000 N 
ATOM      2  C   UNL     1       5.121   6.000  17.145  0.00  0.00    +0.000 A 
ATOM      3  C   UNL     1       5.439   5.512  15.894  0.00  0.00    +0.000 A 
ATOM      4  C   UNL     1       6.648   4.858  15.757  0.00  0.00    +0.000 A 
ATOM      5  N   UNL     1       7.518   4.772  16.779  0.00  0.00    +0.000 NA
ATOM      6  C   UNL     1       7.152   5.322  17.940  0.00  0.00    +0.000 A 
ATOM      7  N   UNL     1       8.047   5.245  18.986  0.00  0.00    +0.000 N 
ATOM      8  N   UNL     1       5.973   5.900  18.174  0.00  0.00    +0.000 NA
ATOM      9  H   UNL     1       3.835   7.483  16.818  0.00  0.00    +0.000 HD
ATOM     10  H   UNL     1       8.665   4.460  18.847  0.00  0.00    +0.000 HD
ATOM     11  H   UNL     1       7.550   5.299  19.864  0.00  0.00    +0.000 HD
ENDROOT
BRANCH   4  12
ATOM     12  C   UNL     1       7.042   4.259  14.436  0.00  0.00    +0.000 C 
ATOM     13  C   UNL     1       5.859   3.733  13.651  0.00  0.00    +0.000 C 
ATOM     14  C   UNL     1       6.407   3.662  12.241  0.00  0.00    +0.000 C 
ATOM     15  O   UNL     1       7.441   4.650  12.129  0.00  0.00    +0.000 OA
ATOM     16  C   UNL     1       7.664   5.222  13.430  0.00  0.00    +0.000 C 
ENDBRANCH   4  12
BRANCH   1  17
ATOM     17  C   UNL     1       3.425   6.732  18.696  0.00  0.00    +0.000 C 
BRANCH  17  24
ATOM     18  C   UNL     1       2.275   1.900  17.853  0.00  0.00    +0.000 C 
ATOM     19  C   UNL     1       2.078   3.150  18.659  0.00  0.00    +0.000 A 
ATOM     20  C   UNL     1       1.165   3.181  19.714  0.00  0.00    +0.000 A 
ATOM     21  C   UNL     1       0.984   4.350  20.457  0.00  0.00    +0.000 A 
ATOM     22  C   UNL     1       1.705   5.515  20.158  0.00  0.00    +0.000 A 
ATOM     23  C   UNL     1       1.480   6.745  20.988  0.00  0.00    +0.000 C 
ATOM     24  C   UNL     1       2.621   5.501  19.078  0.00  0.00    +0.000 A 
ATOM     25  C   UNL     1       2.806   4.308  18.353  0.00  0.00    +0.000 A 
ENDBRANCH  17  24
ENDBRANCH   1  17
TORSDOF 3
ENDMDL
MODEL 3
REMARK VINA RESULT:      -7.9      2.606      4.923
REMARK  Name = 
REMARK  5 active torsions:
REMARK  status: ('A' for Active; 'I' for Inactive)
REMARK    1  A    between atoms: C_1  and  C_2
REMARK    2  A    between atoms: C_5  and  C_6
REMARK    3  A    between atoms: C_7  and  C_8
REMARK    4  A    between atoms: C_8  and  N_9
REMARK    5  A    between atoms: C_12  and  C_13
REMARK                            x       y       z     vdW  Elec       q    Type
REMARK                         _______ _______ _______ _____ _____    ______ ____
ROOT
ATOM      1  N   UNL     1       3.254   6.169  19.820  0.00  0.00    +0.000 N 
ATOM      2  C   UNL     1       3.561   5.095  18.972  0.00  0.00    +0.000 A 
ATOM      3  C   UNL     1       4.685   5.201  18.178  0.00  0.00    +0.000 A 
ATOM      4  C   UNL     1       4.933   4.171  17.291  0.00  0.00    +0.000 A 
ATOM      5  N   UNL     1       4.160   3.071  17.260  0.00  0.00    +0.000 NA
ATOM      6  C   UNL     1       3.125   3.028  18.102  0.00  0.00    +0.000 A 
ATOM      7  N   UNL     1       2.338   1.897  18.080  0.00  0.00    +0.000 N 
ATOM      8  N   UNL     1       2.773   4.012  18.932  0.00  0.00    +0.000 NA
ATOM      9  H   UNL     1       3.939   6.220  20.570  0.00  0.00    +0.000 HD
ATOM     10  H   UNL     1       2.415   1.448  17.180  0.00  0.00    +0.000 HD
ATOM     11  H   UNL     1       1.411   2.121  18.412  0.00  0.00    +0.000 HD
ENDROOT
BRANCH   4  12
ATOM     12  C   UNL     1       6.113   4.238  16.363  0.00  0.00    +0.000 C 
ATOM     13  C   UNL     1       5.714   4.238  14.902  0.00  0.00    +0.000 C 
ATOM     14  C   UNL     1       6.948   4.797  14.225  0.00  0.00    +0.000 C 
ATOM     15  O   UNL     1       7.618   5.637  15.175  0.00  0.00    +0.000 OA
ATOM     16  C   UNL     1       6.951   5.509  16.443  0.00  0.00    +0.000 C 
ENDBRANCH   4  12
BRANCH   1  17
ATOM     17  C   UNL     1       1.890   6.188  20.326  0.00  0.00    +0.000 C 
BRANCH  17  24
ATOM     18  C   UNL     1      -0.153   9.846  23.123  0.00  0.00    +0.000 C 
ATOM     19  C   UNL     1       0.443   9.399  21.821  0.00  0.00    +0.000 A 
ATOM     20  C   UNL     1       0.551  10.284  20.746  0.00  0.00    +0.000 A 
ATOM     21  C   UNL     1       1.103   9.860  19.536  0.00  0.00    +0.000 A 
ATOM     22  C   UNL     1       1.552   8.543  19.369  0.00  0.00    +0.000 A 
ATOM     23  C   UNL     1       2.144   8.135  18.050  0.00  0.00    +0.000 C 
ATOM     24  C   UNL     1       1.431   7.630  20.445  0.00  0.00    +0.000 A 
ATOM     25  C   UNL     1       0.891   8.080  21.666  0.00  0.00    +0.000 A 
ENDBRANCH  17  24
ENDBRANCH   1  17
TORSDOF 3
ENDMDL
MODEL 4
REMARK VINA RESULT:      -7.8      1.539      2.897
REMARK  Name = 
REMARK  5 active torsions:
REMARK  status: ('A' for Active; 'I' for Inactive)
REMARK    1  A    between atoms: C_1  and  C_2
REMARK    2  A    between atoms: C_5  and  C_6
REMARK    3  A    between atoms: C_7  and  C_8
REMARK    4  A    between atoms: C_8  and  N_9
REMARK    5  A    between atoms: C_12  and  C_13
REMARK                            x       y       z     vdW  Elec       q    Type
REMARK                         _______ _______ _______ _____ _____    ______ ____
ROOT
ATOM      1  N   UNL     1       3.417   4.320  17.131  0.00  0.00    +0.000 N 
ATOM      2  C   UNL     1       4.798   4.413  16.903  0.00  0.00    +0.000 A 
ATOM      3  C   UNL     1       5.250   4.251  15.609  0.00  0.00    +0.000 A 
ATOM      4  C   UNL     1       6.617   4.269  15.409  0.00  0.00    +0.000 A 
ATOM      5  N   UNL     1       7.470   4.516  16.419  0.00  0.00    +0.000 NA
ATOM      6  C   UNL     1       6.942   4.716  17.629  0.00  0.00    +0.000 A 
ATOM      7  N   UNL     1       7.814   4.981  18.664  0.00  0.00    +0.000 N 
ATOM      8  N   UNL     1       5.642   4.639  17.918  0.00  0.00    +0.000 NA
ATOM      9  H   UNL     1       2.948   5.126  16.726  0.00  0.00    +0.000 HD
ATOM     10  H   UNL     1       8.723   4.602  18.447  0.00  0.00    +0.000 HD
ATOM     11  H   UNL     1       7.393   4.712  19.541  0.00  0.00    +0.000 HD
ENDROOT
BRANCH   4  12
ATOM     12  C   UNL     1       7.186   4.054  14.035  0.00  0.00    +0.000 C 
ATOM     13  C   UNL     1       6.154   3.566  13.039  0.00  0.00    +0.000 C 
ATOM     14  C   UNL     1       6.797   3.901  11.710  0.00  0.00    +0.000 C 
ATOM     15  O   UNL     1       7.668   5.020  11.921  0.00  0.00    +0.000 OA
ATOM     16  C   UNL     1       7.713   5.300  13.331  0.00  0.00    +0.000 C 
ENDBRANCH   4  12
BRANCH   1  17
ATOM     17  C   UNL     1       3.033   4.103  18.517  0.00  0.00    +0.000 C 
BRANCH  17  24
ATOM     18  C   UNL     1       2.130   9.022  17.912  0.00  0.00    +0.000 C 
ATOM     19  C   UNL     1       2.106   7.805  18.789  0.00  0.00    +0.000 A 
ATOM     20  C   UNL     1       1.667   7.890  20.112  0.00  0.00    +0.000 A 
ATOM     21  C   UNL     1       1.650   6.754  20.924  0.00  0.00    +0.000 A 
ATOM     22  C   UNL     1       2.080   5.511  20.437  0.00  0.00    +0.000 A 
ATOM     23  C   UNL     1       2.039   4.317  21.346  0.00  0.00    +0.000 C 
ATOM     24  C   UNL     1       2.545   5.416  19.102  0.00  0.00    +0.000 A 
ATOM     25  C   UNL     1       2.534   6.567  18.291  0.00  0.00    +0.000 A 
ENDBRANCH  17  24
ENDBRANCH   1  17
TORSDOF 3
ENDMDL
MODEL 5
REMARK VINA RESULT:      -7.7      1.383      1.626
REMARK  Name = 
REMARK  5 active torsions:
REMARK  status: ('A' for Active; 'I' for Inactive)
REMARK    1  A    between atoms: C_1  and  C_2
REMARK    2  A    between atoms: C_5  and  C_6
REMARK    3  A    between atoms: C_7  and  C_8
REMARK    4  A    between atoms: C_8  and  N_9
REMARK    5  A    between atoms: C_12  and  C_13
REMARK                            x       y       z     vdW  Elec       q    Type
REMARK                         _______ _______ _______ _____ _____    ______ ____
ROOT
ATOM      1  N   UNL     1       4.194   6.428  17.934  0.00  0.00    +0.000 N 
ATOM      2  C   UNL     1       5.269   5.812  17.276  0.00  0.00    +0.000 A 
ATOM      3  C   UNL     1       5.227   5.742  15.898  0.00  0.00    +0.000 A 
ATOM      4  C   UNL     1       6.252   5.065  15.267  0.00  0.00    +0.000 A 
ATOM      5  N   UNL     1       7.293   4.566  15.958  0.00  0.00    +0.000 NA
ATOM      6  C   UNL     1       7.279   4.728  17.283  0.00  0.00    +0.000 A 
ATOM      7  N   UNL     1       8.350   4.228  17.993  0.00  0.00    +0.000 N 
ATOM      8  N   UNL     1       6.291   5.299  17.973  0.00  0.00    +0.000 NA
ATOM      9  H   UNL     1       4.209   7.428  17.752  0.00  0.00    +0.000 HD
ATOM     10  H   UNL     1       8.784   3.482  17.471  0.00  0.00    +0.000 HD
ATOM     11  H   UNL     1       8.068   4.030  18.942  0.00  0.00    +0.000 HD
ENDROOT
BRANCH   4  12
ATOM     12  C   UNL     1       6.251   4.908  13.772  0.00  0.00    +0.000 C 
ATOM     13  C   UNL     1       7.629   5.062  13.162  0.00  0.00    +0.000 C 
ATOM     14  C   UNL     1       7.466   4.394  11.813  0.00  0.00    +0.000 C 
ATOM     15  O   UNL     1       6.431   3.409  11.941  0.00  0.00    +0.000 OA
ATOM     16  C   UNL     1       5.845   3.535  13.249  0.00  0.00    +0.000 C 
ENDBRANCH   4  12
BRANCH   1  17
ATOM     17  C   UNL     1       4.088   6.133  19.355  0.00  0.00    +0.000 C 
BRANCH  17  24
ATOM     18  C   UNL     1       2.497   1.412  18.611  0.00  0.00    +0.000 C 
ATOM     19  C   UNL     1       2.262   2.775  19.193  0.00  0.00    +0.000 A 
ATOM     20  C   UNL     1       1.082   3.061  19.882  0.00  0.00    +0.000 A 
ATOM     21  C   UNL     1       0.870   4.333  20.418  0.00  0.00    +0.000 A 
ATOM     22  C   UNL     1       1.825   5.348  20.271  0.00  0.00    +0.000 A 
ATOM     23  C   UNL     1       1.553   6.698  20.869  0.00  0.00    +0.000 C 
ATOM     24  C   UNL     1       3.018   5.075  19.558  0.00  0.00    +0.000 A 
ATOM     25  C   UNL     1       3.226   3.781  19.043  0.00  0.00    +0.000 A 
ENDBRANCH  17  24
ENDBRANCH   1  17
TORSDOF 3
ENDMDL
MODEL 6
REMARK VINA RESULT:      -7.7      5.744      7.993
REMARK  Name = 
REMARK  5 active torsions:
REMARK  status: ('A' for Active; 'I' for Inactive)
REMARK    1  A    between atoms: C_1  and  C_2
REMARK    2  A    between atoms: C_5  and  C_6
REMARK    3  A    between atoms: C_7  and  C_8
REMARK    4  A    between atoms: C_8  and  N_9
REMARK    5  A    between atoms: C_12  and  C_13
REMARK                            x       y       z     vdW  Elec       q    Type
REMARK                         _______ _______ _______ _____ _____    ______ ____
ROOT
ATOM      1  N   UNL     1       0.392  10.710  17.959  0.00  0.00    +0.000 N 
ATOM      2  C   UNL     1       1.001   9.661  18.663  0.00  0.00    +0.000 A 
ATOM      3  C   UNL     1       1.680   8.706  17.935  0.00  0.00    +0.000 A 
ATOM      4  C   UNL     1       2.210   7.636  18.631  0.00  0.00    +0.000 A 
ATOM      5  N   UNL     1       2.140   7.570  19.973  0.00  0.00    +0.000 NA
ATOM      6  C   UNL     1       1.512   8.567  20.602  0.00  0.00    +0.000 A 
ATOM      7  N   UNL     1       1.449   8.507  21.977  0.00  0.00    +0.000 N 
ATOM      8  N   UNL     1       0.908   9.591  19.997  0.00  0.00    +0.000 NA
ATOM      9  H   UNL     1       1.105  11.323  17.573  0.00  0.00    +0.000 HD
ATOM     10  H   UNL     1       1.533   7.548  22.279  0.00  0.00    +0.000 HD
ATOM     11  H   UNL     1       0.651   9.031  22.305  0.00  0.00    +0.000 HD
ENDROOT
BRANCH   4  12
ATOM     12  C   UNL     1       2.924   6.533  17.901  0.00  0.00    +0.000 C 
ATOM     13  C   UNL     1       4.245   6.977  17.309  0.00  0.00    +0.000 C 
ATOM     14  C   UNL     1       4.965   5.663  17.094  0.00  0.00    +0.000 C 
ATOM     15  O   UNL     1       4.458   4.729  18.057  0.00  0.00    +0.000 OA
ATOM     16  C   UNL     1       3.362   5.347  18.754  0.00  0.00    +0.000 C 
ENDBRANCH   4  12
BRANCH   1  17
ATOM     17  C   UNL     1      -0.618  11.449  18.702  0.00  0.00    +0.000 C 
BRANCH  17  24
ATOM     18  C   UNL     1      -3.178  10.028  14.602  0.00  0.00    +0.000 C 
ATOM     19  C   UNL     1      -3.176  10.630  15.977  0.00  0.00    +0.000 A 
ATOM     20  C   UNL     1      -4.361  11.086  16.556  0.00  0.00    +0.000 A 
ATOM     21  C   UNL     1      -4.351  11.648  17.834  0.00  0.00    +0.000 A 
ATOM     22  C   UNL     1      -3.157  11.774  18.559  0.00  0.00    +0.000 A 
ATOM     23  C   UNL     1      -3.198  12.380  19.932  0.00  0.00    +0.000 C 
ATOM     24  C   UNL     1      -1.945  11.332  17.974  0.00  0.00    +0.000 A 
ATOM     25  C   UNL     1      -1.977  10.748  16.693  0.00  0.00    +0.000 A 
ENDBRANCH  17  24
ENDBRANCH   1  17
TORSDOF 3
ENDMDL
MODEL 7
REMARK VINA RESULT:      -7.6      4.784      7.794
REMARK  Name = 
REMARK  5 active torsions:
REMARK  status: ('A' for Active; 'I' for Inactive)
REMARK    1  A    between atoms: C_1  and  C_2
REMARK    2  A    between atoms: C_5  and  C_6
REMARK    3  A    between atoms: C_7  and  C_8
REMARK    4  A    between atoms: C_8  and  N_9
REMARK    5  A    between atoms: C_12  and  C_13
REMARK                            x       y       z     vdW  Elec       q    Type
REMARK                         _______ _______ _______ _____ _____    ______ ____
ROOT
ATOM      1  N   UNL     1       8.644   9.479  18.152  0.00  0.00    +0.000 N 
ATOM      2  C   UNL     1       8.225   8.142  18.155  0.00  0.00    +0.000 A 
ATOM      3  C   UNL     1       7.498   7.692  17.071  0.00  0.00    +0.000 A 
ATOM      4  C   UNL     1       7.024   6.395  17.120  0.00  0.00    +0.000 A 
ATOM      5  N   UNL     1       7.328   5.576  18.143  0.00  0.00    +0.000 NA
ATOM      6  C   UNL     1       8.083   6.078  19.123  0.00  0.00    +0.000 A 
ATOM      7  N   UNL     1       8.405   5.237  20.167  0.00  0.00    +0.000 N 
ATOM      8  N   UNL     1       8.513   7.339  19.188  0.00  0.00    +0.000 NA
ATOM      9  H   UNL     1       9.366   9.611  17.448  0.00  0.00    +0.000 HD
ATOM     10  H   UNL     1       7.714   4.505  20.239  0.00  0.00    +0.000 HD
ATOM     11  H   UNL     1       8.596   5.781  20.996  0.00  0.00    +0.000 HD
ENDROOT
BRANCH   4  12
ATOM     12  C   UNL     1       6.187   5.850  15.997  0.00  0.00    +0.000 C 
ATOM     13  C   UNL     1       6.970   4.960  15.056  0.00  0.00    +0.000 C 
ATOM     14  C   UNL     1       5.878   4.172  14.364  0.00  0.00    +0.000 C 
ATOM     15  O   UNL     1       4.763   4.098  15.262  0.00  0.00    +0.000 OA
ATOM     16  C   UNL     1       5.049   4.921  16.408  0.00  0.00    +0.000 C 
ENDBRANCH   4  12
BRANCH   1  17
ATOM     17  C   UNL     1       9.046  10.004  19.449  0.00  0.00    +0.000 C 
BRANCH  17  24
ATOM     18  C   UNL     1      11.485  13.201  16.414  0.00  0.00    +0.000 C 
ATOM     19  C   UNL     1      10.887  12.901  17.757  0.00  0.00    +0.000 A 
ATOM     20  C   UNL     1      10.959  13.833  18.794  0.00  0.00    +0.000 A 
ATOM     21  C   UNL     1      10.403  13.545  20.041  0.00  0.00    +0.000 A 
ATOM     22  C   UNL     1       9.771  12.317  20.285  0.00  0.00    +0.000 A 
ATOM     23  C   UNL     1       9.183  12.055  21.642  0.00  0.00    +0.000 C 
ATOM     24  C   UNL     1       9.708  11.356  19.247  0.00  0.00    +0.000 A 
ATOM     25  C   UNL     1      10.255  11.672  17.988  0.00  0.00    +0.000 A 
ENDBRANCH  17  24
ENDBRANCH   1  17
TORSDOF 3
ENDMDL
MODEL 8
REMARK VINA RESULT:      -7.6      3.998      6.115
REMARK  Name = 
REMARK  5 active torsions:
REMARK  status: ('A' for Active; 'I' for Inactive)
REMARK    1  A    between atoms: C_1  and  C_2
REMARK    2  A    between atoms: C_5  and  C_6
REMARK    3  A    between atoms: C_7  and  C_8
REMARK    4  A    between atoms: C_8  and  N_9
REMARK    5  A    between atoms: C_12  and  C_13
REMARK                            x       y       z     vdW  Elec       q    Type
REMARK                         _______ _______ _______ _____ _____    ______ ____
ROOT
ATOM      1  N   UNL     1       2.408   8.672  17.607  0.00  0.00    +0.000 N 
ATOM      2  C   UNL     1       2.885   7.477  18.165  0.00  0.00    +0.000 A 
ATOM      3  C   UNL     1       3.902   6.819  17.504  0.00  0.00    +0.000 A 
ATOM      4  C   UNL     1       4.311   5.604  18.021  0.00  0.00    +0.000 A 
ATOM      5  N   UNL     1       3.798   5.122  19.167  0.00  0.00    +0.000 NA
ATOM      6  C   UNL     1       2.857   5.852  19.770  0.00  0.00    +0.000 A 
ATOM      7  N   UNL     1       2.338   5.365  20.950  0.00  0.00    +0.000 N 
ATOM      8  N   UNL     1       2.354   6.993  19.295  0.00  0.00    +0.000 NA
ATOM      9  H   UNL     1       3.113   9.398  17.697  0.00  0.00    +0.000 HD
ATOM     10  H   UNL     1       2.451   4.363  20.983  0.00  0.00    +0.000 HD
ATOM     11  H   UNL     1       1.409   5.735  21.093  0.00  0.00    +0.000 HD
ENDROOT
BRANCH   4  12
ATOM     12  C   UNL     1       5.382   4.807  17.330  0.00  0.00    +0.000 C 
ATOM     13  C   UNL     1       5.612   5.246  15.899  0.00  0.00    +0.000 C 
ATOM     14  C   UNL     1       6.990   4.691  15.604  0.00  0.00    +0.000 C 
ATOM     15  O   UNL     1       7.698   4.608  16.848  0.00  0.00    +0.000 OA
ATOM     16  C   UNL     1       6.785   4.937  17.911  0.00  0.00    +0.000 C 
ENDBRANCH   4  12
BRANCH   1  17
ATOM     17  C   UNL     1       1.109   9.109  18.099  0.00  0.00    +0.000 C 
BRANCH  17  24
ATOM     18  C   UNL     1       3.006  13.774  18.252  0.00  0.00    +0.000 C 
ATOM     19  C   UNL     1       2.208  12.684  18.906  0.00  0.00    +0.000 A 
ATOM     20  C   UNL     1       1.663  12.867  20.178  0.00  0.00    +0.000 A 
ATOM     21  C   UNL     1       0.925  11.847  20.782  0.00  0.00    +0.000 A 
ATOM     22  C   UNL     1       0.721  10.621  20.134  0.00  0.00    +0.000 A 
ATOM     23  C   UNL     1      -0.084   9.556  20.821  0.00  0.00    +0.000 C 
ATOM     24  C   UNL     1       1.285  10.417  18.850  0.00  0.00    +0.000 A 
ATOM     25  C   UNL     1       2.008  11.464  18.247  0.00  0.00    +0.000 A 
ENDBRANCH  17  24
ENDBRANCH   1  17
TORSDOF 3
ENDMDL
MODEL 9
REMARK VINA RESULT:      -7.6      1.259      2.409
REMARK  Name = 
REMARK  5 active torsions:
REMARK  status: ('A' for Active; 'I' for Inactive)
REMARK    1  A    between atoms: C_1  and  C_2
REMARK    2  A    between atoms: C_5  and  C_6
REMARK    3  A    between atoms: C_7  and  C_8
REMARK    4  A    between atoms: C_8  and  N_9
REMARK    5  A    between atoms: C_12  and  C_13
REMARK                            x       y       z     vdW  Elec       q    Type
REMARK                         _______ _______ _______ _____ _____    ______ ____
ROOT
ATOM      1  N   UNL     1       4.730   3.478  17.864  0.00  0.00    +0.000 N 
ATOM      2  C   UNL     1       5.591   4.279  17.101  0.00  0.00    +0.000 A 
ATOM      3  C   UNL     1       5.915   3.849  15.830  0.00  0.00    +0.000 A 
ATOM      4  C   UNL     1       6.825   4.607  15.117  0.00  0.00    +0.000 A 
ATOM      5  N   UNL     1       7.311   5.762  15.607  0.00  0.00    +0.000 NA
ATOM      6  C   UNL     1       6.901   6.130  16.823  0.00  0.00    +0.000 A 
ATOM      7  N   UNL     1       7.390   7.318  17.322  0.00  0.00    +0.000 N 
ATOM      8  N   UNL     1       6.089   5.417  17.604  0.00  0.00    +0.000 NA
ATOM      9  H   UNL     1       3.793   3.512  17.472  0.00  0.00    +0.000 HD
ATOM     10  H   UNL     1       8.270   7.535  16.881  0.00  0.00    +0.000 HD
ATOM     11  H   UNL     1       7.366   7.299  18.332  0.00  0.00    +0.000 HD
ENDROOT
BRANCH   4  12
ATOM     12  C   UNL     1       7.260   4.177  13.745  0.00  0.00    +0.000 C 
ATOM     13  C   UNL     1       6.142   3.547  12.941  0.00  0.00    +0.000 C 
ATOM     14  C   UNL     1       6.651   3.666  11.521  0.00  0.00    +0.000 C 
ATOM     15  O   UNL     1       7.529   4.799  11.470  0.00  0.00    +0.000 OA
ATOM     16  C   UNL     1       7.707   5.295  12.809  0.00  0.00    +0.000 C 
ENDBRANCH   4  12
BRANCH   1  17
ATOM     17  C   UNL     1       4.734   3.752  19.293  0.00  0.00    +0.000 C 
BRANCH  17  24
ATOM     18  C   UNL     1       1.678   7.502  20.700  0.00  0.00    +0.000 C 
ATOM     19  C   UNL     1       1.874   6.048  20.384  0.00  0.00    +0.000 A 
ATOM     20  C   UNL     1       0.813   5.147  20.489  0.00  0.00    +0.000 A 
ATOM     21  C   UNL     1       1.004   3.795  20.197  0.00  0.00    +0.000 A 
ATOM     22  C   UNL     1       2.259   3.312  19.800  0.00  0.00    +0.000 A 
ATOM     23  C   UNL     1       2.414   1.851  19.491  0.00  0.00    +0.000 C 
ATOM     24  C   UNL     1       3.348   4.213  19.707  0.00  0.00    +0.000 A 
ATOM     25  C   UNL     1       3.132   5.577  19.985  0.00  0.00    +0.000 A 
ENDBRANCH  17  24
ENDBRANCH   1  17
TORSDOF 3
ENDMDL
