MODEL 1
REMARK VINA RESULT:      -7.6      0.000      0.000
REMARK  Name = 
REMARK  10 active torsions:
REMARK  status: ('A' for Active; 'I' for Inactive)
REMARK    1  A    between atoms: C_1  and  C_2
REMARK    2  A    between atoms: C_7  and  C_9
REMARK    3  A    between atoms: C_11  and  O_12
REMARK    4  A    between atoms: O_12  and  C_13
REMARK    5  A    between atoms: C_16  and  S_17
REMARK    6  A    between atoms: S_17  and  C_18
REMARK    7  A    between atoms: C_24  and  O_25
REMARK    8  A    between atoms: O_25  and  C_26
REMARK    9  A    between atoms: C_26  and  C_27
REMARK   10  A    between atoms: C_26  and  C_28
REMARK                            x       y       z     vdW  Elec       q    Type
REMARK                         _______ _______ _______ _____ _____    ______ ____
ROOT
ATOM      1  C   UNL     1       0.088  11.401  19.793  0.00  0.00    +0.000 A 
ATOM      2  C   UNL     1       1.252  10.701  19.466  0.00  0.00    +0.000 A 
ATOM      3  C   UNL     1       1.211   9.650  18.555  0.00  0.00    +0.000 A 
ATOM      4  C   UNL     1       0.031   9.405  17.849  0.00  0.00    +0.000 A 
ATOM      5  C   UNL     1      -1.135  10.134  18.134  0.00  0.00    +0.000 A 
ATOM      6  C   UNL     1      -1.117  11.087  19.153  0.00  0.00    +0.000 A 
ENDROOT
BRANCH   1  13
ATOM      7  C   UNL     1      -2.869  14.817  25.411  0.00  0.00    +0.000 C 
ATOM      8  C   UNL     1      -1.919  14.706  24.279  0.00  0.00    +0.000 A 
ATOM      9  C   UNL     1      -0.935  15.616  23.937  0.00  0.00    +0.000 A 
ATOM     10  S   UNL     1      -0.035  15.024  22.609  0.00  0.00    +0.000 S 
ATOM     11  C   UNL     1      -1.013  13.628  22.583  0.00  0.00    +0.000 A 
ATOM     12  N   UNL     1      -0.861  12.629  21.657  0.00  0.00    +0.000 N 
ATOM     13  C   UNL     1       0.224  12.455  20.835  0.00  0.00    +0.000 C 
ATOM     14  O   UNL     1       1.278  13.081  20.868  0.00  0.00    +0.000 OA
ATOM     15  N   UNL     1      -1.984  13.590  23.461  0.00  0.00    +0.000 NA
ATOM     16  H   UNL     1      -1.641  11.991  21.648  0.00  0.00    +0.000 HD
ENDBRANCH   1  13
BRANCH   3  17
ATOM     17  O   UNL     1       2.311   8.856  18.292  0.00  0.00    +0.000 OA
BRANCH  17  18
ATOM     18  C   UNL     1       2.273   7.540  18.718  0.00  0.00    +0.000 A 
ATOM     19  C   UNL     1       2.032   7.178  20.052  0.00  0.00    +0.000 A 
ATOM     20  C   UNL     1       2.063   5.839  20.437  0.00  0.00    +0.000 A 
ATOM     21  C   UNL     1       2.257   4.854  19.470  0.00  0.00    +0.000 A 
ATOM     22  C   UNL     1       2.468   5.196  18.129  0.00  0.00    +0.000 A 
ATOM     23  C   UNL     1       2.473   6.545  17.755  0.00  0.00    +0.000 A 
BRANCH  21  24
ATOM     24  S   UNL     1       2.196   3.148  19.963  0.00  0.00    +0.000 S 
ATOM     25  C   UNL     1       2.035   3.270  21.727  0.00  0.00    +0.000 C 
ATOM     26  O   UNL     1       0.969   2.577  19.434  0.00  0.00    +0.000 OA
ATOM     27  O   UNL     1       3.486   2.555  19.667  0.00  0.00    +0.000 OA
ENDBRANCH  21  24
ENDBRANCH  17  18
ENDBRANCH   3  17
BRANCH   5  28
ATOM     28  O   UNL     1      -2.197   9.890  17.305  0.00  0.00    +0.000 OA
BRANCH  28  29
ATOM     29  C   UNL     1      -2.665  10.921  16.422  0.00  0.00    +0.000 C 
ATOM     30  C   UNL     1      -2.929  10.409  15.004  0.00  0.00    +0.000 C 
ATOM     31  C   UNL     1      -3.996  11.399  17.009  0.00  0.00    +0.000 C 
ENDBRANCH  28  29
ENDBRANCH   5  28
TORSDOF 6
ENDMDL
MODEL 2
REMARK VINA RESULT:      -7.4      1.066      1.105
REMARK  Name = 
REMARK  10 active torsions:
REMARK  status: ('A' for Active; 'I' for Inactive)
REMARK    1  A    between atoms: C_1  and  C_2
REMARK    2  A    between atoms: C_7  and  C_9
REMARK    3  A    between atoms: C_11  and  O_12
REMARK    4  A    between atoms: O_12  and  C_13
REMARK    5  A    between atoms: C_16  and  S_17
REMARK    6  A    between atoms: S_17  and  C_18
REMARK    7  A    between atoms: C_24  and  O_25
REMARK    8  A    between atoms: O_25  and  C_26
REMARK    9  A    between atoms: C_26  and  C_27
REMARK   10  A    between atoms: C_26  and  C_28
REMARK                            x       y       z     vdW  Elec       q    Type
REMARK                         _______ _______ _______ _____ _____    ______ ____
ROOT
ATOM      1  C   UNL     1      -0.440  10.999  20.146  0.00  0.00    +0.000 A 
ATOM      2  C   UNL     1       0.815  10.391  20.076  0.00  0.00    +0.000 A 
ATOM      3  C   UNL     1       1.131   9.543  19.019  0.00  0.00    +0.000 A 
ATOM      4  C   UNL     1       0.244   9.432  17.945  0.00  0.00    +0.000 A 
ATOM      5  C   UNL     1      -1.002  10.078  17.981  0.00  0.00    +0.000 A 
ATOM      6  C   UNL     1      -1.366  10.808  19.114  0.00  0.00    +0.000 A 
ENDROOT
BRANCH   1  13
ATOM      7  C   UNL     1      -5.113  15.081  23.818  0.00  0.00    +0.000 C 
ATOM      8  C   UNL     1      -3.750  14.615  23.470  0.00  0.00    +0.000 A 
ATOM      9  C   UNL     1      -2.567  15.005  24.072  0.00  0.00    +0.000 A 
ATOM     10  S   UNL     1      -1.258  14.143  23.390  0.00  0.00    +0.000 S 
ATOM     11  C   UNL     1      -2.344  13.336  22.354  0.00  0.00    +0.000 A 
ATOM     12  N   UNL     1      -1.939  12.424  21.414  0.00  0.00    +0.000 N 
ATOM     13  C   UNL     1      -0.705  11.826  21.356  0.00  0.00    +0.000 C 
ATOM     14  O   UNL     1       0.192  11.911  22.187  0.00  0.00    +0.000 OA
ATOM     15  N   UNL     1      -3.601  13.691  22.449  0.00  0.00    +0.000 NA
ATOM     16  H   UNL     1      -2.667  12.204  20.753  0.00  0.00    +0.000 HD
ENDBRANCH   1  13
BRANCH   3  17
ATOM     17  O   UNL     1       2.313   8.828  18.971  0.00  0.00    +0.000 OA
BRANCH  17  18
ATOM     18  C   UNL     1       2.250   7.463  19.187  0.00  0.00    +0.000 A 
ATOM     19  C   UNL     1       1.804   6.903  20.394  0.00  0.00    +0.000 A 
ATOM     20  C   UNL     1       1.817   5.522  20.579  0.00  0.00    +0.000 A 
ATOM     21  C   UNL     1       2.203   4.695  19.525  0.00  0.00    +0.000 A 
ATOM     22  C   UNL     1       2.621   5.236  18.304  0.00  0.00    +0.000 A 
ATOM     23  C   UNL     1       2.641   6.626  18.137  0.00  0.00    +0.000 A 
BRANCH  21  24
ATOM     24  S   UNL     1       2.120   2.933  19.746  0.00  0.00    +0.000 S 
ATOM     25  C   UNL     1       2.323   2.763  21.502  0.00  0.00    +0.000 C 
ATOM     26  O   UNL     1       0.775   2.506  19.401  0.00  0.00    +0.000 OA
ATOM     27  O   UNL     1       3.279   2.351  19.099  0.00  0.00    +0.000 OA
ENDBRANCH  21  24
ENDBRANCH  17  18
ENDBRANCH   3  17
BRANCH   5  28
ATOM     28  O   UNL     1      -1.740   9.994  16.831  0.00  0.00    +0.000 OA
BRANCH  28  29
ATOM     29  C   UNL     1      -2.853  10.879  16.631  0.00  0.00    +0.000 C 
ATOM     30  C   UNL     1      -3.329  10.909  15.176  0.00  0.00    +0.000 C 
ATOM     31  C   UNL     1      -3.991  10.319  17.489  0.00  0.00    +0.000 C 
ENDBRANCH  28  29
ENDBRANCH   5  28
TORSDOF 6
ENDMDL
MODEL 3
REMARK VINA RESULT:      -7.4      3.557      8.894
REMARK  Name = 
REMARK  10 active torsions:
REMARK  status: ('A' for Active; 'I' for Inactive)
REMARK    1  A    between atoms: C_1  and  C_2
REMARK    2  A    between atoms: C_7  and  C_9
REMARK    3  A    between atoms: C_11  and  O_12
REMARK    4  A    between atoms: O_12  and  C_13
REMARK    5  A    between atoms: C_16  and  S_17
REMARK    6  A    between atoms: S_17  and  C_18
REMARK    7  A    between atoms: C_24  and  O_25
REMARK    8  A    between atoms: O_25  and  C_26
REMARK    9  A    between atoms: C_26  and  C_27
REMARK   10  A    between atoms: C_26  and  C_28
REMARK                            x       y       z     vdW  Elec       q    Type
REMARK                         _______ _______ _______ _____ _____    ______ ____
ROOT
ATOM      1  C   UNL     1       1.388   8.881  19.038  0.00  0.00    +0.000 A 
ATOM      2  C   UNL     1       1.429   9.639  20.210  0.00  0.00    +0.000 A 
ATOM      3  C   UNL     1       0.690  10.814  20.317  0.00  0.00    +0.000 A 
ATOM      4  C   UNL     1      -0.217  11.144  19.307  0.00  0.00    +0.000 A 
ATOM      5  C   UNL     1      -0.303  10.363  18.144  0.00  0.00    +0.000 A 
ATOM      6  C   UNL     1       0.549   9.268  17.986  0.00  0.00    +0.000 A 
ENDROOT
BRANCH   1  13
ATOM      7  C   UNL     1       6.500   5.219  15.513  0.00  0.00    +0.000 C 
ATOM      8  C   UNL     1       5.387   5.337  16.485  0.00  0.00    +0.000 A 
ATOM      9  C   UNL     1       4.915   4.343  17.322  0.00  0.00    +0.000 A 
ATOM     10  S   UNL     1       3.676   4.967  18.321  0.00  0.00    +0.000 S 
ATOM     11  C   UNL     1       3.850   6.486  17.569  0.00  0.00    +0.000 A 
ATOM     12  N   UNL     1       3.070   7.568  17.886  0.00  0.00    +0.000 N 
ATOM     13  C   UNL     1       2.272   7.685  18.996  0.00  0.00    +0.000 C 
ATOM     14  O   UNL     1       2.211   6.906  19.941  0.00  0.00    +0.000 OA
ATOM     15  N   UNL     1       4.732   6.552  16.603  0.00  0.00    +0.000 NA
ATOM     16  H   UNL     1       3.155   8.313  17.213  0.00  0.00    +0.000 HD
ENDBRANCH   1  13
BRANCH   3  17
ATOM     17  O   UNL     1       0.793  11.655  21.409  0.00  0.00    +0.000 OA
BRANCH  17  18
ATOM     18  C   UNL     1      -0.379  12.062  22.022  0.00  0.00    +0.000 A 
ATOM     19  C   UNL     1      -0.883  13.366  21.912  0.00  0.00    +0.000 A 
ATOM     20  C   UNL     1      -2.037  13.739  22.600  0.00  0.00    +0.000 A 
ATOM     21  C   UNL     1      -2.732  12.781  23.337  0.00  0.00    +0.000 A 
ATOM     22  C   UNL     1      -2.260  11.466  23.432  0.00  0.00    +0.000 A 
ATOM     23  C   UNL     1      -1.080  11.109  22.769  0.00  0.00    +0.000 A 
BRANCH  21  24
ATOM     24  S   UNL     1      -4.253  13.248  24.127  0.00  0.00    +0.000 S 
ATOM     25  C   UNL     1      -5.436  13.046  22.818  0.00  0.00    +0.000 C 
ATOM     26  O   UNL     1      -4.540  12.262  25.154  0.00  0.00    +0.000 OA
ATOM     27  O   UNL     1      -4.171  14.660  24.446  0.00  0.00    +0.000 OA
ENDBRANCH  21  24
ENDBRANCH  17  18
ENDBRANCH   3  17
BRANCH   5  28
ATOM     28  O   UNL     1      -1.302  10.711  17.275  0.00  0.00    +0.000 OA
BRANCH  28  29
ATOM     29  C   UNL     1      -2.397   9.811  17.048  0.00  0.00    +0.000 C 
ATOM     30  C   UNL     1      -3.652  10.196  17.835  0.00  0.00    +0.000 C 
ATOM     31  C   UNL     1      -2.723   9.920  15.555  0.00  0.00    +0.000 C 
ENDBRANCH  28  29
ENDBRANCH   5  28
TORSDOF 6
ENDMDL
MODEL 4
REMARK VINA RESULT:      -7.3      4.404     10.084
REMARK  Name = 
REMARK  10 active torsions:
REMARK  status: ('A' for Active; 'I' for Inactive)
REMARK    1  A    between atoms: C_1  and  C_2
REMARK    2  A    between atoms: C_7  and  C_9
REMARK    3  A    between atoms: C_11  and  O_12
REMARK    4  A    between atoms: O_12  and  C_13
REMARK    5  A    between atoms: C_16  and  S_17
REMARK    6  A    between atoms: S_17  and  C_18
REMARK    7  A    between atoms: C_24  and  O_25
REMARK    8  A    between atoms: O_25  and  C_26
REMARK    9  A    between atoms: C_26  and  C_27
REMARK   10  A    between atoms: C_26  and  C_28
REMARK                            x       y       z     vdW  Elec       q    Type
REMARK                         _______ _______ _______ _____ _____    ______ ____
ROOT
ATOM      1  C   UNL     1       3.371   5.727  18.388  0.00  0.00    +0.000 A 
ATOM      2  C   UNL     1       3.196   6.820  19.239  0.00  0.00    +0.000 A 
ATOM      3  C   UNL     1       2.148   6.842  20.154  0.00  0.00    +0.000 A 
ATOM      4  C   UNL     1       1.369   5.695  20.327  0.00  0.00    +0.000 A 
ATOM      5  C   UNL     1       1.567   4.570  19.510  0.00  0.00    +0.000 A 
ATOM      6  C   UNL     1       2.527   4.615  18.498  0.00  0.00    +0.000 A 
ENDROOT
BRANCH   1  13
ATOM      7  C   UNL     1       6.255   3.355  12.221  0.00  0.00    +0.000 C 
ATOM      8  C   UNL     1       6.317   4.031  13.538  0.00  0.00    +0.000 A 
ATOM      9  C   UNL     1       7.415   4.672  14.085  0.00  0.00    +0.000 A 
ATOM     10  S   UNL     1       6.989   5.372  15.585  0.00  0.00    +0.000 S 
ATOM     11  C   UNL     1       5.405   4.771  15.404  0.00  0.00    +0.000 A 
ATOM     12  N   UNL     1       4.428   4.948  16.349  0.00  0.00    +0.000 N 
ATOM     13  C   UNL     1       4.474   5.835  17.395  0.00  0.00    +0.000 C 
ATOM     14  O   UNL     1       5.329   6.691  17.593  0.00  0.00    +0.000 OA
ATOM     15  N   UNL     1       5.181   4.054  14.330  0.00  0.00    +0.000 NA
ATOM     16  H   UNL     1       3.626   4.359  16.188  0.00  0.00    +0.000 HD
ENDBRANCH   1  13
BRANCH   3  17
ATOM     17  O   UNL     1       1.866   7.950  20.930  0.00  0.00    +0.000 OA
BRANCH  17  18
ATOM     18  C   UNL     1       1.090   8.949  20.370  0.00  0.00    +0.000 A 
ATOM     19  C   UNL     1       1.203   9.339  19.027  0.00  0.00    +0.000 A 
ATOM     20  C   UNL     1       0.437  10.392  18.529  0.00  0.00    +0.000 A 
ATOM     21  C   UNL     1      -0.502  11.004  19.358  0.00  0.00    +0.000 A 
ATOM     22  C   UNL     1      -0.650  10.607  20.692  0.00  0.00    +0.000 A 
ATOM     23  C   UNL     1       0.149   9.574  21.196  0.00  0.00    +0.000 A 
BRANCH  21  24
ATOM     24  S   UNL     1      -1.538  12.279  18.680  0.00  0.00    +0.000 S 
ATOM     25  C   UNL     1      -2.365  11.430  17.358  0.00  0.00    +0.000 C 
ATOM     26  O   UNL     1      -2.528  12.627  19.685  0.00  0.00    +0.000 OA
ATOM     27  O   UNL     1      -0.676  13.288  18.098  0.00  0.00    +0.000 OA
ENDBRANCH  21  24
ENDBRANCH  17  18
ENDBRANCH   3  17
BRANCH   5  28
ATOM     28  O   UNL     1       0.829   3.466  19.843  0.00  0.00    +0.000 OA
BRANCH  28  29
ATOM     29  C   UNL     1       1.489   2.276  20.299  0.00  0.00    +0.000 C 
ATOM     30  C   UNL     1       2.554   1.778  19.318  0.00  0.00    +0.000 C 
ATOM     31  C   UNL     1       2.192   2.663  21.604  0.00  0.00    +0.000 C 
ENDBRANCH  28  29
ENDBRANCH   5  28
TORSDOF 6
ENDMDL
MODEL 5
REMARK VINA RESULT:      -7.3      3.326      8.785
REMARK  Name = 
REMARK  10 active torsions:
REMARK  status: ('A' for Active; 'I' for Inactive)
REMARK    1  A    between atoms: C_1  and  C_2
REMARK    2  A    between atoms: C_7  and  C_9
REMARK    3  A    between atoms: C_11  and  O_12
REMARK    4  A    between atoms: O_12  and  C_13
REMARK    5  A    between atoms: C_16  and  S_17
REMARK    6  A    between atoms: S_17  and  C_18
REMARK    7  A    between atoms: C_24  and  O_25
REMARK    8  A    between atoms: O_25  and  C_26
REMARK    9  A    between atoms: C_26  and  C_27
REMARK   10  A    between atoms: C_26  and  C_28
REMARK                            x       y       z     vdW  Elec       q    Type
REMARK                         _______ _______ _______ _____ _____    ______ ____
ROOT
ATOM      1  C   UNL     1       1.391   8.969  18.861  0.00  0.00    +0.000 A 
ATOM      2  C   UNL     1       1.406   9.372  20.198  0.00  0.00    +0.000 A 
ATOM      3  C   UNL     1       0.584  10.408  20.632  0.00  0.00    +0.000 A 
ATOM      4  C   UNL     1      -0.371  10.934  19.759  0.00  0.00    +0.000 A 
ATOM      5  C   UNL     1      -0.429  10.502  18.424  0.00  0.00    +0.000 A 
ATOM      6  C   UNL     1       0.498   9.566  17.963  0.00  0.00    +0.000 A 
ENDROOT
BRANCH   1  13
ATOM      7  C   UNL     1       4.005   2.378  20.164  0.00  0.00    +0.000 C 
ATOM      8  C   UNL     1       4.086   3.748  19.606  0.00  0.00    +0.000 A 
ATOM      9  C   UNL     1       5.116   4.267  18.841  0.00  0.00    +0.000 A 
ATOM     10  S   UNL     1       4.731   5.861  18.357  0.00  0.00    +0.000 S 
ATOM     11  C   UNL     1       3.252   5.748  19.197  0.00  0.00    +0.000 A 
ATOM     12  N   UNL     1       2.356   6.782  19.270  0.00  0.00    +0.000 N 
ATOM     13  C   UNL     1       2.362   7.906  18.483  0.00  0.00    +0.000 C 
ATOM     14  O   UNL     1       3.084   8.122  17.516  0.00  0.00    +0.000 OA
ATOM     15  N   UNL     1       3.043   4.628  19.844  0.00  0.00    +0.000 NA
ATOM     16  H   UNL     1       1.647   6.627  19.968  0.00  0.00    +0.000 HD
ENDBRANCH   1  13
BRANCH   3  17
ATOM     17  O   UNL     1       0.652  10.918  21.915  0.00  0.00    +0.000 OA
BRANCH  17  18
ATOM     18  C   UNL     1      -0.390  11.719  22.347  0.00  0.00    +0.000 A 
ATOM     19  C   UNL     1      -0.399  13.112  22.181  0.00  0.00    +0.000 A 
ATOM     20  C   UNL     1      -1.447  13.878  22.688  0.00  0.00    +0.000 A 
ATOM     21  C   UNL     1      -2.529  13.239  23.294  0.00  0.00    +0.000 A 
ATOM     22  C   UNL     1      -2.551  11.847  23.440  0.00  0.00    +0.000 A 
ATOM     23  C   UNL     1      -1.477  11.087  22.961  0.00  0.00    +0.000 A 
BRANCH  21  24
ATOM     24  S   UNL     1      -3.902  14.223  23.847  0.00  0.00    +0.000 S 
ATOM     25  C   UNL     1      -4.204  15.272  22.447  0.00  0.00    +0.000 C 
ATOM     26  O   UNL     1      -5.044  13.339  24.006  0.00  0.00    +0.000 OA
ATOM     27  O   UNL     1      -3.440  15.052  24.942  0.00  0.00    +0.000 OA
ENDBRANCH  21  24
ENDBRANCH  17  18
ENDBRANCH   3  17
BRANCH   5  28
ATOM     28  O   UNL     1      -1.474  10.998  17.692  0.00  0.00    +0.000 OA
BRANCH  28  29
ATOM     29  C   UNL     1      -2.267  10.112  16.889  0.00  0.00    +0.000 C 
ATOM     30  C   UNL     1      -3.462   9.533  17.651  0.00  0.00    +0.000 C 
ATOM     31  C   UNL     1      -2.809  10.964  15.737  0.00  0.00    +0.000 C 
ENDBRANCH  28  29
ENDBRANCH   5  28
TORSDOF 6
ENDMDL
MODEL 6
REMARK VINA RESULT:      -7.2      4.375      7.140
REMARK  Name = 
REMARK  10 active torsions:
REMARK  status: ('A' for Active; 'I' for Inactive)
REMARK    1  A    between atoms: C_1  and  C_2
REMARK    2  A    between atoms: C_7  and  C_9
REMARK    3  A    between atoms: C_11  and  O_12
REMARK    4  A    between atoms: O_12  and  C_13
REMARK    5  A    between atoms: C_16  and  S_17
REMARK    6  A    between atoms: S_17  and  C_18
REMARK    7  A    between atoms: C_24  and  O_25
REMARK    8  A    between atoms: O_25  and  C_26
REMARK    9  A    between atoms: C_26  and  C_27
REMARK   10  A    between atoms: C_26  and  C_28
REMARK                            x       y       z     vdW  Elec       q    Type
REMARK                         _______ _______ _______ _____ _____    ______ ____
ROOT
ATOM      1  C   UNL     1       2.868   6.548  19.116  0.00  0.00    +0.000 A 
ATOM      2  C   UNL     1       4.055   6.428  18.390  0.00  0.00    +0.000 A 
ATOM      3  C   UNL     1       4.823   5.271  18.479  0.00  0.00    +0.000 A 
ATOM      4  C   UNL     1       4.317   4.168  19.171  0.00  0.00    +0.000 A 
ATOM      5  C   UNL     1       3.100   4.259  19.865  0.00  0.00    +0.000 A 
ATOM      6  C   UNL     1       2.412   5.473  19.888  0.00  0.00    +0.000 A 
ENDROOT
BRANCH   1  13
ATOM      7  C   UNL     1      -0.794  11.764  22.485  0.00  0.00    +0.000 C 
ATOM      8  C   UNL     1      -0.381  11.000  21.284  0.00  0.00    +0.000 A 
ATOM      9  C   UNL     1      -0.728  11.272  19.973  0.00  0.00    +0.000 A 
ATOM     10  S   UNL     1       0.051  10.167  18.927  0.00  0.00    +0.000 S 
ATOM     11  C   UNL     1       0.771   9.414  20.275  0.00  0.00    +0.000 A 
ATOM     12  N   UNL     1       1.586   8.318  20.169  0.00  0.00    +0.000 N 
ATOM     13  C   UNL     1       2.161   7.854  19.012  0.00  0.00    +0.000 C 
ATOM     14  O   UNL     1       2.142   8.398  17.914  0.00  0.00    +0.000 OA
ATOM     15  N   UNL     1       0.443   9.898  21.448  0.00  0.00    +0.000 NA
ATOM     16  H   UNL     1       1.753   7.875  21.058  0.00  0.00    +0.000 HD
ENDBRANCH   1  13
BRANCH   3  17
ATOM     17  O   UNL     1       6.060   5.157  17.874  0.00  0.00    +0.000 OA
BRANCH  17  18
ATOM     18  C   UNL     1       6.096   4.769  16.546  0.00  0.00    +0.000 A 
ATOM     19  C   UNL     1       5.079   4.011  15.947  0.00  0.00    +0.000 A 
ATOM     20  C   UNL     1       5.194   3.598  14.621  0.00  0.00    +0.000 A 
ATOM     21  C   UNL     1       6.292   4.011  13.869  0.00  0.00    +0.000 A 
ATOM     22  C   UNL     1       7.301   4.794  14.443  0.00  0.00    +0.000 A 
ATOM     23  C   UNL     1       7.198   5.174  15.786  0.00  0.00    +0.000 A 
BRANCH  21  24
ATOM     24  S   UNL     1       6.374   3.557  12.153  0.00  0.00    +0.000 S 
ATOM     25  C   UNL     1       4.664   3.566  11.678  0.00  0.00    +0.000 C 
ATOM     26  O   UNL     1       7.048   4.629  11.442  0.00  0.00    +0.000 OA
ATOM     27  O   UNL     1       6.856   2.192  12.079  0.00  0.00    +0.000 OA
ENDBRANCH  21  24
ENDBRANCH  17  18
ENDBRANCH   3  17
BRANCH   5  28
ATOM     28  O   UNL     1       2.646   3.089  20.410  0.00  0.00    +0.000 OA
BRANCH  28  29
ATOM     29  C   UNL     1       1.990   2.121  19.578  0.00  0.00    +0.000 C 
ATOM     30  C   UNL     1       0.748   2.684  18.883  0.00  0.00    +0.000 C 
ATOM     31  C   UNL     1       3.006   1.743  18.496  0.00  0.00    +0.000 C 
ENDBRANCH  28  29
ENDBRANCH   5  28
TORSDOF 6
ENDMDL
MODEL 7
REMARK VINA RESULT:      -7.2      2.886      4.750
REMARK  Name = 
REMARK  10 active torsions:
REMARK  status: ('A' for Active; 'I' for Inactive)
REMARK    1  A    between atoms: C_1  and  C_2
REMARK    2  A    between atoms: C_7  and  C_9
REMARK    3  A    between atoms: C_11  and  O_12
REMARK    4  A    between atoms: O_12  and  C_13
REMARK    5  A    between atoms: C_16  and  S_17
REMARK    6  A    between atoms: S_17  and  C_18
REMARK    7  A    between atoms: C_24  and  O_25
REMARK    8  A    between atoms: O_25  and  C_26
REMARK    9  A    between atoms: C_26  and  C_27
REMARK   10  A    between atoms: C_26  and  C_28
REMARK                            x       y       z     vdW  Elec       q    Type
REMARK                         _______ _______ _______ _____ _____    ______ ____
ROOT
ATOM      1  C   UNL     1      -1.068  10.961  18.696  0.00  0.00    +0.000 A 
ATOM      2  C   UNL     1      -0.173  10.249  17.896  0.00  0.00    +0.000 A 
ATOM      3  C   UNL     1       1.074   9.877  18.390  0.00  0.00    +0.000 A 
ATOM      4  C   UNL     1       1.360  10.078  19.742  0.00  0.00    +0.000 A 
ATOM      5  C   UNL     1       0.447  10.751  20.571  0.00  0.00    +0.000 A 
ATOM      6  C   UNL     1      -0.738  11.247  20.026  0.00  0.00    +0.000 A 
ENDROOT
BRANCH   1  13
ATOM      7  C   UNL     1      -7.647  13.799  19.491  0.00  0.00    +0.000 C 
ATOM      8  C   UNL     1      -6.628  12.998  18.772  0.00  0.00    +0.000 A 
ATOM      9  C   UNL     1      -6.775  12.398  17.534  0.00  0.00    +0.000 A 
ATOM     10  S   UNL     1      -5.307  11.652  17.076  0.00  0.00    +0.000 S 
ATOM     11  C   UNL     1      -4.601  12.165  18.539  0.00  0.00    +0.000 A 
ATOM     12  N   UNL     1      -3.312  11.861  18.891  0.00  0.00    +0.000 N 
ATOM     13  C   UNL     1      -2.342  11.377  18.049  0.00  0.00    +0.000 C 
ATOM     14  O   UNL     1      -2.424  11.249  16.833  0.00  0.00    +0.000 OA
ATOM     15  N   UNL     1      -5.388  12.815  19.361  0.00  0.00    +0.000 NA
ATOM     16  H   UNL     1      -3.123  12.054  19.862  0.00  0.00    +0.000 HD
ENDBRANCH   1  13
BRANCH   3  17
ATOM     17  O   UNL     1       2.035   9.278  17.597  0.00  0.00    +0.000 OA
BRANCH  17  18
ATOM     18  C   UNL     1       2.519   8.043  17.992  0.00  0.00    +0.000 A 
ATOM     19  C   UNL     1       2.000   7.337  19.087  0.00  0.00    +0.000 A 
ATOM     20  C   UNL     1       2.564   6.124  19.478  0.00  0.00    +0.000 A 
ATOM     21  C   UNL     1       3.599   5.576  18.721  0.00  0.00    +0.000 A 
ATOM     22  C   UNL     1       4.108   6.253  17.605  0.00  0.00    +0.000 A 
ATOM     23  C   UNL     1       3.562   7.489  17.242  0.00  0.00    +0.000 A 
BRANCH  21  24
ATOM     24  S   UNL     1       4.240   3.983  19.175  0.00  0.00    +0.000 S 
ATOM     25  C   UNL     1       3.994   3.040  17.691  0.00  0.00    +0.000 C 
ATOM     26  O   UNL     1       5.670   4.126  19.390  0.00  0.00    +0.000 OA
ATOM     27  O   UNL     1       3.379   3.436  20.205  0.00  0.00    +0.000 OA
ENDBRANCH  21  24
ENDBRANCH  17  18
ENDBRANCH   3  17
BRANCH   5  28
ATOM     28  O   UNL     1       0.778  10.791  21.898  0.00  0.00    +0.000 OA
BRANCH  28  29
ATOM     29  C   UNL     1      -0.022  10.081  22.856  0.00  0.00    +0.000 C 
ATOM     30  C   UNL     1      -1.325  10.811  23.193  0.00  0.00    +0.000 C 
ATOM     31  C   UNL     1      -0.385   8.750  22.191  0.00  0.00    +0.000 C 
ENDBRANCH  28  29
ENDBRANCH   5  28
TORSDOF 6
ENDMDL
MODEL 8
REMARK VINA RESULT:      -7.1      1.198      1.602
REMARK  Name = 
REMARK  10 active torsions:
REMARK  status: ('A' for Active; 'I' for Inactive)
REMARK    1  A    between atoms: C_1  and  C_2
REMARK    2  A    between atoms: C_7  and  C_9
REMARK    3  A    between atoms: C_11  and  O_12
REMARK    4  A    between atoms: O_12  and  C_13
REMARK    5  A    between atoms: C_16  and  S_17
REMARK    6  A    between atoms: S_17  and  C_18
REMARK    7  A    between atoms: C_24  and  O_25
REMARK    8  A    between atoms: O_25  and  C_26
REMARK    9  A    between atoms: C_26  and  C_27
REMARK   10  A    between atoms: C_26  and  C_28
REMARK                            x       y       z     vdW  Elec       q    Type
REMARK                         _______ _______ _______ _____ _____    ______ ____
ROOT
ATOM      1  C   UNL     1       0.358  11.657  19.802  0.00  0.00    +0.000 A 
ATOM      2  C   UNL     1       1.450  10.886  19.400  0.00  0.00    +0.000 A 
ATOM      3  C   UNL     1       1.266   9.772  18.586  0.00  0.00    +0.000 A 
ATOM      4  C   UNL     1       0.003   9.526  18.042  0.00  0.00    +0.000 A 
ATOM      5  C   UNL     1      -1.095  10.325  18.400  0.00  0.00    +0.000 A 
ATOM      6  C   UNL     1      -0.924  11.350  19.332  0.00  0.00    +0.000 A 
ENDROOT
BRANCH   1  13
ATOM      7  C   UNL     1      -2.190  17.209  23.632  0.00  0.00    +0.000 C 
ATOM      8  C   UNL     1      -1.113  16.455  22.948  0.00  0.00    +0.000 A 
ATOM      9  C   UNL     1       0.233  16.777  22.927  0.00  0.00    +0.000 A 
ATOM     10  S   UNL     1       1.102  15.573  22.080  0.00  0.00    +0.000 S 
ATOM     11  C   UNL     1      -0.354  14.733  21.800  0.00  0.00    +0.000 A 
ATOM     12  N   UNL     1      -0.416  13.570  21.078  0.00  0.00    +0.000 N 
ATOM     13  C   UNL     1       0.652  12.780  20.735  0.00  0.00    +0.000 C 
ATOM     14  O   UNL     1       1.812  12.911  21.109  0.00  0.00    +0.000 OA
ATOM     15  N   UNL     1      -1.443  15.303  22.254  0.00  0.00    +0.000 NA
ATOM     16  H   UNL     1      -1.360  13.322  20.828  0.00  0.00    +0.000 HD
ENDBRANCH   1  13
BRANCH   3  17
ATOM     17  O   UNL     1       2.299   8.913  18.262  0.00  0.00    +0.000 OA
BRANCH  17  18
ATOM     18  C   UNL     1       2.244   7.623  18.758  0.00  0.00    +0.000 A 
ATOM     19  C   UNL     1       2.465   6.491  17.959  0.00  0.00    +0.000 A 
ATOM     20  C   UNL     1       2.338   5.211  18.497  0.00  0.00    +0.000 A 
ATOM     21  C   UNL     1       2.068   5.065  19.858  0.00  0.00    +0.000 A 
ATOM     22  C   UNL     1       1.877   6.185  20.675  0.00  0.00    +0.000 A 
ATOM     23  C   UNL     1       1.968   7.467  20.120  0.00  0.00    +0.000 A 
BRANCH  21  24
ATOM     24  S   UNL     1       2.008   3.428  20.546  0.00  0.00    +0.000 S 
ATOM     25  C   UNL     1       3.451   2.669  19.845  0.00  0.00    +0.000 C 
ATOM     26  O   UNL     1       2.207   3.544  21.981  0.00  0.00    +0.000 OA
ATOM     27  O   UNL     1       0.839   2.763  20.005  0.00  0.00    +0.000 OA
ENDBRANCH  21  24
ENDBRANCH  17  18
ENDBRANCH   3  17
BRANCH   5  28
ATOM     28  O   UNL     1      -2.255  10.066  17.721  0.00  0.00    +0.000 OA
BRANCH  28  29
ATOM     29  C   UNL     1      -2.662  10.928  16.648  0.00  0.00    +0.000 C 
ATOM     30  C   UNL     1      -2.771  10.194  15.309  0.00  0.00    +0.000 C 
ATOM     31  C   UNL     1      -4.057  11.434  17.025  0.00  0.00    +0.000 C 
ENDBRANCH  28  29
ENDBRANCH   5  28
TORSDOF 6
ENDMDL
MODEL 9
REMARK VINA RESULT:      -7.1      1.531      1.731
REMARK  Name = 
REMARK  10 active torsions:
REMARK  status: ('A' for Active; 'I' for Inactive)
REMARK    1  A    between atoms: C_1  and  C_2
REMARK    2  A    between atoms: C_7  and  C_9
REMARK    3  A    between atoms: C_11  and  O_12
REMARK    4  A    between atoms: O_12  and  C_13
REMARK    5  A    between atoms: C_16  and  S_17
REMARK    6  A    between atoms: S_17  and  C_18
REMARK    7  A    between atoms: C_24  and  O_25
REMARK    8  A    between atoms: O_25  and  C_26
REMARK    9  A    between atoms: C_26  and  C_27
REMARK   10  A    between atoms: C_26  and  C_28
REMARK                            x       y       z     vdW  Elec       q    Type
REMARK                         _______ _______ _______ _____ _____    ______ ____
ROOT
ATOM      1  C   UNL     1      -1.726  11.638  19.688  0.00  0.00    +0.000 A 
ATOM      2  C   UNL     1      -0.373  11.336  19.860  0.00  0.00    +0.000 A 
ATOM      3  C   UNL     1       0.258  10.421  19.021  0.00  0.00    +0.000 A 
ATOM      4  C   UNL     1      -0.428   9.929  17.908  0.00  0.00    +0.000 A 
ATOM      5  C   UNL     1      -1.776  10.264  17.697  0.00  0.00    +0.000 A 
ATOM      6  C   UNL     1      -2.438  11.067  18.627  0.00  0.00    +0.000 A 
ENDROOT
BRANCH   1  13
ATOM      7  C   UNL     1      -0.746  15.739  25.536  0.00  0.00    +0.000 C 
ATOM      8  C   UNL     1      -1.579  14.968  24.583  0.00  0.00    +0.000 A 
ATOM      9  C   UNL     1      -2.959  14.861  24.595  0.00  0.00    +0.000 A 
ATOM     10  S   UNL     1      -3.478  13.934  23.256  0.00  0.00    +0.000 S 
ATOM     11  C   UNL     1      -1.855  13.737  22.775  0.00  0.00    +0.000 A 
ATOM     12  N   UNL     1      -1.486  12.999  21.681  0.00  0.00    +0.000 N 
ATOM     13  C   UNL     1      -2.324  12.569  20.683  0.00  0.00    +0.000 C 
ATOM     14  O   UNL     1      -3.505  12.865  20.538  0.00  0.00    +0.000 OA
ATOM     15  N   UNL     1      -0.954  14.276  23.559  0.00  0.00    +0.000 NA
ATOM     16  H   UNL     1      -0.496  12.811  21.661  0.00  0.00    +0.000 HD
ENDBRANCH   1  13
BRANCH   3  17
ATOM     17  O   UNL     1       1.559  10.004  19.228  0.00  0.00    +0.000 OA
BRANCH  17  18
ATOM     18  C   UNL     1       1.790   8.644  19.338  0.00  0.00    +0.000 A 
ATOM     19  C   UNL     1       1.531   7.920  20.512  0.00  0.00    +0.000 A 
ATOM     20  C   UNL     1       1.839   6.562  20.587  0.00  0.00    +0.000 A 
ATOM     21  C   UNL     1       2.334   5.910  19.458  0.00  0.00    +0.000 A 
ATOM     22  C   UNL     1       2.569   6.612  18.269  0.00  0.00    +0.000 A 
ATOM     23  C   UNL     1       2.293   7.983  18.212  0.00  0.00    +0.000 A 
BRANCH  21  24
ATOM     24  S   UNL     1       2.628   4.160  19.542  0.00  0.00    +0.000 S 
ATOM     25  C   UNL     1       1.787   3.707  21.039  0.00  0.00    +0.000 C 
ATOM     26  O   UNL     1       1.933   3.540  18.427  0.00  0.00    +0.000 OA
ATOM     27  O   UNL     1       4.049   3.959  19.744  0.00  0.00    +0.000 OA
ENDBRANCH  21  24
ENDBRANCH  17  18
ENDBRANCH   3  17
BRANCH   5  28
ATOM     28  O   UNL     1      -2.312   9.820  16.519  0.00  0.00    +0.000 OA
BRANCH  28  29
ATOM     29  C   UNL     1      -2.887  10.760  15.597  0.00  0.00    +0.000 C 
ATOM     30  C   UNL     1      -3.100  10.165  14.203  0.00  0.00    +0.000 C 
ATOM     31  C   UNL     1      -4.259  11.122  16.173  0.00  0.00    +0.000 C 
ENDBRANCH  28  29
ENDBRANCH   5  28
TORSDOF 6
ENDMDL
