MODEL 1
REMARK VINA RESULT:      -7.9      0.000      0.000
REMARK  Name = 
REMARK  4 active torsions:
REMARK  status: ('A' for Active; 'I' for Inactive)
REMARK    1  A    between atoms: C_1  and  O_2
REMARK    2  A    between atoms: O_2  and  C_3
REMARK    3  A    between atoms: C_14  and  C_15
REMARK    4  A    between atoms: N_21  and  C_22
REMARK                            x       y       z     vdW  Elec       q    Type
REMARK                         _______ _______ _______ _____ _____    ______ ____
ROOT
ATOM      1  C   UNL     1       1.726   7.838  20.128  0.00  0.00    +0.000 A 
ATOM      2  C   UNL     1       1.665   8.588  18.937  0.00  0.00    +0.000 A 
ATOM      3  C   UNL     1       2.496   8.316  17.796  0.00  0.00    +0.000 A 
ATOM      4  C   UNL     1       3.393   7.248  17.809  0.00  0.00    +0.000 A 
ATOM      5  C   UNL     1       3.336   6.496  18.965  0.00  0.00    +0.000 A 
ATOM      6  C   UNL     1       2.592   6.784  20.104  0.00  0.00    +0.000 A 
ATOM      7  O   UNL     1       2.660   5.746  21.005  0.00  0.00    +0.000 OA
ATOM      8  C   UNL     1       2.806   4.630  20.108  0.00  0.00    +0.000 C 
ATOM      9  C   UNL     1       1.384   4.254  19.525  0.00  0.00    +0.000 C 
ATOM     10  O   UNL     1       0.346   4.431  20.168  0.00  0.00    +0.000 OA
ATOM     11  C   UNL     1       1.299   3.662  18.110  0.00  0.00    +0.000 C 
ATOM     12  C   UNL     1       2.712   3.186  17.635  0.00  0.00    +0.000 C 
ATOM     13  C   UNL     1       3.516   4.509  17.651  0.00  0.00    +0.000 C 
ATOM     14  C   UNL     1       4.575   5.085  16.698  0.00  0.00    +0.000 C 
ATOM     15  C   UNL     1       4.270   6.708  16.658  0.00  0.00    +0.000 C 
ATOM     16  N   UNL     1       5.921   4.644  17.067  0.00  0.00    +0.000 NA
ATOM     17  C   UNL     1       7.010   5.084  16.205  0.00  0.00    +0.000 C 
ATOM     18  C   UNL     1       6.265   4.553  18.476  0.00  0.00    +0.000 C 
ATOM     19  C   UNL     1       5.294   5.223  19.439  0.00  0.00    +0.000 C 
ATOM     20  C   UNL     1       3.810   5.076  19.037  0.00  0.00    +0.000 C 
ENDROOT
BRANCH  12  21
ATOM     21  C   UNL     1       3.037   2.027  18.562  0.00  0.00    +0.000 C 
ATOM     22  C   UNL     1       4.304   1.797  19.314  0.00  0.00    +0.000 C 
ATOM     23  C   UNL     1       4.023   0.997  18.071  0.00  0.00    +0.000 C 
ENDBRANCH  12  21
BRANCH   1  25
ATOM     24  C   UNL     1       1.215   9.146  22.057  0.00  0.00    +0.000 C 
ATOM     25  O   UNL     1       0.834   8.131  21.120  0.00  0.00    +0.000 OA
ENDBRANCH   1  25
TORSDOF 2
ENDMDL
MODEL 2
REMARK VINA RESULT:      -6.5      9.300     11.056
REMARK  Name = 
REMARK  4 active torsions:
REMARK  status: ('A' for Active; 'I' for Inactive)
REMARK    1  A    between atoms: C_1  and  O_2
REMARK    2  A    between atoms: O_2  and  C_3
REMARK    3  A    between atoms: C_14  and  C_15
REMARK    4  A    between atoms: N_21  and  C_22
REMARK                            x       y       z     vdW  Elec       q    Type
REMARK                         _______ _______ _______ _____ _____    ______ ____
ROOT
ATOM      1  C   UNL     1       7.795  12.693  22.746  0.00  0.00    +0.000 A 
ATOM      2  C   UNL     1       6.591  13.379  22.495  0.00  0.00    +0.000 A 
ATOM      3  C   UNL     1       6.503  14.511  21.613  0.00  0.00    +0.000 A 
ATOM      4  C   UNL     1       7.627  14.963  20.922  0.00  0.00    +0.000 A 
ATOM      5  C   UNL     1       8.751  14.190  21.136  0.00  0.00    +0.000 A 
ATOM      6  C   UNL     1       8.874  13.138  22.038  0.00  0.00    +0.000 A 
ATOM      7  O   UNL     1      10.083  12.502  21.883  0.00  0.00    +0.000 OA
ATOM      8  C   UNL     1      10.305  12.702  20.475  0.00  0.00    +0.000 C 
ATOM      9  C   UNL     1       9.453  11.640  19.668  0.00  0.00    +0.000 C 
ATOM     10  O   UNL     1       9.195  10.524  20.128  0.00  0.00    +0.000 OA
ATOM     11  C   UNL     1       8.924  12.019  18.277  0.00  0.00    +0.000 C 
ATOM     12  C   UNL     1       9.660  13.295  17.746  0.00  0.00    +0.000 C 
ATOM     13  C   UNL     1       9.274  14.351  18.811  0.00  0.00    +0.000 C 
ATOM     14  C   UNL     1       8.896  15.836  18.700  0.00  0.00    +0.000 C 
ATOM     15  C   UNL     1       7.720  16.059  19.840  0.00  0.00    +0.000 C 
ATOM     16  N   UNL     1      10.081  16.694  18.754  0.00  0.00    +0.000 NA
ATOM     17  C   UNL     1       9.857  18.126  18.607  0.00  0.00    +0.000 C 
ATOM     18  C   UNL     1      11.158  16.341  19.663  0.00  0.00    +0.000 C 
ATOM     19  C   UNL     1      10.824  15.283  20.707  0.00  0.00    +0.000 C 
ATOM     20  C   UNL     1       9.908  14.155  20.184  0.00  0.00    +0.000 C 
ENDROOT
BRANCH  12  21
ATOM     21  C   UNL     1      11.092  12.831  17.545  0.00  0.00    +0.000 C 
ATOM     22  C   UNL     1      12.333  13.650  17.659  0.00  0.00    +0.000 C 
ATOM     23  C   UNL     1      11.804  13.291  16.297  0.00  0.00    +0.000 C 
ENDBRANCH  12  21
BRANCH   1  25
ATOM     24  C   UNL     1       6.689  11.510  24.498  0.00  0.00    +0.000 C 
ATOM     25  O   UNL     1       7.751  11.581  23.538  0.00  0.00    +0.000 OA
ENDBRANCH   1  25
TORSDOF 2
ENDMDL
MODEL 3
REMARK VINA RESULT:      -6.3      2.180      3.660
REMARK  Name = 
REMARK  4 active torsions:
REMARK  status: ('A' for Active; 'I' for Inactive)
REMARK    1  A    between atoms: C_1  and  O_2
REMARK    2  A    between atoms: O_2  and  C_3
REMARK    3  A    between atoms: C_14  and  C_15
REMARK    4  A    between atoms: N_21  and  C_22
REMARK                            x       y       z     vdW  Elec       q    Type
REMARK                         _______ _______ _______ _____ _____    ______ ____
ROOT
ATOM      1  C   UNL     1       2.882   3.807  20.843  0.00  0.00    +0.000 A 
ATOM      2  C   UNL     1       2.003   4.906  20.822  0.00  0.00    +0.000 A 
ATOM      3  C   UNL     1       2.291   6.126  20.118  0.00  0.00    +0.000 A 
ATOM      4  C   UNL     1       3.465   6.260  19.377  0.00  0.00    +0.000 A 
ATOM      5  C   UNL     1       4.236   5.115  19.360  0.00  0.00    +0.000 A 
ATOM      6  C   UNL     1       4.011   3.953  20.089  0.00  0.00    +0.000 A 
ATOM      7  O   UNL     1       4.893   2.965  19.717  0.00  0.00    +0.000 OA
ATOM      8  C   UNL     1       5.100   3.306  18.335  0.00  0.00    +0.000 C 
ATOM      9  C   UNL     1       3.877   2.766  17.488  0.00  0.00    +0.000 C 
ATOM     10  O   UNL     1       3.251   1.754  17.815  0.00  0.00    +0.000 OA
ATOM     11  C   UNL     1       3.454   3.536  16.228  0.00  0.00    +0.000 C 
ATOM     12  C   UNL     1       4.577   4.538  15.800  0.00  0.00    +0.000 C 
ATOM     13  C   UNL     1       4.662   5.468  17.035  0.00  0.00    +0.000 C 
ATOM     14  C   UNL     1       4.850   6.987  17.172  0.00  0.00    +0.000 C 
ATOM     15  C   UNL     1       3.898   7.417  18.453  0.00  0.00    +0.000 C 
ATOM     16  N   UNL     1       6.268   7.346  17.214  0.00  0.00    +0.000 NA
ATOM     17  C   UNL     1       6.578   8.768  17.291  0.00  0.00    +0.000 C 
ATOM     18  C   UNL     1       7.186   6.488  17.943  0.00  0.00    +0.000 C 
ATOM     19  C   UNL     1       6.541   5.458  18.862  0.00  0.00    +0.000 C 
ATOM     20  C   UNL     1       5.250   4.832  18.292  0.00  0.00    +0.000 C 
ENDROOT
BRANCH  12  21
ATOM     21  C   UNL     1       5.727   3.638  15.383  0.00  0.00    +0.000 C 
ATOM     22  C   UNL     1       7.156   4.022  15.195  0.00  0.00    +0.000 C 
ATOM     23  C   UNL     1       6.279   3.814  13.990  0.00  0.00    +0.000 C 
ENDBRANCH  12  21
BRANCH   1  25
ATOM     24  C   UNL     1       1.084   2.573  21.811  0.00  0.00    +0.000 C 
ATOM     25  O   UNL     1       2.474   2.667  21.475  0.00  0.00    +0.000 OA
ENDBRANCH   1  25
TORSDOF 2
ENDMDL
MODEL 4
REMARK VINA RESULT:      -6.2      9.975     12.194
REMARK  Name = 
REMARK  4 active torsions:
REMARK  status: ('A' for Active; 'I' for Inactive)
REMARK    1  A    between atoms: C_1  and  O_2
REMARK    2  A    between atoms: O_2  and  C_3
REMARK    3  A    between atoms: C_14  and  C_15
REMARK    4  A    between atoms: N_21  and  C_22
REMARK                            x       y       z     vdW  Elec       q    Type
REMARK                         _______ _______ _______ _____ _____    ______ ____
ROOT
ATOM      1  C   UNL     1      11.493  12.883  19.153  0.00  0.00    +0.000 A 
ATOM      2  C   UNL     1      11.032  11.568  19.358  0.00  0.00    +0.000 A 
ATOM      3  C   UNL     1      10.099  11.217  20.393  0.00  0.00    +0.000 A 
ATOM      4  C   UNL     1       9.569  12.196  21.234  0.00  0.00    +0.000 A 
ATOM      5  C   UNL     1       9.985  13.473  20.920  0.00  0.00    +0.000 A 
ATOM      6  C   UNL     1      10.939  13.825  19.971  0.00  0.00    +0.000 A 
ATOM      7  O   UNL     1      10.998  15.191  19.821  0.00  0.00    +0.000 OA
ATOM      8  C   UNL     1       9.634  15.545  20.110  0.00  0.00    +0.000 C 
ATOM      9  C   UNL     1       8.753  15.273  18.824  0.00  0.00    +0.000 C 
ATOM     10  O   UNL     1       9.215  15.367  17.683  0.00  0.00    +0.000 OA
ATOM     11  C   UNL     1       7.282  14.869  19.007  0.00  0.00    +0.000 C 
ATOM     12  C   UNL     1       6.815  15.167  20.470  0.00  0.00    +0.000 C 
ATOM     13  C   UNL     1       7.762  14.263  21.297  0.00  0.00    +0.000 C 
ATOM     14  C   UNL     1       7.531  13.396  22.545  0.00  0.00    +0.000 C 
ATOM     15  C   UNL     1       8.468  12.055  22.307  0.00  0.00    +0.000 C 
ATOM     16  N   UNL     1       7.729  14.167  23.774  0.00  0.00    +0.000 NA
ATOM     17  C   UNL     1       7.488  13.466  25.028  0.00  0.00    +0.000 C 
ATOM     18  C   UNL     1       8.806  15.140  23.823  0.00  0.00    +0.000 C 
ATOM     19  C   UNL     1       9.831  15.051  22.700  0.00  0.00    +0.000 C 
ATOM     20  C   UNL     1       9.223  14.700  21.324  0.00  0.00    +0.000 C 
ENDROOT
BRANCH  12  21
ATOM     21  C   UNL     1       6.855  16.683  20.563  0.00  0.00    +0.000 C 
ATOM     22  C   UNL     1       6.801  17.516  21.799  0.00  0.00    +0.000 C 
ATOM     23  C   UNL     1       5.576  17.392  20.934  0.00  0.00    +0.000 C 
ENDBRANCH  12  21
BRANCH   1  25
ATOM     24  C   UNL     1      11.698  13.229  16.801  0.00  0.00    +0.000 C 
ATOM     25  O   UNL     1      12.316  13.119  18.089  0.00  0.00    +0.000 OA
ENDBRANCH   1  25
TORSDOF 2
ENDMDL
MODEL 5
REMARK VINA RESULT:      -6.1      6.796     11.682
REMARK  Name = 
REMARK  4 active torsions:
REMARK  status: ('A' for Active; 'I' for Inactive)
REMARK    1  A    between atoms: C_1  and  O_2
REMARK    2  A    between atoms: O_2  and  C_3
REMARK    3  A    between atoms: C_14  and  C_15
REMARK    4  A    between atoms: N_21  and  C_22
REMARK                            x       y       z     vdW  Elec       q    Type
REMARK                         _______ _______ _______ _____ _____    ______ ____
ROOT
ATOM      1  C   UNL     1      -0.531  11.318  20.335  0.00  0.00    +0.000 A 
ATOM      2  C   UNL     1      -1.328  11.565  19.201  0.00  0.00    +0.000 A 
ATOM      3  C   UNL     1      -2.641  12.147  19.278  0.00  0.00    +0.000 A 
ATOM      4  C   UNL     1      -3.175  12.536  20.506  0.00  0.00    +0.000 A 
ATOM      5  C   UNL     1      -2.307  12.357  21.564  0.00  0.00    +0.000 A 
ATOM      6  C   UNL     1      -1.065  11.732  21.521  0.00  0.00    +0.000 A 
ATOM      7  O   UNL     1      -0.412  11.861  22.725  0.00  0.00    +0.000 OA
ATOM      8  C   UNL     1      -0.927  13.130  23.167  0.00  0.00    +0.000 C 
ATOM      9  C   UNL     1      -0.142  14.286  22.426  0.00  0.00    +0.000 C 
ATOM     10  O   UNL     1       1.034  14.156  22.073  0.00  0.00    +0.000 OA
ATOM     11  C   UNL     1      -0.873  15.604  22.128  0.00  0.00    +0.000 C 
ATOM     12  C   UNL     1      -2.191  15.694  22.967  0.00  0.00    +0.000 C 
ATOM     13  C   UNL     1      -2.985  14.471  22.446  0.00  0.00    +0.000 C 
ATOM     14  C   UNL     1      -4.474  14.269  22.125  0.00  0.00    +0.000 C 
ATOM     15  C   UNL     1      -4.490  13.291  20.792  0.00  0.00    +0.000 C 
ATOM     16  N   UNL     1      -5.221  13.836  23.307  0.00  0.00    +0.000 NA
ATOM     17  C   UNL     1      -6.658  13.658  23.143  0.00  0.00    +0.000 C 
ATOM     18  C   UNL     1      -4.597  12.894  24.222  0.00  0.00    +0.000 C 
ATOM     19  C   UNL     1      -3.343  12.201  23.705  0.00  0.00    +0.000 C 
ATOM     20  C   UNL     1      -2.429  13.111  22.855  0.00  0.00    +0.000 C 
ENDROOT
BRANCH  12  21
ATOM     21  C   UNL     1      -1.703  15.793  24.402  0.00  0.00    +0.000 C 
ATOM     22  C   UNL     1      -2.457  15.446  25.641  0.00  0.00    +0.000 C 
ATOM     23  C   UNL     1      -2.282  16.891  25.261  0.00  0.00    +0.000 C 
ENDBRANCH  12  21
BRANCH   1  25
ATOM     24  C   UNL     1       0.941  10.000  18.997  0.00  0.00    +0.000 C 
ATOM     25  O   UNL     1       0.733  10.837  20.142  0.00  0.00    +0.000 OA
ENDBRANCH   1  25
TORSDOF 2
ENDMDL
MODEL 6
REMARK VINA RESULT:      -6.0      9.899     11.978
REMARK  Name = 
REMARK  4 active torsions:
REMARK  status: ('A' for Active; 'I' for Inactive)
REMARK    1  A    between atoms: C_1  and  O_2
REMARK    2  A    between atoms: O_2  and  C_3
REMARK    3  A    between atoms: C_14  and  C_15
REMARK    4  A    between atoms: N_21  and  C_22
REMARK                            x       y       z     vdW  Elec       q    Type
REMARK                         _______ _______ _______ _____ _____    ______ ____
ROOT
ATOM      1  C   UNL     1       5.715  15.042  20.534  0.00  0.00    +0.000 A 
ATOM      2  C   UNL     1       6.033  14.624  21.840  0.00  0.00    +0.000 A 
ATOM      3  C   UNL     1       7.292  14.024  22.187  0.00  0.00    +0.000 A 
ATOM      4  C   UNL     1       8.291  13.861  21.226  0.00  0.00    +0.000 A 
ATOM      5  C   UNL     1       7.953  14.376  19.991  0.00  0.00    +0.000 A 
ATOM      6  C   UNL     1       6.717  14.896  19.619  0.00  0.00    +0.000 A 
ATOM      7  O   UNL     1       6.781  15.451  18.362  0.00  0.00    +0.000 OA
ATOM      8  C   UNL     1       8.149  15.897  18.342  0.00  0.00    +0.000 C 
ATOM      9  C   UNL     1       8.253  17.262  19.135  0.00  0.00    +0.000 C 
ATOM     10  O   UNL     1       7.316  18.064  19.183  0.00  0.00    +0.000 OA
ATOM     11  C   UNL     1       9.559  17.589  19.874  0.00  0.00    +0.000 C 
ATOM     12  C   UNL     1      10.710  16.647  19.388  0.00  0.00    +0.000 C 
ATOM     13  C   UNL     1      10.166  15.251  19.780  0.00  0.00    +0.000 C 
ATOM     14  C   UNL     1      10.849  14.006  20.365  0.00  0.00    +0.000 C 
ATOM     15  C   UNL     1       9.741  13.369  21.413  0.00  0.00    +0.000 C 
ATOM     16  N   UNL     1      11.377  13.141  19.308  0.00  0.00    +0.000 NA
ATOM     17  C   UNL     1      12.095  11.948  19.740  0.00  0.00    +0.000 C 
ATOM     18  C   UNL     1      10.601  12.971  18.091  0.00  0.00    +0.000 C 
ATOM     19  C   UNL     1       9.160  13.462  18.151  0.00  0.00    +0.000 C 
ATOM     20  C   UNL     1       8.974  14.762  18.963  0.00  0.00    +0.000 C 
ENDROOT
BRANCH  12  21
ATOM     21  C   UNL     1      10.927  17.056  17.941  0.00  0.00    +0.000 C 
ATOM     22  C   UNL     1      11.593  16.265  16.867  0.00  0.00    +0.000 C 
ATOM     23  C   UNL     1      12.333  17.402  17.518  0.00  0.00    +0.000 C 
ENDBRANCH  12  21
BRANCH   1  25
ATOM     24  C   UNL     1       3.474  14.907  19.726  0.00  0.00    +0.000 C 
ATOM     25  O   UNL     1       4.522  15.674  20.332  0.00  0.00    +0.000 OA
ENDBRANCH   1  25
TORSDOF 2
ENDMDL
MODEL 7
REMARK VINA RESULT:      -5.9      9.984     12.115
REMARK  Name = 
REMARK  4 active torsions:
REMARK  status: ('A' for Active; 'I' for Inactive)
REMARK    1  A    between atoms: C_1  and  O_2
REMARK    2  A    between atoms: O_2  and  C_3
REMARK    3  A    between atoms: C_14  and  C_15
REMARK    4  A    between atoms: N_21  and  C_22
REMARK                            x       y       z     vdW  Elec       q    Type
REMARK                         _______ _______ _______ _____ _____    ______ ____
ROOT
ATOM      1  C   UNL     1       9.677  10.898  19.617  0.00  0.00    +0.000 A 
ATOM      2  C   UNL     1       9.106  10.779  20.898  0.00  0.00    +0.000 A 
ATOM      3  C   UNL     1       9.130  11.839  21.869  0.00  0.00    +0.000 A 
ATOM      4  C   UNL     1       9.700  13.074  21.559  0.00  0.00    +0.000 A 
ATOM      5  C   UNL     1      10.155  13.157  20.258  0.00  0.00    +0.000 A 
ATOM      6  C   UNL     1      10.205  12.123  19.329  0.00  0.00    +0.000 A 
ATOM      7  O   UNL     1      10.576  12.597  18.093  0.00  0.00    +0.000 OA
ATOM      8  C   UNL     1      10.029  13.926  18.146  0.00  0.00    +0.000 C 
ATOM      9  C   UNL     1       8.478  13.852  17.838  0.00  0.00    +0.000 C 
ATOM     10  O   UNL     1       7.999  12.987  17.099  0.00  0.00    +0.000 OA
ATOM     11  C   UNL     1       7.545  14.883  18.490  0.00  0.00    +0.000 C 
ATOM     12  C   UNL     1       8.375  16.078  19.066  0.00  0.00    +0.000 C 
ATOM     13  C   UNL     1       9.265  15.370  20.117  0.00  0.00    +0.000 C 
ATOM     14  C   UNL     1       9.717  15.777  21.528  0.00  0.00    +0.000 C 
ATOM     15  C   UNL     1       9.712  14.370  22.396  0.00  0.00    +0.000 C 
ATOM     16  N   UNL     1      10.955  16.558  21.487  0.00  0.00    +0.000 NA
ATOM     17  C   UNL     1      11.459  17.048  22.763  0.00  0.00    +0.000 C 
ATOM     18  C   UNL     1      11.986  16.185  20.534  0.00  0.00    +0.000 C 
ATOM     19  C   UNL     1      11.816  14.822  19.875  0.00  0.00    +0.000 C 
ATOM     20  C   UNL     1      10.351  14.463  19.547  0.00  0.00    +0.000 C 
ENDROOT
BRANCH  12  21
ATOM     21  C   UNL     1       8.953  16.748  17.832  0.00  0.00    +0.000 C 
ATOM     22  C   UNL     1      10.278  17.420  17.704  0.00  0.00    +0.000 C 
ATOM     23  C   UNL     1       9.033  18.255  17.830  0.00  0.00    +0.000 C 
ENDBRANCH  12  21
BRANCH   1  25
ATOM     24  C   UNL     1       8.218   9.654  18.197  0.00  0.00    +0.000 C 
ATOM     25  O   UNL     1       9.526   9.857  18.745  0.00  0.00    +0.000 OA
ENDBRANCH   1  25
TORSDOF 2
ENDMDL
MODEL 8
REMARK VINA RESULT:      -5.9      9.606     11.729
REMARK  Name = 
REMARK  4 active torsions:
REMARK  status: ('A' for Active; 'I' for Inactive)
REMARK    1  A    between atoms: C_1  and  O_2
REMARK    2  A    between atoms: O_2  and  C_3
REMARK    3  A    between atoms: C_14  and  C_15
REMARK    4  A    between atoms: N_21  and  C_22
REMARK                            x       y       z     vdW  Elec       q    Type
REMARK                         _______ _______ _______ _____ _____    ______ ____
ROOT
ATOM      1  C   UNL     1       6.545  13.188  22.865  0.00  0.00    +0.000 A 
ATOM      2  C   UNL     1       7.239  12.054  23.329  0.00  0.00    +0.000 A 
ATOM      3  C   UNL     1       8.419  11.541  22.687  0.00  0.00    +0.000 A 
ATOM      4  C   UNL     1       8.958  12.184  21.572  0.00  0.00    +0.000 A 
ATOM      5  C   UNL     1       8.288  13.339  21.227  0.00  0.00    +0.000 A 
ATOM      6  C   UNL     1       7.107  13.813  21.791  0.00  0.00    +0.000 A 
ATOM      7  O   UNL     1       6.803  15.063  21.306  0.00  0.00    +0.000 OA
ATOM      8  C   UNL     1       8.125  15.579  21.066  0.00  0.00    +0.000 C 
ATOM      9  C   UNL     1       8.737  16.075  22.438  0.00  0.00    +0.000 C 
ATOM     10  O   UNL     1       8.029  16.517  23.348  0.00  0.00    +0.000 OA
ATOM     11  C   UNL     1      10.257  15.992  22.642  0.00  0.00    +0.000 C 
ATOM     12  C   UNL     1      10.978  15.765  21.272  0.00  0.00    +0.000 C 
ATOM     13  C   UNL     1      10.387  14.406  20.823  0.00  0.00    +0.000 C 
ATOM     14  C   UNL     1      11.017  13.185  20.134  0.00  0.00    +0.000 C 
ATOM     15  C   UNL     1      10.274  11.880  20.825  0.00  0.00    +0.000 C 
ATOM     16  N   UNL     1      10.972  13.314  18.677  0.00  0.00    +0.000 NA
ATOM     17  C   UNL     1      11.586  12.238  17.908  0.00  0.00    +0.000 C 
ATOM     18  C   UNL     1       9.792  13.896  18.062  0.00  0.00    +0.000 C 
ATOM     19  C   UNL     1       8.575  14.037  18.967  0.00  0.00    +0.000 C 
ATOM     20  C   UNL     1       8.916  14.435  20.419  0.00  0.00    +0.000 C 
ENDROOT
BRANCH  12  21
ATOM     21  C   UNL     1      10.721  17.053  20.508  0.00  0.00    +0.000 C 
ATOM     22  C   UNL     1      10.843  17.274  19.039  0.00  0.00    +0.000 C 
ATOM     23  C   UNL     1      11.918  17.787  19.958  0.00  0.00    +0.000 C 
ENDBRANCH  12  21
BRANCH   1  25
ATOM     24  C   UNL     1       5.741  13.996  24.962  0.00  0.00    +0.000 C 
ATOM     25  O   UNL     1       5.483  13.637  23.598  0.00  0.00    +0.000 OA
ENDBRANCH   1  25
TORSDOF 2
ENDMDL
MODEL 9
REMARK VINA RESULT:      -5.9      5.576     10.134
REMARK  Name = 
REMARK  4 active torsions:
REMARK  status: ('A' for Active; 'I' for Inactive)
REMARK    1  A    between atoms: C_1  and  O_2
REMARK    2  A    between atoms: O_2  and  C_3
REMARK    3  A    between atoms: C_14  and  C_15
REMARK    4  A    between atoms: N_21  and  C_22
REMARK                            x       y       z     vdW  Elec       q    Type
REMARK                         _______ _______ _______ _____ _____    ______ ____
ROOT
ATOM      1  C   UNL     1       0.718  10.097  18.912  0.00  0.00    +0.000 A 
ATOM      2  C   UNL     1      -0.256  10.038  17.897  0.00  0.00    +0.000 A 
ATOM      3  C   UNL     1      -1.573  10.596  18.042  0.00  0.00    +0.000 A 
ATOM      4  C   UNL     1      -1.936  11.268  19.210  0.00  0.00    +0.000 A 
ATOM      5  C   UNL     1      -0.908  11.373  20.124  0.00  0.00    +0.000 A 
ATOM      6  C   UNL     1       0.347  10.781  20.033  0.00  0.00    +0.000 A 
ATOM      7  O   UNL     1       1.167  11.218  21.047  0.00  0.00    +0.000 OA
ATOM      8  C   UNL     1       0.652  12.546  21.247  0.00  0.00    +0.000 C 
ATOM      9  C   UNL     1       1.246  13.497  20.131  0.00  0.00    +0.000 C 
ATOM     10  O   UNL     1       2.359  13.307  19.634  0.00  0.00    +0.000 OA
ATOM     11  C   UNL     1       0.402  14.685  19.646  0.00  0.00    +0.000 C 
ATOM     12  C   UNL     1      -0.777  14.956  20.640  0.00  0.00    +0.000 C 
ATOM     13  C   UNL     1      -1.567  13.627  20.566  0.00  0.00    +0.000 C 
ATOM     14  C   UNL     1      -3.073  13.322  20.549  0.00  0.00    +0.000 C 
ATOM     15  C   UNL     1      -3.235  12.044  19.513  0.00  0.00    +0.000 C 
ATOM     16  N   UNL     1      -3.604  13.182  21.907  0.00  0.00    +0.000 NA
ATOM     17  C   UNL     1      -5.036  12.941  22.025  0.00  0.00    +0.000 C 
ATOM     18  C   UNL     1      -2.794  12.508  22.908  0.00  0.00    +0.000 C 
ATOM     19  C   UNL     1      -1.595  11.733  22.378  0.00  0.00    +0.000 C 
ATOM     20  C   UNL     1      -0.877  12.421  21.196  0.00  0.00    +0.000 C 
ENDROOT
BRANCH  12  21
ATOM     21  C   UNL     1      -0.082  15.417  21.910  0.00  0.00    +0.000 C 
ATOM     22  C   UNL     1      -0.642  15.436  23.292  0.00  0.00    +0.000 C 
ATOM     23  C   UNL     1      -0.535  16.722  22.517  0.00  0.00    +0.000 C 
ENDBRANCH  12  21
BRANCH   1  25
ATOM     24  C   UNL     1       2.033   8.401  17.867  0.00  0.00    +0.000 C 
ATOM     25  O   UNL     1       1.964   9.607  18.639  0.00  0.00    +0.000 OA
ENDBRANCH   1  25
TORSDOF 2
ENDMDL
