MODEL 1
REMARK VINA RESULT:      -8.3      0.000      0.000
REMARK  Name = 
REMARK  6 active torsions:
REMARK  status: ('A' for Active; 'I' for Inactive)
REMARK    1  A    between atoms: C_1  and  O_2
REMARK    2  A    between atoms: O_2  and  C_3
REMARK    3  A    between atoms: C_8  and  C_9
REMARK    4  A    between atoms: C_20  and  O_21
REMARK    5  A    between atoms: O_21  and  C_22
REMARK    6  A    between atoms: C_22  and  C_23
REMARK                            x       y       z     vdW  Elec       q    Type
REMARK                         _______ _______ _______ _____ _____    ______ ____
ROOT
ATOM      1  C   UNL     1       2.461   7.079  18.618  0.00  0.00    +0.000 A 
ATOM      2  C   UNL     1       2.215   7.141  20.009  0.00  0.00    +0.000 A 
ATOM      3  C   UNL     1       1.383   8.176  20.642  0.00  0.00    +0.000 A 
ATOM      4  C   UNL     1       0.878   9.285  19.916  0.00  0.00    +0.000 A 
ATOM      5  C   UNL     1       1.257   9.201  18.560  0.00  0.00    +0.000 A 
ATOM      6  C   UNL     1       1.736   8.028  17.899  0.00  0.00    +0.000 A 
ATOM      7  C   UNL     1       1.983  10.393  17.971  0.00  0.00    +0.000 C 
ATOM      8  C   UNL     1       1.815  11.702  18.681  0.00  0.00    +0.000 C 
ATOM      9  N   UNL     1       1.447  11.650  20.082  0.00  0.00    +0.000 N 
ATOM     10  C   UNL     1       0.479  10.708  20.435  0.00  0.00    +0.000 A 
ATOM     11  C   UNL     1      -0.634  11.221  21.036  0.00  0.00    +0.000 A 
ATOM     12  C   UNL     1      -0.614  12.723  21.279  0.00  0.00    +0.000 A 
ATOM     13  N   UNL     1       0.425  13.461  21.182  0.00  0.00    +0.000 NA
ATOM     14  C   UNL     1       1.546  12.911  20.664  0.00  0.00    +0.000 A 
ATOM     15  O   UNL     1       2.568  13.566  20.557  0.00  0.00    +0.000 OA
ENDROOT
BRANCH   1  21
ATOM     16  C   UNL     1       3.551   4.964  17.533  0.00  0.00    +0.000 A 
ATOM     17  C   UNL     1       4.442   4.377  16.594  0.00  0.00    +0.000 A 
ATOM     18  C   UNL     1       5.440   5.129  15.996  0.00  0.00    +0.000 A 
ATOM     19  C   UNL     1       5.515   6.478  16.309  0.00  0.00    +0.000 A 
ATOM     20  C   UNL     1       4.595   7.078  17.203  0.00  0.00    +0.000 A 
ATOM     21  C   UNL     1       3.572   6.352  17.858  0.00  0.00    +0.000 A 
BRANCH  16  23
ATOM     22  C   UNL     1       2.645   2.819  17.658  0.00  0.00    +0.000 C 
ATOM     23  O   UNL     1       2.586   4.172  18.112  0.00  0.00    +0.000 OA
ENDBRANCH  16  23
ENDBRANCH   1  21
BRANCH  12  24
ATOM     24  O   UNL     1      -1.789  13.352  21.603  0.00  0.00    +0.000 OA
BRANCH  24  25
ATOM     25  C   UNL     1      -2.774  12.587  22.455  0.00  0.00    +0.000 C 
BRANCH  25  26
ATOM     26  C   UNL     1      -3.639  13.483  23.386  0.00  0.00    +0.000 C 
ATOM     27  C   UNL     1      -4.049  12.750  24.667  0.00  0.00    +0.000 C 
ATOM     28  O   UNL     1      -5.183  11.897  24.463  0.00  0.00    +0.000 OA
ATOM     29  C   UNL     1      -6.301  12.689  24.049  0.00  0.00    +0.000 C 
ATOM     30  C   UNL     1      -5.988  13.363  22.721  0.00  0.00    +0.000 C 
ATOM     31  O   UNL     1      -4.771  14.121  22.746  0.00  0.00    +0.000 OA
ENDBRANCH  25  26
ENDBRANCH  24  25
ENDBRANCH  12  24
TORSDOF 5
ENDMDL
MODEL 2
REMARK VINA RESULT:      -8.3      0.556      1.033
REMARK  Name = 
REMARK  6 active torsions:
REMARK  status: ('A' for Active; 'I' for Inactive)
REMARK    1  A    between atoms: C_1  and  O_2
REMARK    2  A    between atoms: O_2  and  C_3
REMARK    3  A    between atoms: C_8  and  C_9
REMARK    4  A    between atoms: C_20  and  O_21
REMARK    5  A    between atoms: O_21  and  C_22
REMARK    6  A    between atoms: C_22  and  C_23
REMARK                            x       y       z     vdW  Elec       q    Type
REMARK                         _______ _______ _______ _____ _____    ______ ____
ROOT
ATOM      1  C   UNL     1       2.414   7.189  18.603  0.00  0.00    +0.000 A 
ATOM      2  C   UNL     1       2.133   7.283  19.986  0.00  0.00    +0.000 A 
ATOM      3  C   UNL     1       1.340   8.370  20.581  0.00  0.00    +0.000 A 
ATOM      4  C   UNL     1       0.916   9.494  19.827  0.00  0.00    +0.000 A 
ATOM      5  C   UNL     1       1.328   9.371  18.484  0.00  0.00    +0.000 A 
ATOM      6  C   UNL     1       1.762   8.165  17.851  0.00  0.00    +0.000 A 
ATOM      7  C   UNL     1       2.132  10.514  17.900  0.00  0.00    +0.000 C 
ATOM      8  C   UNL     1       2.015  11.840  18.589  0.00  0.00    +0.000 C 
ATOM      9  N   UNL     1       1.606  11.827  19.980  0.00  0.00    +0.000 N 
ATOM     10  C   UNL     1       0.579  10.943  20.316  0.00  0.00    +0.000 A 
ATOM     11  C   UNL     1      -0.521  11.522  20.879  0.00  0.00    +0.000 A 
ATOM     12  C   UNL     1      -0.428  13.025  21.103  0.00  0.00    +0.000 A 
ATOM     13  N   UNL     1       0.652  13.705  21.027  0.00  0.00    +0.000 NA
ATOM     14  C   UNL     1       1.756  13.089  20.548  0.00  0.00    +0.000 A 
ATOM     15  O   UNL     1       2.814  13.687  20.462  0.00  0.00    +0.000 OA
ENDROOT
BRANCH   1  21
ATOM     16  C   UNL     1       3.453   4.988  17.643  0.00  0.00    +0.000 A 
ATOM     17  C   UNL     1       4.327   4.328  16.738  0.00  0.00    +0.000 A 
ATOM     18  C   UNL     1       5.339   5.020  16.093  0.00  0.00    +0.000 A 
ATOM     19  C   UNL     1       5.445   6.383  16.326  0.00  0.00    +0.000 A 
ATOM     20  C   UNL     1       4.542   7.055  17.185  0.00  0.00    +0.000 A 
ATOM     21  C   UNL     1       3.506   6.393  17.885  0.00  0.00    +0.000 A 
BRANCH  16  23
ATOM     22  C   UNL     1       2.543   2.864  17.952  0.00  0.00    +0.000 C 
ATOM     23  O   UNL     1       2.472   4.254  18.270  0.00  0.00    +0.000 OA
ENDBRANCH  16  23
ENDBRANCH   1  21
BRANCH  12  24
ATOM     24  O   UNL     1      -1.576  13.720  21.385  0.00  0.00    +0.000 OA
BRANCH  24  25
ATOM     25  C   UNL     1      -2.224  13.476  22.727  0.00  0.00    +0.000 C 
BRANCH  25  26
ATOM     26  C   UNL     1      -3.351  12.405  22.704  0.00  0.00    +0.000 C 
ATOM     27  C   UNL     1      -4.618  12.922  22.014  0.00  0.00    +0.000 C 
ATOM     28  O   UNL     1      -5.421  13.725  22.888  0.00  0.00    +0.000 OA
ATOM     29  C   UNL     1      -5.838  12.934  24.005  0.00  0.00    +0.000 C 
ATOM     30  C   UNL     1      -4.618  12.476  24.793  0.00  0.00    +0.000 C 
ATOM     31  O   UNL     1      -3.647  11.798  23.985  0.00  0.00    +0.000 OA
ENDBRANCH  25  26
ENDBRANCH  24  25
ENDBRANCH  12  24
TORSDOF 5
ENDMDL
MODEL 3
REMARK VINA RESULT:      -8.2      3.320      5.535
REMARK  Name = 
REMARK  6 active torsions:
REMARK  status: ('A' for Active; 'I' for Inactive)
REMARK    1  A    between atoms: C_1  and  O_2
REMARK    2  A    between atoms: O_2  and  C_3
REMARK    3  A    between atoms: C_8  and  C_9
REMARK    4  A    between atoms: C_20  and  O_21
REMARK    5  A    between atoms: O_21  and  C_22
REMARK    6  A    between atoms: C_22  and  C_23
REMARK                            x       y       z     vdW  Elec       q    Type
REMARK                         _______ _______ _______ _____ _____    ______ ____
ROOT
ATOM      1  C   UNL     1       2.356   6.622  19.208  0.00  0.00    +0.000 A 
ATOM      2  C   UNL     1       2.506   7.311  17.982  0.00  0.00    +0.000 A 
ATOM      3  C   UNL     1       2.293   8.760  17.834  0.00  0.00    +0.000 A 
ATOM      4  C   UNL     1       1.777   9.558  18.888  0.00  0.00    +0.000 A 
ATOM      5  C   UNL     1       1.557   8.773  20.039  0.00  0.00    +0.000 A 
ATOM      6  C   UNL     1       2.105   7.475  20.281  0.00  0.00    +0.000 A 
ATOM      7  C   UNL     1       0.169   8.808  20.644  0.00  0.00    +0.000 C 
ATOM      8  C   UNL     1      -0.686   9.990  20.300  0.00  0.00    +0.000 C 
ATOM      9  N   UNL     1      -0.370  10.698  19.074  0.00  0.00    +0.000 N 
ATOM     10  C   UNL     1       0.984  10.906  18.809  0.00  0.00    +0.000 A 
ATOM     11  C   UNL     1       1.349  12.213  18.657  0.00  0.00    +0.000 A 
ATOM     12  C   UNL     1       0.214  13.224  18.741  0.00  0.00    +0.000 A 
ATOM     13  N   UNL     1      -1.028  12.925  18.703  0.00  0.00    +0.000 NA
ATOM     14  C   UNL     1      -1.369  11.618  18.766  0.00  0.00    +0.000 A 
ATOM     15  O   UNL     1      -2.537  11.276  18.725  0.00  0.00    +0.000 OA
ENDROOT
BRANCH   1  21
ATOM     16  C   UNL     1       3.036   4.104  19.017  0.00  0.00    +0.000 A 
ATOM     17  C   UNL     1       2.981   2.769  19.502  0.00  0.00    +0.000 A 
ATOM     18  C   UNL     1       1.995   2.377  20.393  0.00  0.00    +0.000 A 
ATOM     19  C   UNL     1       1.093   3.336  20.829  0.00  0.00    +0.000 A 
ATOM     20  C   UNL     1       1.178   4.680  20.390  0.00  0.00    +0.000 A 
ATOM     21  C   UNL     1       2.151   5.128  19.464  0.00  0.00    +0.000 A 
BRANCH  16  23
ATOM     22  C   UNL     1       5.334   4.309  18.676  0.00  0.00    +0.000 C 
ATOM     23  O   UNL     1       4.025   4.441  18.121  0.00  0.00    +0.000 OA
ENDBRANCH  16  23
ENDBRANCH   1  21
BRANCH  12  24
ATOM     24  O   UNL     1       0.525  14.551  18.891  0.00  0.00    +0.000 OA
BRANCH  24  25
ATOM     25  C   UNL     1       1.944  14.970  18.587  0.00  0.00    +0.000 C 
BRANCH  25  26
ATOM     26  C   UNL     1       2.206  16.494  18.752  0.00  0.00    +0.000 C 
ATOM     27  C   UNL     1       0.905  17.282  18.936  0.00  0.00    +0.000 C 
ATOM     28  O   UNL     1       0.251  17.547  17.688  0.00  0.00    +0.000 OA
ATOM     29  C   UNL     1       1.113  18.335  16.861  0.00  0.00    +0.000 C 
ATOM     30  C   UNL     1       2.385  17.556  16.557  0.00  0.00    +0.000 C 
ATOM     31  O   UNL     1       3.052  17.084  17.735  0.00  0.00    +0.000 OA
ENDBRANCH  25  26
ENDBRANCH  24  25
ENDBRANCH  12  24
TORSDOF 5
ENDMDL
MODEL 4
REMARK VINA RESULT:      -8.1      3.361      5.868
REMARK  Name = 
REMARK  6 active torsions:
REMARK  status: ('A' for Active; 'I' for Inactive)
REMARK    1  A    between atoms: C_1  and  O_2
REMARK    2  A    between atoms: O_2  and  C_3
REMARK    3  A    between atoms: C_8  and  C_9
REMARK    4  A    between atoms: C_20  and  O_21
REMARK    5  A    between atoms: O_21  and  C_22
REMARK    6  A    between atoms: C_22  and  C_23
REMARK                            x       y       z     vdW  Elec       q    Type
REMARK                         _______ _______ _______ _____ _____    ______ ____
ROOT
ATOM      1  C   UNL     1       2.366   6.775  19.238  0.00  0.00    +0.000 A 
ATOM      2  C   UNL     1       2.497   7.433  17.993  0.00  0.00    +0.000 A 
ATOM      3  C   UNL     1       2.258   8.873  17.805  0.00  0.00    +0.000 A 
ATOM      4  C   UNL     1       1.732   9.690  18.839  0.00  0.00    +0.000 A 
ATOM      5  C   UNL     1       1.532   8.935  20.012  0.00  0.00    +0.000 A 
ATOM      6  C   UNL     1       2.105   7.654  20.288  0.00  0.00    +0.000 A 
ATOM      7  C   UNL     1       0.147   8.962  20.625  0.00  0.00    +0.000 C 
ATOM      8  C   UNL     1      -0.731  10.118  20.252  0.00  0.00    +0.000 C 
ATOM      9  N   UNL     1      -0.434  10.797  19.005  0.00  0.00    +0.000 N 
ATOM     10  C   UNL     1       0.915  11.022  18.727  0.00  0.00    +0.000 A 
ATOM     11  C   UNL     1       1.255  12.330  18.537  0.00  0.00    +0.000 A 
ATOM     12  C   UNL     1       0.102  13.323  18.598  0.00  0.00    +0.000 A 
ATOM     13  N   UNL     1      -1.134  13.001  18.575  0.00  0.00    +0.000 NA
ATOM     14  C   UNL     1      -1.451  11.690  18.677  0.00  0.00    +0.000 A 
ATOM     15  O   UNL     1      -2.613  11.327  18.652  0.00  0.00    +0.000 OA
ENDROOT
BRANCH   1  21
ATOM     16  C   UNL     1       3.142   4.278  19.206  0.00  0.00    +0.000 A 
ATOM     17  C   UNL     1       3.089   2.962  19.738  0.00  0.00    +0.000 A 
ATOM     18  C   UNL     1       2.046   2.568  20.561  0.00  0.00    +0.000 A 
ATOM     19  C   UNL     1       1.080   3.510  20.881  0.00  0.00    +0.000 A 
ATOM     20  C   UNL     1       1.158   4.838  20.397  0.00  0.00    +0.000 A 
ATOM     21  C   UNL     1       2.189   5.286  19.536  0.00  0.00    +0.000 A 
BRANCH  16  23
ATOM     22  C   UNL     1       5.440   4.647  19.071  0.00  0.00    +0.000 C 
ATOM     23  O   UNL     1       4.190   4.616  18.381  0.00  0.00    +0.000 OA
ENDBRANCH  16  23
ENDBRANCH   1  21
BRANCH  12  24
ATOM     24  O   UNL     1       0.390  14.658  18.709  0.00  0.00    +0.000 OA
BRANCH  24  25
ATOM     25  C   UNL     1       1.750  15.033  19.249  0.00  0.00    +0.000 C 
BRANCH  25  26
ATOM     26  C   UNL     1       2.494  16.108  18.407  0.00  0.00    +0.000 C 
ATOM     27  C   UNL     1       3.554  15.486  17.492  0.00  0.00    +0.000 C 
ATOM     28  O   UNL     1       4.776  15.210  18.188  0.00  0.00    +0.000 OA
ATOM     29  C   UNL     1       5.317  16.433  18.695  0.00  0.00    +0.000 C 
ATOM     30  C   UNL     1       4.348  17.047  19.695  0.00  0.00    +0.000 C 
ATOM     31  O   UNL     1       3.027  17.221  19.166  0.00  0.00    +0.000 OA
ENDBRANCH  25  26
ENDBRANCH  24  25
ENDBRANCH  12  24
TORSDOF 5
ENDMDL
MODEL 5
REMARK VINA RESULT:      -8.1      3.291      5.485
REMARK  Name = 
REMARK  6 active torsions:
REMARK  status: ('A' for Active; 'I' for Inactive)
REMARK    1  A    between atoms: C_1  and  O_2
REMARK    2  A    between atoms: O_2  and  C_3
REMARK    3  A    between atoms: C_8  and  C_9
REMARK    4  A    between atoms: C_20  and  O_21
REMARK    5  A    between atoms: O_21  and  C_22
REMARK    6  A    between atoms: C_22  and  C_23
REMARK                            x       y       z     vdW  Elec       q    Type
REMARK                         _______ _______ _______ _____ _____    ______ ____
ROOT
ATOM      1  C   UNL     1       2.362   6.549  19.275  0.00  0.00    +0.000 A 
ATOM      2  C   UNL     1       2.483   7.200  18.025  0.00  0.00    +0.000 A 
ATOM      3  C   UNL     1       2.246   8.640  17.833  0.00  0.00    +0.000 A 
ATOM      4  C   UNL     1       1.731   9.464  18.866  0.00  0.00    +0.000 A 
ATOM      5  C   UNL     1       1.541   8.714  20.046  0.00  0.00    +0.000 A 
ATOM      6  C   UNL     1       2.112   7.434  20.323  0.00  0.00    +0.000 A 
ATOM      7  C   UNL     1       0.161   8.748  20.670  0.00  0.00    +0.000 C 
ATOM      8  C   UNL     1      -0.718   9.904  20.299  0.00  0.00    +0.000 C 
ATOM      9  N   UNL     1      -0.431  10.576  19.047  0.00  0.00    +0.000 N 
ATOM     10  C   UNL     1       0.916  10.797  18.755  0.00  0.00    +0.000 A 
ATOM     11  C   UNL     1       1.257  12.103  18.555  0.00  0.00    +0.000 A 
ATOM     12  C   UNL     1       0.108  13.098  18.622  0.00  0.00    +0.000 A 
ATOM     13  N   UNL     1      -1.130  12.779  18.612  0.00  0.00    +0.000 NA
ATOM     14  C   UNL     1      -1.448  11.470  18.723  0.00  0.00    +0.000 A 
ATOM     15  O   UNL     1      -2.612  11.109  18.711  0.00  0.00    +0.000 OA
ENDROOT
BRANCH   1  21
ATOM     16  C   UNL     1       3.183   4.068  19.365  0.00  0.00    +0.000 A 
ATOM     17  C   UNL     1       3.104   2.760  19.914  0.00  0.00    +0.000 A 
ATOM     18  C   UNL     1       1.993   2.359  20.640  0.00  0.00    +0.000 A 
ATOM     19  C   UNL     1       0.983   3.287  20.848  0.00  0.00    +0.000 A 
ATOM     20  C   UNL     1       1.083   4.608  20.348  0.00  0.00    +0.000 A 
ATOM     21  C   UNL     1       2.184   5.062  19.583  0.00  0.00    +0.000 A 
BRANCH  16  23
ATOM     22  C   UNL     1       4.281   3.874  17.317  0.00  0.00    +0.000 C 
ATOM     23  O   UNL     1       4.300   4.413  18.639  0.00  0.00    +0.000 OA
ENDBRANCH  16  23
ENDBRANCH   1  21
BRANCH  12  24
ATOM     24  O   UNL     1       0.400  14.434  18.723  0.00  0.00    +0.000 OA
BRANCH  24  25
ATOM     25  C   UNL     1       0.981  14.921  20.029  0.00  0.00    +0.000 C 
BRANCH  25  26
ATOM     26  C   UNL     1       2.244  15.814  19.869  0.00  0.00    +0.000 C 
ATOM     27  C   UNL     1       1.905  17.184  19.272  0.00  0.00    +0.000 C 
ATOM     28  O   UNL     1       1.779  17.137  17.845  0.00  0.00    +0.000 OA
ATOM     29  C   UNL     1       3.023  16.720  17.275  0.00  0.00    +0.000 C 
ATOM     30  C   UNL     1       3.362  15.315  17.753  0.00  0.00    +0.000 C 
ATOM     31  O   UNL     1       3.355  15.189  19.181  0.00  0.00    +0.000 OA
ENDBRANCH  25  26
ENDBRANCH  24  25
ENDBRANCH  12  24
TORSDOF 5
ENDMDL
MODEL 6
REMARK VINA RESULT:      -8.0      1.149      1.273
REMARK  Name = 
REMARK  6 active torsions:
REMARK  status: ('A' for Active; 'I' for Inactive)
REMARK    1  A    between atoms: C_1  and  O_2
REMARK    2  A    between atoms: O_2  and  C_3
REMARK    3  A    between atoms: C_8  and  C_9
REMARK    4  A    between atoms: C_20  and  O_21
REMARK    5  A    between atoms: O_21  and  C_22
REMARK    6  A    between atoms: C_22  and  C_23
REMARK                            x       y       z     vdW  Elec       q    Type
REMARK                         _______ _______ _______ _____ _____    ______ ____
ROOT
ATOM      1  C   UNL     1       2.590   6.971  18.562  0.00  0.00    +0.000 A 
ATOM      2  C   UNL     1       2.322   7.039  19.949  0.00  0.00    +0.000 A 
ATOM      3  C   UNL     1       1.456   8.060  20.560  0.00  0.00    +0.000 A 
ATOM      4  C   UNL     1       0.937   9.151  19.817  0.00  0.00    +0.000 A 
ATOM      5  C   UNL     1       1.337   9.064  18.467  0.00  0.00    +0.000 A 
ATOM      6  C   UNL     1       1.854   7.897  17.823  0.00  0.00    +0.000 A 
ATOM      7  C   UNL     1       2.044  10.267  17.878  0.00  0.00    +0.000 C 
ATOM      8  C   UNL     1       1.835  11.578  18.574  0.00  0.00    +0.000 C 
ATOM      9  N   UNL     1       1.448  11.529  19.970  0.00  0.00    +0.000 N 
ATOM     10  C   UNL     1       0.497  10.568  20.317  0.00  0.00    +0.000 A 
ATOM     11  C   UNL     1      -0.637  11.060  20.897  0.00  0.00    +0.000 A 
ATOM     12  C   UNL     1      -0.656  12.564  21.127  0.00  0.00    +0.000 A 
ATOM     13  N   UNL     1       0.367  13.325  21.039  0.00  0.00    +0.000 NA
ATOM     14  C   UNL     1       1.509  12.798  20.543  0.00  0.00    +0.000 A 
ATOM     15  O   UNL     1       2.517  13.475  20.445  0.00  0.00    +0.000 OA
ENDROOT
BRANCH   1  21
ATOM     16  C   UNL     1       3.828   4.851  17.660  0.00  0.00    +0.000 A 
ATOM     17  C   UNL     1       4.726   4.242  16.743  0.00  0.00    +0.000 A 
ATOM     18  C   UNL     1       5.616   5.006  16.006  0.00  0.00    +0.000 A 
ATOM     19  C   UNL     1       5.574   6.383  16.160  0.00  0.00    +0.000 A 
ATOM     20  C   UNL     1       4.644   6.998  17.033  0.00  0.00    +0.000 A 
ATOM     21  C   UNL     1       3.729   6.264  17.825  0.00  0.00    +0.000 A 
BRANCH  16  23
ATOM     22  C   UNL     1       3.641   3.338  19.424  0.00  0.00    +0.000 C 
ATOM     23  O   UNL     1       2.973   4.048  18.381  0.00  0.00    +0.000 OA
ENDBRANCH  16  23
ENDBRANCH   1  21
BRANCH  12  24
ATOM     24  O   UNL     1      -1.850  13.168  21.428  0.00  0.00    +0.000 OA
BRANCH  24  25
ATOM     25  C   UNL     1      -2.970  13.032  20.424  0.00  0.00    +0.000 C 
BRANCH  25  26
ATOM     26  C   UNL     1      -4.273  13.782  20.820  0.00  0.00    +0.000 C 
ATOM     27  C   UNL     1      -4.677  13.502  22.271  0.00  0.00    +0.000 C 
ATOM     28  O   UNL     1      -5.372  12.256  22.409  0.00  0.00    +0.000 OA
ATOM     29  C   UNL     1      -6.574  12.298  21.634  0.00  0.00    +0.000 C 
ATOM     30  C   UNL     1      -6.228  12.470  20.161  0.00  0.00    +0.000 C 
ATOM     31  O   UNL     1      -5.385  13.602  19.909  0.00  0.00    +0.000 OA
ENDBRANCH  25  26
ENDBRANCH  24  25
ENDBRANCH  12  24
TORSDOF 5
ENDMDL
MODEL 7
REMARK VINA RESULT:      -8.0      3.352      5.129
REMARK  Name = 
REMARK  6 active torsions:
REMARK  status: ('A' for Active; 'I' for Inactive)
REMARK    1  A    between atoms: C_1  and  O_2
REMARK    2  A    between atoms: O_2  and  C_3
REMARK    3  A    between atoms: C_8  and  C_9
REMARK    4  A    between atoms: C_20  and  O_21
REMARK    5  A    between atoms: O_21  and  C_22
REMARK    6  A    between atoms: C_22  and  C_23
REMARK                            x       y       z     vdW  Elec       q    Type
REMARK                         _______ _______ _______ _____ _____    ______ ____
ROOT
ATOM      1  C   UNL     1       2.365   6.526  19.196  0.00  0.00    +0.000 A 
ATOM      2  C   UNL     1       2.479   7.183  17.948  0.00  0.00    +0.000 A 
ATOM      3  C   UNL     1       2.273   8.629  17.770  0.00  0.00    +0.000 A 
ATOM      4  C   UNL     1       1.798   9.458  18.818  0.00  0.00    +0.000 A 
ATOM      5  C   UNL     1       1.610   8.705  19.995  0.00  0.00    +0.000 A 
ATOM      6  C   UNL     1       2.155   7.409  20.254  0.00  0.00    +0.000 A 
ATOM      7  C   UNL     1       0.243   8.768  20.645  0.00  0.00    +0.000 C 
ATOM      8  C   UNL     1      -0.614   9.947  20.298  0.00  0.00    +0.000 C 
ATOM      9  N   UNL     1      -0.333  10.620  19.044  0.00  0.00    +0.000 N 
ATOM     10  C   UNL     1       1.013  10.811  18.730  0.00  0.00    +0.000 A 
ATOM     11  C   UNL     1       1.383  12.110  18.533  0.00  0.00    +0.000 A 
ATOM     12  C   UNL     1       0.259  13.132  18.627  0.00  0.00    +0.000 A 
ATOM     13  N   UNL     1      -0.986  12.843  18.637  0.00  0.00    +0.000 NA
ATOM     14  C   UNL     1      -1.334  11.541  18.746  0.00  0.00    +0.000 A 
ATOM     15  O   UNL     1      -2.506  11.209  18.751  0.00  0.00    +0.000 OA
ENDROOT
BRANCH   1  21
ATOM     16  C   UNL     1       3.073   4.009  19.138  0.00  0.00    +0.000 A 
ATOM     17  C   UNL     1       3.000   2.693  19.670  0.00  0.00    +0.000 A 
ATOM     18  C   UNL     1       1.970   2.326  20.521  0.00  0.00    +0.000 A 
ATOM     19  C   UNL     1       1.038   3.292  20.869  0.00  0.00    +0.000 A 
ATOM     20  C   UNL     1       1.138   4.619  20.385  0.00  0.00    +0.000 A 
ATOM     21  C   UNL     1       2.156   5.041  19.497  0.00  0.00    +0.000 A 
BRANCH  16  23
ATOM     22  C   UNL     1       5.357   4.438  18.963  0.00  0.00    +0.000 C 
ATOM     23  O   UNL     1       4.107   4.321  18.285  0.00  0.00    +0.000 OA
ENDBRANCH  16  23
ENDBRANCH   1  21
BRANCH  12  24
ATOM     24  O   UNL     1       0.585  14.460  18.732  0.00  0.00    +0.000 OA
BRANCH  24  25
ATOM     25  C   UNL     1       1.060  14.954  20.077  0.00  0.00    +0.000 C 
BRANCH  25  26
ATOM     26  C   UNL     1       2.593  15.202  20.159  0.00  0.00    +0.000 C 
ATOM     27  C   UNL     1       3.289  14.192  21.076  0.00  0.00    +0.000 C 
ATOM     28  O   UNL     1       3.176  14.548  22.459  0.00  0.00    +0.000 OA
ATOM     29  C   UNL     1       3.801  15.817  22.673  0.00  0.00    +0.000 C 
ATOM     30  C   UNL     1       3.081  16.886  21.862  0.00  0.00    +0.000 C 
ATOM     31  O   UNL     1       2.978  16.564  20.469  0.00  0.00    +0.000 OA
ENDBRANCH  25  26
ENDBRANCH  24  25
ENDBRANCH  12  24
TORSDOF 5
ENDMDL
MODEL 8
REMARK VINA RESULT:      -7.9      0.952      1.421
REMARK  Name = 
REMARK  6 active torsions:
REMARK  status: ('A' for Active; 'I' for Inactive)
REMARK    1  A    between atoms: C_1  and  O_2
REMARK    2  A    between atoms: O_2  and  C_3
REMARK    3  A    between atoms: C_8  and  C_9
REMARK    4  A    between atoms: C_20  and  O_21
REMARK    5  A    between atoms: O_21  and  C_22
REMARK    6  A    between atoms: C_22  and  C_23
REMARK                            x       y       z     vdW  Elec       q    Type
REMARK                         _______ _______ _______ _____ _____    ______ ____
ROOT
ATOM      1  C   UNL     1       2.525   7.150  18.559  0.00  0.00    +0.000 A 
ATOM      2  C   UNL     1       2.215   7.263  19.934  0.00  0.00    +0.000 A 
ATOM      3  C   UNL     1       1.386   8.343  20.494  0.00  0.00    +0.000 A 
ATOM      4  C   UNL     1       0.952   9.443  19.710  0.00  0.00    +0.000 A 
ATOM      5  C   UNL     1       1.393   9.305  18.378  0.00  0.00    +0.000 A 
ATOM      6  C   UNL     1       1.867   8.097  17.777  0.00  0.00    +0.000 A 
ATOM      7  C   UNL     1       2.184  10.454  17.789  0.00  0.00    +0.000 C 
ATOM      8  C   UNL     1       2.025  11.790  18.450  0.00  0.00    +0.000 C 
ATOM      9  N   UNL     1       1.588  11.794  19.832  0.00  0.00    +0.000 N 
ATOM     10  C   UNL     1       0.575  10.894  20.166  0.00  0.00    +0.000 A 
ATOM     11  C   UNL     1      -0.549  11.459  20.695  0.00  0.00    +0.000 A 
ATOM     12  C   UNL     1      -0.494  12.967  20.893  0.00  0.00    +0.000 A 
ATOM     13  N   UNL     1       0.572  13.669  20.825  0.00  0.00    +0.000 NA
ATOM     14  C   UNL     1       1.699  13.069  20.380  0.00  0.00    +0.000 A 
ATOM     15  O   UNL     1       2.745  13.689  20.303  0.00  0.00    +0.000 OA
ENDROOT
BRANCH   1  21
ATOM     16  C   UNL     1       3.709   4.943  17.807  0.00  0.00    +0.000 A 
ATOM     17  C   UNL     1       4.595   4.251  16.938  0.00  0.00    +0.000 A 
ATOM     18  C   UNL     1       5.509   4.940  16.157  0.00  0.00    +0.000 A 
ATOM     19  C   UNL     1       5.503   6.325  16.220  0.00  0.00    +0.000 A 
ATOM     20  C   UNL     1       4.586   7.021  17.045  0.00  0.00    +0.000 A 
ATOM     21  C   UNL     1       3.648   6.365  17.878  0.00  0.00    +0.000 A 
BRANCH  16  23
ATOM     22  C   UNL     1       2.078   3.278  17.801  0.00  0.00    +0.000 C 
ATOM     23  O   UNL     1       2.830   4.212  18.574  0.00  0.00    +0.000 OA
ENDBRANCH  16  23
ENDBRANCH   1  21
BRANCH  12  24
ATOM     24  O   UNL     1      -1.662  13.641  21.139  0.00  0.00    +0.000 OA
BRANCH  24  25
ATOM     25  C   UNL     1      -2.731  12.916  21.922  0.00  0.00    +0.000 C 
BRANCH  25  26
ATOM     26  C   UNL     1      -2.502  12.913  23.459  0.00  0.00    +0.000 C 
ATOM     27  C   UNL     1      -3.816  13.043  24.235  0.00  0.00    +0.000 C 
ATOM     28  O   UNL     1      -4.262  14.402  24.321  0.00  0.00    +0.000 OA
ATOM     29  C   UNL     1      -3.280  15.177  25.016  0.00  0.00    +0.000 C 
ATOM     30  C   UNL     1      -1.974  15.171  24.233  0.00  0.00    +0.000 C 
ATOM     31  O   UNL     1      -1.504  13.850  23.933  0.00  0.00    +0.000 OA
ENDBRANCH  25  26
ENDBRANCH  24  25
ENDBRANCH  12  24
TORSDOF 5
ENDMDL
MODEL 9
REMARK VINA RESULT:      -7.9      3.129      4.463
REMARK  Name = 
REMARK  6 active torsions:
REMARK  status: ('A' for Active; 'I' for Inactive)
REMARK    1  A    between atoms: C_1  and  O_2
REMARK    2  A    between atoms: O_2  and  C_3
REMARK    3  A    between atoms: C_8  and  C_9
REMARK    4  A    between atoms: C_20  and  O_21
REMARK    5  A    between atoms: O_21  and  C_22
REMARK    6  A    between atoms: C_22  and  C_23
REMARK                            x       y       z     vdW  Elec       q    Type
REMARK                         _______ _______ _______ _____ _____    ______ ____
ROOT
ATOM      1  C   UNL     1       2.417   6.495  19.299  0.00  0.00    +0.000 A 
ATOM      2  C   UNL     1       2.525   7.118  18.034  0.00  0.00    +0.000 A 
ATOM      3  C   UNL     1       2.294   8.555  17.813  0.00  0.00    +0.000 A 
ATOM      4  C   UNL     1       1.798   9.404  18.836  0.00  0.00    +0.000 A 
ATOM      5  C   UNL     1       1.619   8.681  20.034  0.00  0.00    +0.000 A 
ATOM      6  C   UNL     1       2.186   7.404  20.331  0.00  0.00    +0.000 A 
ATOM      7  C   UNL     1       0.248   8.738  20.675  0.00  0.00    +0.000 C 
ATOM      8  C   UNL     1      -0.629   9.891  20.291  0.00  0.00    +0.000 C 
ATOM      9  N   UNL     1      -0.354  10.533  19.020  0.00  0.00    +0.000 N 
ATOM     10  C   UNL     1       0.990  10.739  18.707  0.00  0.00    +0.000 A 
ATOM     11  C   UNL     1       1.336  12.039  18.474  0.00  0.00    +0.000 A 
ATOM     12  C   UNL     1       0.193  13.043  18.534  0.00  0.00    +0.000 A 
ATOM     13  N   UNL     1      -1.046  12.731  18.547  0.00  0.00    +0.000 NA
ATOM     14  C   UNL     1      -1.371  11.427  18.692  0.00  0.00    +0.000 A 
ATOM     15  O   UNL     1      -2.536  11.073  18.702  0.00  0.00    +0.000 OA
ENDROOT
BRANCH   1  21
ATOM     16  C   UNL     1       3.226   4.012  19.436  0.00  0.00    +0.000 A 
ATOM     17  C   UNL     1       3.144   2.717  20.015  0.00  0.00    +0.000 A 
ATOM     18  C   UNL     1       2.039   2.338  20.759  0.00  0.00    +0.000 A 
ATOM     19  C   UNL     1       1.036   3.276  20.957  0.00  0.00    +0.000 A 
ATOM     20  C   UNL     1       1.138   4.585  20.427  0.00  0.00    +0.000 A 
ATOM     21  C   UNL     1       2.234   5.016  19.641  0.00  0.00    +0.000 A 
BRANCH  16  23
ATOM     22  C   UNL     1       4.315   3.744  17.392  0.00  0.00    +0.000 C 
ATOM     23  O   UNL     1       4.337   4.335  18.692  0.00  0.00    +0.000 OA
ENDBRANCH  16  23
ENDBRANCH   1  21
BRANCH  12  24
ATOM     24  O   UNL     1       0.495  14.378  18.603  0.00  0.00    +0.000 OA
BRANCH  24  25
ATOM     25  C   UNL     1       1.815  14.761  19.228  0.00  0.00    +0.000 C 
BRANCH  25  26
ATOM     26  C   UNL     1       1.696  15.799  20.379  0.00  0.00    +0.000 C 
ATOM     27  C   UNL     1       2.181  15.230  21.716  0.00  0.00    +0.000 C 
ATOM     28  O   UNL     1       1.181  14.429  22.358  0.00  0.00    +0.000 OA
ATOM     29  C   UNL     1       0.033  15.238  22.631  0.00  0.00    +0.000 C 
ATOM     30  C   UNL     1      -0.557  15.750  21.324  0.00  0.00    +0.000 C 
ATOM     31  O   UNL     1       0.399  16.432  20.503  0.00  0.00    +0.000 OA
ENDBRANCH  25  26
ENDBRANCH  24  25
ENDBRANCH  12  24
TORSDOF 5
ENDMDL
