MODEL 1
REMARK VINA RESULT:      -9.7      0.000      0.000
REMARK  Name = 
REMARK  7 active torsions:
REMARK  status: ('A' for Active; 'I' for Inactive)
REMARK    1  A    between atoms: C_1  and  C_2
REMARK    2  A    between atoms: C_2  and  C_3
REMARK    3  A    between atoms: C_2  and  N_4
REMARK    4  A    between atoms: C_7  and  N_8
REMARK    5  A    between atoms: C_13  and  C_14
REMARK    6  A    between atoms: N_28  and  C_29
REMARK    7  A    between atoms: C_32  and  C_33
REMARK                            x       y       z     vdW  Elec       q    Type
REMARK                         _______ _______ _______ _____ _____    ______ ____
ROOT
ATOM      1  N   UNL     1       1.485   8.722  21.369  0.00  0.00    +0.000 N 
ATOM      2  C   UNL     1       1.811   8.430  20.036  0.00  0.00    +0.000 A 
ATOM      3  N   UNL     1       1.725   9.398  19.125  0.00  0.00    +0.000 NA
ATOM      4  C   UNL     1       2.014   9.097  17.846  0.00  0.00    +0.000 A 
ATOM      5  C   UNL     1       2.375   7.843  17.446  0.00  0.00    +0.000 A 
ATOM      6  C   UNL     1       2.457   6.897  18.431  0.00  0.00    +0.000 A 
ATOM      7  N   UNL     1       2.206   7.189  19.736  0.00  0.00    +0.000 NA
ATOM      8  H   UNL     1       1.486   7.867  21.909  0.00  0.00    +0.000 HD
ENDROOT
BRANCH   1  12
ATOM      9  N   UNL     1      -0.175  13.319  21.096  0.00  0.00    +0.000 N 
ATOM     10  C   UNL     1      -0.347  11.987  21.590  0.00  0.00    +0.000 A 
ATOM     11  C   UNL     1       0.410  10.895  21.116  0.00  0.00    +0.000 A 
ATOM     12  C   UNL     1       0.503   9.655  21.774  0.00  0.00    +0.000 A 
ATOM     13  C   UNL     1      -0.320   9.449  22.865  0.00  0.00    +0.000 A 
ATOM     14  C   UNL     1      -1.232  10.427  23.261  0.00  0.00    +0.000 A 
ATOM     15  C   UNL     1      -1.270  11.690  22.636  0.00  0.00    +0.000 A 
ATOM     16  N   UNL     1      -2.187  12.688  23.073  0.00  0.00    +0.000 N 
ATOM     17  C   UNL     1      -3.316  12.432  23.944  0.00  0.00    +0.000 C 
ATOM     18  C   UNL     1      -2.126  13.976  22.537  0.00  0.00    +0.000 C 
ATOM     19  O   UNL     1      -2.653  14.939  23.076  0.00  0.00    +0.000 OA
ATOM     20  C   UNL     1      -1.510  14.006  21.124  0.00  0.00    +0.000 C 
ATOM     21  C   UNL     1      -1.588  15.441  20.621  0.00  0.00    +0.000 C 
BRANCH   9  23
ATOM     22  C   UNL     1       2.315  13.368  20.614  0.00  0.00    +0.000 C 
ATOM     23  C   UNL     1       0.899  13.731  20.122  0.00  0.00    +0.000 C 
ATOM     24  C   UNL     1       0.848  13.039  18.743  0.00  0.00    +0.000 C 
ENDBRANCH   9  23
ENDBRANCH   1  12
BRANCH   6  25
ATOM     25  C   UNL     1       2.852   5.502  18.117  0.00  0.00    +0.000 A 
ATOM     26  C   UNL     1       1.876   4.485  18.158  0.00  0.00    +0.000 A 
ATOM     27  C   UNL     1       2.176   3.180  17.786  0.00  0.00    +0.000 A 
ATOM     28  C   UNL     1       3.464   2.865  17.366  0.00  0.00    +0.000 A 
ATOM     29  C   UNL     1       4.469   3.834  17.335  0.00  0.00    +0.000 A 
ATOM     30  C   UNL     1       4.172   5.149  17.738  0.00  0.00    +0.000 A 
ATOM     31  C   UNL     1       5.272   6.190  17.729  0.00  0.00    +0.000 C 
ATOM     32  C   UNL     1       6.651   5.556  17.721  0.00  0.00    +0.000 C 
ATOM     33  C   UNL     1       6.707   4.536  16.603  0.00  0.00    +0.000 C 
ATOM     34  N   UNL     1       5.710   3.494  16.787  0.00  0.00    +0.000 N 
ATOM     35  H   UNL     1       6.056   2.586  17.078  0.00  0.00    +0.000 HD
ENDBRANCH   6  25
TORSDOF 3
ENDMDL
MODEL 2
REMARK VINA RESULT:      -9.2      1.262      1.446
REMARK  Name = 
REMARK  7 active torsions:
REMARK  status: ('A' for Active; 'I' for Inactive)
REMARK    1  A    between atoms: C_1  and  C_2
REMARK    2  A    between atoms: C_2  and  C_3
REMARK    3  A    between atoms: C_2  and  N_4
REMARK    4  A    between atoms: C_7  and  N_8
REMARK    5  A    between atoms: C_13  and  C_14
REMARK    6  A    between atoms: N_28  and  C_29
REMARK    7  A    between atoms: C_32  and  C_33
REMARK                            x       y       z     vdW  Elec       q    Type
REMARK                         _______ _______ _______ _____ _____    ______ ____
ROOT
ATOM      1  N   UNL     1       1.381   8.433  21.346  0.00  0.00    +0.000 N 
ATOM      2  C   UNL     1       1.809   8.254  20.023  0.00  0.00    +0.000 A 
ATOM      3  N   UNL     1       1.750   9.285  19.181  0.00  0.00    +0.000 NA
ATOM      4  C   UNL     1       2.137   9.090  17.907  0.00  0.00    +0.000 A 
ATOM      5  C   UNL     1       2.571   7.882  17.444  0.00  0.00    +0.000 A 
ATOM      6  C   UNL     1       2.621   6.868  18.359  0.00  0.00    +0.000 A 
ATOM      7  N   UNL     1       2.270   7.052  19.661  0.00  0.00    +0.000 NA
ATOM      8  H   UNL     1       1.377   7.540  21.822  0.00  0.00    +0.000 HD
ENDROOT
BRANCH   1  12
ATOM      9  N   UNL     1      -1.785  11.931  20.042  0.00  0.00    +0.000 N 
ATOM     10  C   UNL     1      -1.289  11.050  21.055  0.00  0.00    +0.000 A 
ATOM     11  C   UNL     1      -0.411   9.983  20.773  0.00  0.00    +0.000 A 
ATOM     12  C   UNL     1       0.340   9.301  21.748  0.00  0.00    +0.000 A 
ATOM     13  C   UNL     1       0.080   9.594  23.074  0.00  0.00    +0.000 A 
ATOM     14  C   UNL     1      -0.921  10.505  23.416  0.00  0.00    +0.000 A 
ATOM     15  C   UNL     1      -1.619  11.230  22.430  0.00  0.00    +0.000 A 
ATOM     16  N   UNL     1      -2.616  12.178  22.799  0.00  0.00    +0.000 N 
ATOM     17  C   UNL     1      -3.201  12.274  24.121  0.00  0.00    +0.000 C 
ATOM     18  C   UNL     1      -3.208  12.985  21.824  0.00  0.00    +0.000 C 
ATOM     19  O   UNL     1      -3.818  14.008  22.099  0.00  0.00    +0.000 OA
ATOM     20  C   UNL     1      -3.177  12.347  20.422  0.00  0.00    +0.000 C 
ATOM     21  C   UNL     1      -3.929  13.276  19.479  0.00  0.00    +0.000 C 
BRANCH   9  23
ATOM     22  C   UNL     1       0.131  12.335  18.430  0.00  0.00    +0.000 C 
ATOM     23  C   UNL     1      -1.339  11.904  18.602  0.00  0.00    +0.000 C 
ATOM     24  C   UNL     1      -1.352  10.516  17.926  0.00  0.00    +0.000 C 
ENDBRANCH   9  23
ENDBRANCH   1  12
BRANCH   6  25
ATOM     25  C   UNL     1       3.088   5.514  17.974  0.00  0.00    +0.000 A 
ATOM     26  C   UNL     1       2.167   4.445  17.965  0.00  0.00    +0.000 A 
ATOM     27  C   UNL     1       2.534   3.179  17.525  0.00  0.00    +0.000 A 
ATOM     28  C   UNL     1       3.835   2.955  17.087  0.00  0.00    +0.000 A 
ATOM     29  C   UNL     1       4.787   3.977  17.101  0.00  0.00    +0.000 A 
ATOM     30  C   UNL     1       4.422   5.252  17.573  0.00  0.00    +0.000 A 
ATOM     31  C   UNL     1       5.465   6.349  17.613  0.00  0.00    +0.000 C 
ATOM     32  C   UNL     1       6.875   5.792  17.569  0.00  0.00    +0.000 C 
ATOM     33  C   UNL     1       6.980   4.835  16.400  0.00  0.00    +0.000 C 
ATOM     34  N   UNL     1       6.041   3.733  16.533  0.00  0.00    +0.000 N 
ATOM     35  H   UNL     1       6.437   2.831  16.776  0.00  0.00    +0.000 HD
ENDBRANCH   6  25
TORSDOF 3
ENDMDL
MODEL 3
REMARK VINA RESULT:      -9.1      1.526      3.677
REMARK  Name = 
REMARK  7 active torsions:
REMARK  status: ('A' for Active; 'I' for Inactive)
REMARK    1  A    between atoms: C_1  and  C_2
REMARK    2  A    between atoms: C_2  and  C_3
REMARK    3  A    between atoms: C_2  and  N_4
REMARK    4  A    between atoms: C_7  and  N_8
REMARK    5  A    between atoms: C_13  and  C_14
REMARK    6  A    between atoms: N_28  and  C_29
REMARK    7  A    between atoms: C_32  and  C_33
REMARK                            x       y       z     vdW  Elec       q    Type
REMARK                         _______ _______ _______ _____ _____    ______ ____
ROOT
ATOM      1  N   UNL     1       1.604  10.412  17.972  0.00  0.00    +0.000 N 
ATOM      2  C   UNL     1       1.840   9.173  18.586  0.00  0.00    +0.000 A 
ATOM      3  N   UNL     1       1.404   8.976  19.829  0.00  0.00    +0.000 NA
ATOM      4  C   UNL     1       1.662   7.793  20.416  0.00  0.00    +0.000 A 
ATOM      5  C   UNL     1       2.360   6.799  19.795  0.00  0.00    +0.000 A 
ATOM      6  C   UNL     1       2.770   7.057  18.516  0.00  0.00    +0.000 A 
ATOM      7  N   UNL     1       2.488   8.232  17.891  0.00  0.00    +0.000 NA
ATOM      8  H   UNL     1       2.093  10.446  17.087  0.00  0.00    +0.000 HD
ENDROOT
BRANCH   1  12
ATOM      9  N   UNL     1      -0.644  13.178  21.328  0.00  0.00    +0.000 N 
ATOM     10  C   UNL     1       0.425  13.028  20.387  0.00  0.00    +0.000 A 
ATOM     11  C   UNL     1       0.744  11.791  19.790  0.00  0.00    +0.000 A 
ATOM     12  C   UNL     1       1.557  11.653  18.649  0.00  0.00    +0.000 A 
ATOM     13  C   UNL     1       2.202  12.784  18.184  0.00  0.00    +0.000 A 
ATOM     14  C   UNL     1       2.074  14.000  18.856  0.00  0.00    +0.000 A 
ATOM     15  C   UNL     1       1.206  14.140  19.958  0.00  0.00    +0.000 A 
ATOM     16  N   UNL     1       1.065  15.397  20.613  0.00  0.00    +0.000 N 
ATOM     17  C   UNL     1       1.965  16.517  20.430  0.00  0.00    +0.000 C 
ATOM     18  C   UNL     1       0.106  15.559  21.616  0.00  0.00    +0.000 C 
ATOM     19  O   UNL     1      -0.277  16.658  21.988  0.00  0.00    +0.000 OA
ATOM     20  C   UNL     1      -0.250  14.235  22.319  0.00  0.00    +0.000 C 
ATOM     21  C   UNL     1      -1.225  14.561  23.442  0.00  0.00    +0.000 C 
BRANCH   9  23
ATOM     22  C   UNL     1      -1.210  11.333  22.974  0.00  0.00    +0.000 C 
ATOM     23  C   UNL     1      -1.616  12.084  21.689  0.00  0.00    +0.000 C 
ATOM     24  C   UNL     1      -3.049  12.550  22.024  0.00  0.00    +0.000 C 
ENDBRANCH   9  23
ENDBRANCH   1  12
BRANCH   6  25
ATOM     25  C   UNL     1       3.527   6.046  17.738  0.00  0.00    +0.000 A 
ATOM     26  C   UNL     1       4.577   6.471  16.897  0.00  0.00    +0.000 A 
ATOM     27  C   UNL     1       5.373   5.556  16.218  0.00  0.00    +0.000 A 
ATOM     28  C   UNL     1       5.132   4.194  16.365  0.00  0.00    +0.000 A 
ATOM     29  C   UNL     1       4.087   3.729  17.167  0.00  0.00    +0.000 A 
ATOM     30  C   UNL     1       3.264   4.657  17.833  0.00  0.00    +0.000 A 
ATOM     31  C   UNL     1       2.116   4.148  18.680  0.00  0.00    +0.000 C 
ATOM     32  C   UNL     1       1.735   2.724  18.321  0.00  0.00    +0.000 C 
ATOM     33  C   UNL     1       2.986   1.871  18.339  0.00  0.00    +0.000 C 
ATOM     34  N   UNL     1       3.968   2.352  17.381  0.00  0.00    +0.000 N 
ATOM     35  H   UNL     1       4.093   1.792  16.545  0.00  0.00    +0.000 HD
ENDBRANCH   6  25
TORSDOF 3
ENDMDL
MODEL 4
REMARK VINA RESULT:      -9.1      1.159      2.180
REMARK  Name = 
REMARK  7 active torsions:
REMARK  status: ('A' for Active; 'I' for Inactive)
REMARK    1  A    between atoms: C_1  and  C_2
REMARK    2  A    between atoms: C_2  and  C_3
REMARK    3  A    between atoms: C_2  and  N_4
REMARK    4  A    between atoms: C_7  and  N_8
REMARK    5  A    between atoms: C_13  and  C_14
REMARK    6  A    between atoms: N_28  and  C_29
REMARK    7  A    between atoms: C_32  and  C_33
REMARK                            x       y       z     vdW  Elec       q    Type
REMARK                         _______ _______ _______ _____ _____    ______ ____
ROOT
ATOM      1  N   UNL     1       1.526   8.908  21.418  0.00  0.00    +0.000 N 
ATOM      2  C   UNL     1       1.817   8.570  20.088  0.00  0.00    +0.000 A 
ATOM      3  N   UNL     1       1.632   9.483  19.135  0.00  0.00    +0.000 NA
ATOM      4  C   UNL     1       1.890   9.135  17.861  0.00  0.00    +0.000 A 
ATOM      5  C   UNL     1       2.316   7.888  17.508  0.00  0.00    +0.000 A 
ATOM      6  C   UNL     1       2.499   7.001  18.533  0.00  0.00    +0.000 A 
ATOM      7  N   UNL     1       2.281   7.343  19.832  0.00  0.00    +0.000 NA
ATOM      8  H   UNL     1       1.604   8.084  21.998  0.00  0.00    +0.000 HD
ENDROOT
BRANCH   1  12
ATOM      9  N   UNL     1      -0.310  13.440  21.175  0.00  0.00    +0.000 N 
ATOM     10  C   UNL     1      -0.437  12.096  21.650  0.00  0.00    +0.000 A 
ATOM     11  C   UNL     1       0.369  11.041  21.174  0.00  0.00    +0.000 A 
ATOM     12  C   UNL     1       0.501   9.797  21.819  0.00  0.00    +0.000 A 
ATOM     13  C   UNL     1      -0.330   9.545  22.894  0.00  0.00    +0.000 A 
ATOM     14  C   UNL     1      -1.286  10.481  23.287  0.00  0.00    +0.000 A 
ATOM     15  C   UNL     1      -1.363  11.750  22.677  0.00  0.00    +0.000 A 
ATOM     16  N   UNL     1      -2.326  12.705  23.112  0.00  0.00    +0.000 N 
ATOM     17  C   UNL     1      -3.457  12.394  23.962  0.00  0.00    +0.000 C 
ATOM     18  C   UNL     1      -2.307  14.002  22.592  0.00  0.00    +0.000 C 
ATOM     19  O   UNL     1      -2.880  14.935  23.135  0.00  0.00    +0.000 OA
ATOM     20  C   UNL     1      -1.672  14.073  21.190  0.00  0.00    +0.000 C 
ATOM     21  C   UNL     1      -1.798  15.511  20.704  0.00  0.00    +0.000 C 
BRANCH   9  23
ATOM     22  C   UNL     1       2.179  13.526  20.697  0.00  0.00    +0.000 C 
ATOM     23  C   UNL     1       0.762  13.906  20.223  0.00  0.00    +0.000 C 
ATOM     24  C   UNL     1       0.715  13.285  18.811  0.00  0.00    +0.000 C 
ENDBRANCH   9  23
ENDBRANCH   1  12
BRANCH   6  25
ATOM     25  C   UNL     1       2.971   5.620  18.271  0.00  0.00    +0.000 A 
ATOM     26  C   UNL     1       3.953   5.405  17.281  0.00  0.00    +0.000 A 
ATOM     27  C   UNL     1       4.493   4.144  17.060  0.00  0.00    +0.000 A 
ATOM     28  C   UNL     1       4.059   3.068  17.826  0.00  0.00    +0.000 A 
ATOM     29  C   UNL     1       3.070   3.228  18.800  0.00  0.00    +0.000 A 
ATOM     30  C   UNL     1       2.504   4.500  19.004  0.00  0.00    +0.000 A 
ATOM     31  C   UNL     1       1.413   4.664  20.042  0.00  0.00    +0.000 C 
ATOM     32  C   UNL     1       0.764   3.339  20.395  0.00  0.00    +0.000 C 
ATOM     33  C   UNL     1       1.852   2.345  20.743  0.00  0.00    +0.000 C 
ATOM     34  N   UNL     1       2.761   2.143  19.627  0.00  0.00    +0.000 N 
ATOM     35  H   UNL     1       2.681   1.259  19.136  0.00  0.00    +0.000 HD
ENDBRANCH   6  25
TORSDOF 3
ENDMDL
MODEL 5
REMARK VINA RESULT:      -9.1      2.171      3.508
REMARK  Name = 
REMARK  7 active torsions:
REMARK  status: ('A' for Active; 'I' for Inactive)
REMARK    1  A    between atoms: C_1  and  C_2
REMARK    2  A    between atoms: C_2  and  C_3
REMARK    3  A    between atoms: C_2  and  N_4
REMARK    4  A    between atoms: C_7  and  N_8
REMARK    5  A    between atoms: C_13  and  C_14
REMARK    6  A    between atoms: N_28  and  C_29
REMARK    7  A    between atoms: C_32  and  C_33
REMARK                            x       y       z     vdW  Elec       q    Type
REMARK                         _______ _______ _______ _____ _____    ______ ____
ROOT
ATOM      1  N   UNL     1       0.351  10.395  18.025  0.00  0.00    +0.000 N 
ATOM      2  C   UNL     1       0.983   9.345  18.706  0.00  0.00    +0.000 A 
ATOM      3  N   UNL     1       0.767   9.201  20.012  0.00  0.00    +0.000 NA
ATOM      4  C   UNL     1       1.401   8.205  20.657  0.00  0.00    +0.000 A 
ATOM      5  C   UNL     1       2.262   7.351  20.032  0.00  0.00    +0.000 A 
ATOM      6  C   UNL     1       2.432   7.543  18.688  0.00  0.00    +0.000 A 
ATOM      7  N   UNL     1       1.771   8.520  18.009  0.00  0.00    +0.000 NA
ATOM      8  H   UNL     1       0.703  10.442  17.078  0.00  0.00    +0.000 HD
ENDROOT
BRANCH   1  12
ATOM      9  N   UNL     1       2.052  14.743  19.500  0.00  0.00    +0.000 N 
ATOM     10  C   UNL     1       0.931  13.877  19.294  0.00  0.00    +0.000 A 
ATOM     11  C   UNL     1       1.020  12.680  18.553  0.00  0.00    +0.000 A 
ATOM     12  C   UNL     1       0.053  11.658  18.587  0.00  0.00    +0.000 A 
ATOM     13  C   UNL     1      -1.123  11.916  19.266  0.00  0.00    +0.000 A 
ATOM     14  C   UNL     1      -1.345  13.161  19.856  0.00  0.00    +0.000 A 
ATOM     15  C   UNL     1      -0.342  14.152  19.872  0.00  0.00    +0.000 A 
ATOM     16  N   UNL     1      -0.575  15.407  20.505  0.00  0.00    +0.000 N 
ATOM     17  C   UNL     1      -1.881  15.888  20.906  0.00  0.00    +0.000 C 
ATOM     18  C   UNL     1       0.466  16.329  20.630  0.00  0.00    +0.000 C 
ATOM     19  O   UNL     1       0.426  17.263  21.418  0.00  0.00    +0.000 OA
ATOM     20  C   UNL     1       1.550  16.157  19.549  0.00  0.00    +0.000 C 
ATOM     21  C   UNL     1       2.569  17.272  19.740  0.00  0.00    +0.000 C 
BRANCH   9  23
ATOM     22  C   UNL     1       3.851  15.131  17.754  0.00  0.00    +0.000 C 
ATOM     23  C   UNL     1       3.461  14.424  19.067  0.00  0.00    +0.000 C 
ATOM     24  C   UNL     1       4.575  14.890  20.030  0.00  0.00    +0.000 C 
ENDBRANCH   9  23
ENDBRANCH   1  12
BRANCH   6  25
ATOM     25  C   UNL     1       3.334   6.668  17.901  0.00  0.00    +0.000 A 
ATOM     26  C   UNL     1       4.401   7.248  17.184  0.00  0.00    +0.000 A 
ATOM     27  C   UNL     1       5.326   6.464  16.505  0.00  0.00    +0.000 A 
ATOM     28  C   UNL     1       5.200   5.079  16.528  0.00  0.00    +0.000 A 
ATOM     29  C   UNL     1       4.145   4.462  17.203  0.00  0.00    +0.000 A 
ATOM     30  C   UNL     1       3.193   5.258  17.867  0.00  0.00    +0.000 A 
ATOM     31  C   UNL     1       2.035   4.585  18.575  0.00  0.00    +0.000 C 
ATOM     32  C   UNL     1       1.814   3.169  18.079  0.00  0.00    +0.000 C 
ATOM     33  C   UNL     1       3.133   2.426  18.135  0.00  0.00    +0.000 C 
ATOM     34  N   UNL     1       4.136   3.067  17.301  0.00  0.00    +0.000 N 
ATOM     35  H   UNL     1       4.375   2.591  16.437  0.00  0.00    +0.000 HD
ENDBRANCH   6  25
TORSDOF 3
ENDMDL
MODEL 6
REMARK VINA RESULT:      -9.0      1.835      3.910
REMARK  Name = 
REMARK  7 active torsions:
REMARK  status: ('A' for Active; 'I' for Inactive)
REMARK    1  A    between atoms: C_1  and  C_2
REMARK    2  A    between atoms: C_2  and  C_3
REMARK    3  A    between atoms: C_2  and  N_4
REMARK    4  A    between atoms: C_7  and  N_8
REMARK    5  A    between atoms: C_13  and  C_14
REMARK    6  A    between atoms: N_28  and  C_29
REMARK    7  A    between atoms: C_32  and  C_33
REMARK                            x       y       z     vdW  Elec       q    Type
REMARK                         _______ _______ _______ _____ _____    ______ ____
ROOT
ATOM      1  N   UNL     1       1.600  10.407  17.853  0.00  0.00    +0.000 N 
ATOM      2  C   UNL     1       1.787   9.219  18.574  0.00  0.00    +0.000 A 
ATOM      3  N   UNL     1       1.401   9.170  19.848  0.00  0.00    +0.000 NA
ATOM      4  C   UNL     1       1.613   8.033  20.535  0.00  0.00    +0.000 A 
ATOM      5  C   UNL     1       2.216   6.939  19.985  0.00  0.00    +0.000 A 
ATOM      6  C   UNL     1       2.577   7.048  18.670  0.00  0.00    +0.000 A 
ATOM      7  N   UNL     1       2.339   8.175  17.946  0.00  0.00    +0.000 NA
ATOM      8  H   UNL     1       2.045  10.324  16.949  0.00  0.00    +0.000 HD
ENDROOT
BRANCH   1  12
ATOM      9  N   UNL     1      -0.679  13.895  20.423  0.00  0.00    +0.000 N 
ATOM     10  C   UNL     1       0.504  13.451  19.749  0.00  0.00    +0.000 A 
ATOM     11  C   UNL     1       0.686  12.116  19.331  0.00  0.00    +0.000 A 
ATOM     12  C   UNL     1       1.664  11.706  18.407  0.00  0.00    +0.000 A 
ATOM     13  C   UNL     1       2.598  12.644  18.008  0.00  0.00    +0.000 A 
ATOM     14  C   UNL     1       2.581  13.933  18.542  0.00  0.00    +0.000 A 
ATOM     15  C   UNL     1       1.557  14.351  19.416  0.00  0.00    +0.000 A 
ATOM     16  N   UNL     1       1.540  15.680  19.928  0.00  0.00    +0.000 N 
ATOM     17  C   UNL     1       2.660  16.596  19.858  0.00  0.00    +0.000 C 
ATOM     18  C   UNL     1       0.452  16.123  20.684  0.00  0.00    +0.000 C 
ATOM     19  O   UNL     1       0.226  17.308  20.880  0.00  0.00    +0.000 OA
ATOM     20  C   UNL     1      -0.289  14.973  21.393  0.00  0.00    +0.000 C 
ATOM     21  C   UNL     1      -1.384  15.594  22.250  0.00  0.00    +0.000 C 
BRANCH   9  23
ATOM     22  C   UNL     1      -2.320  12.263  19.384  0.00  0.00    +0.000 C 
ATOM     23  C   UNL     1      -1.899  13.038  20.648  0.00  0.00    +0.000 C 
ATOM     24  C   UNL     1      -1.735  11.906  21.684  0.00  0.00    +0.000 C 
ENDBRANCH   9  23
ENDBRANCH   1  12
BRANCH   6  25
ATOM     25  C   UNL     1       3.229   5.919  17.963  0.00  0.00    +0.000 A 
ATOM     26  C   UNL     1       4.345   6.176  17.140  0.00  0.00    +0.000 A 
ATOM     27  C   UNL     1       5.045   5.143  16.527  0.00  0.00    +0.000 A 
ATOM     28  C   UNL     1       4.639   3.828  16.726  0.00  0.00    +0.000 A 
ATOM     29  C   UNL     1       3.525   3.527  17.512  0.00  0.00    +0.000 A 
ATOM     30  C   UNL     1       2.800   4.576  18.109  0.00  0.00    +0.000 A 
ATOM     31  C   UNL     1       1.576   4.247  18.938  0.00  0.00    +0.000 C 
ATOM     32  C   UNL     1       1.038   2.862  18.630  0.00  0.00    +0.000 C 
ATOM     33  C   UNL     1       2.177   1.869  18.727  0.00  0.00    +0.000 C 
ATOM     34  N   UNL     1       3.236   2.186  17.782  0.00  0.00    +0.000 N 
ATOM     35  H   UNL     1       3.317   1.576  16.975  0.00  0.00    +0.000 HD
ENDBRANCH   6  25
TORSDOF 3
ENDMDL
MODEL 7
REMARK VINA RESULT:      -9.0      1.768      3.469
REMARK  Name = 
REMARK  7 active torsions:
REMARK  status: ('A' for Active; 'I' for Inactive)
REMARK    1  A    between atoms: C_1  and  C_2
REMARK    2  A    between atoms: C_2  and  C_3
REMARK    3  A    between atoms: C_2  and  N_4
REMARK    4  A    between atoms: C_7  and  N_8
REMARK    5  A    between atoms: C_13  and  C_14
REMARK    6  A    between atoms: N_28  and  C_29
REMARK    7  A    between atoms: C_32  and  C_33
REMARK                            x       y       z     vdW  Elec       q    Type
REMARK                         _______ _______ _______ _____ _____    ______ ____
ROOT
ATOM      1  N   UNL     1       1.541   9.949  17.940  0.00  0.00    +0.000 N 
ATOM      2  C   UNL     1       1.688   8.819  18.757  0.00  0.00    +0.000 A 
ATOM      3  N   UNL     1       1.346   8.902  20.042  0.00  0.00    +0.000 NA
ATOM      4  C   UNL     1       1.519   7.818  20.819  0.00  0.00    +0.000 A 
ATOM      5  C   UNL     1       2.040   6.648  20.349  0.00  0.00    +0.000 A 
ATOM      6  C   UNL     1       2.359   6.621  19.019  0.00  0.00    +0.000 A 
ATOM      7  N   UNL     1       2.158   7.694  18.206  0.00  0.00    +0.000 NA
ATOM      8  H   UNL     1       1.948   9.763  17.033  0.00  0.00    +0.000 HD
ENDROOT
BRANCH   1  12
ATOM      9  N   UNL     1      -0.484  13.806  20.174  0.00  0.00    +0.000 N 
ATOM     10  C   UNL     1       0.664  13.221  19.550  0.00  0.00    +0.000 A 
ATOM     11  C   UNL     1       0.751  11.845  19.254  0.00  0.00    +0.000 A 
ATOM     12  C   UNL     1       1.697  11.286  18.375  0.00  0.00    +0.000 A 
ATOM     13  C   UNL     1       2.694  12.116  17.899  0.00  0.00    +0.000 A 
ATOM     14  C   UNL     1       2.769  13.446  18.315  0.00  0.00    +0.000 A 
ATOM     15  C   UNL     1       1.778  14.011  19.142  0.00  0.00    +0.000 A 
ATOM     16  N   UNL     1       1.854  15.379  19.532  0.00  0.00    +0.000 N 
ATOM     17  C   UNL     1       3.036  16.204  19.387  0.00  0.00    +0.000 C 
ATOM     18  C   UNL     1       0.801  15.963  20.240  0.00  0.00    +0.000 C 
ATOM     19  O   UNL     1       0.660  17.174  20.328  0.00  0.00    +0.000 OA
ATOM     20  C   UNL     1      -0.018  14.937  21.046  0.00  0.00    +0.000 C 
ATOM     21  C   UNL     1      -1.065  15.707  21.838  0.00  0.00    +0.000 C 
BRANCH   9  23
ATOM     22  C   UNL     1      -2.236  12.206  19.278  0.00  0.00    +0.000 C 
ATOM     23  C   UNL     1      -1.761  13.061  20.470  0.00  0.00    +0.000 C 
ATOM     24  C   UNL     1      -1.677  12.018  21.605  0.00  0.00    +0.000 C 
ENDBRANCH   9  23
ENDBRANCH   1  12
BRANCH   6  25
ATOM     25  C   UNL     1       2.922   5.400  18.394  0.00  0.00    +0.000 A 
ATOM     26  C   UNL     1       2.043   4.441  17.846  0.00  0.00    +0.000 A 
ATOM     27  C   UNL     1       2.523   3.325  17.171  0.00  0.00    +0.000 A 
ATOM     28  C   UNL     1       3.894   3.144  17.031  0.00  0.00    +0.000 A 
ATOM     29  C   UNL     1       4.801   4.054  17.579  0.00  0.00    +0.000 A 
ATOM     30  C   UNL     1       4.316   5.169  18.286  0.00  0.00    +0.000 A 
ATOM     31  C   UNL     1       5.304   6.139  18.902  0.00  0.00    +0.000 C 
ATOM     32  C   UNL     1       6.681   5.521  19.059  0.00  0.00    +0.000 C 
ATOM     33  C   UNL     1       7.095   4.922  17.732  0.00  0.00    +0.000 C 
ATOM     34  N   UNL     1       6.162   3.893  17.301  0.00  0.00    +0.000 N 
ATOM     35  H   UNL     1       6.488   2.934  17.368  0.00  0.00    +0.000 HD
ENDBRANCH   6  25
TORSDOF 3
ENDMDL
MODEL 8
REMARK VINA RESULT:      -8.9      2.192      2.966
REMARK  Name = 
REMARK  7 active torsions:
REMARK  status: ('A' for Active; 'I' for Inactive)
REMARK    1  A    between atoms: C_1  and  C_2
REMARK    2  A    between atoms: C_2  and  C_3
REMARK    3  A    between atoms: C_2  and  N_4
REMARK    4  A    between atoms: C_7  and  N_8
REMARK    5  A    between atoms: C_13  and  C_14
REMARK    6  A    between atoms: N_28  and  C_29
REMARK    7  A    between atoms: C_32  and  C_33
REMARK                            x       y       z     vdW  Elec       q    Type
REMARK                         _______ _______ _______ _____ _____    ______ ____
ROOT
ATOM      1  N   UNL     1       1.023   9.506  21.475  0.00  0.00    +0.000 N 
ATOM      2  C   UNL     1       1.404   9.062  20.201  0.00  0.00    +0.000 A 
ATOM      3  N   UNL     1       1.071   9.791  19.137  0.00  0.00    +0.000 NA
ATOM      4  C   UNL     1       1.420   9.338  17.919  0.00  0.00    +0.000 A 
ATOM      5  C   UNL     1       2.084   8.160  17.732  0.00  0.00    +0.000 A 
ATOM      6  C   UNL     1       2.407   7.464  18.864  0.00  0.00    +0.000 A 
ATOM      7  N   UNL     1       2.098   7.923  20.107  0.00  0.00    +0.000 NA
ATOM      8  H   UNL     1       1.242   8.795  22.159  0.00  0.00    +0.000 HD
ENDROOT
BRANCH   1  12
ATOM      9  N   UNL     1      -2.690  12.166  19.712  0.00  0.00    +0.000 N 
ATOM     10  C   UNL     1      -2.062  11.543  20.837  0.00  0.00    +0.000 A 
ATOM     11  C   UNL     1      -1.006  10.618  20.702  0.00  0.00    +0.000 A 
ATOM     12  C   UNL     1      -0.161  10.227  21.758  0.00  0.00    +0.000 A 
ATOM     13  C   UNL     1      -0.488  10.659  23.030  0.00  0.00    +0.000 A 
ATOM     14  C   UNL     1      -1.637  11.419  23.247  0.00  0.00    +0.000 A 
ATOM     15  C   UNL     1      -2.438  11.860  22.174  0.00  0.00    +0.000 A 
ATOM     16  N   UNL     1      -3.592  12.661  22.413  0.00  0.00    +0.000 N 
ATOM     17  C   UNL     1      -4.203  12.843  23.713  0.00  0.00    +0.000 C 
ATOM     18  C   UNL     1      -4.301  13.201  21.338  0.00  0.00    +0.000 C 
ATOM     19  O   UNL     1      -5.086  14.129  21.468  0.00  0.00    +0.000 OA
ATOM     20  C   UNL     1      -4.139  12.381  20.043  0.00  0.00    +0.000 C 
ATOM     21  C   UNL     1      -5.028  13.018  18.984  0.00  0.00    +0.000 C 
BRANCH   9  23
ATOM     22  C   UNL     1      -0.805  12.568  18.062  0.00  0.00    +0.000 C 
ATOM     23  C   UNL     1      -2.225  12.010  18.286  0.00  0.00    +0.000 C 
ATOM     24  C   UNL     1      -2.085  10.556  17.787  0.00  0.00    +0.000 C 
ENDBRANCH   9  23
ENDBRANCH   1  12
BRANCH   6  25
ATOM     25  C   UNL     1       3.140   6.177  18.784  0.00  0.00    +0.000 A 
ATOM     26  C   UNL     1       4.277   6.084  17.955  0.00  0.00    +0.000 A 
ATOM     27  C   UNL     1       5.049   4.928  17.915  0.00  0.00    +0.000 A 
ATOM     28  C   UNL     1       4.696   3.840  18.705  0.00  0.00    +0.000 A 
ATOM     29  C   UNL     1       3.565   3.879  19.522  0.00  0.00    +0.000 A 
ATOM     30  C   UNL     1       2.768   5.038  19.541  0.00  0.00    +0.000 A 
ATOM     31  C   UNL     1       1.525   5.065  20.408  0.00  0.00    +0.000 C 
ATOM     32  C   UNL     1       1.066   3.669  20.782  0.00  0.00    +0.000 C 
ATOM     33  C   UNL     1       2.244   2.910  21.355  0.00  0.00    +0.000 C 
ATOM     34  N   UNL     1       3.327   2.807  20.389  0.00  0.00    +0.000 N 
ATOM     35  H   UNL     1       3.469   1.895  19.968  0.00  0.00    +0.000 HD
ENDBRANCH   6  25
TORSDOF 3
ENDMDL
MODEL 9
REMARK VINA RESULT:      -8.8      1.822      3.798
REMARK  Name = 
REMARK  7 active torsions:
REMARK  status: ('A' for Active; 'I' for Inactive)
REMARK    1  A    between atoms: C_1  and  C_2
REMARK    2  A    between atoms: C_2  and  C_3
REMARK    3  A    between atoms: C_2  and  N_4
REMARK    4  A    between atoms: C_7  and  N_8
REMARK    5  A    between atoms: C_13  and  C_14
REMARK    6  A    between atoms: N_28  and  C_29
REMARK    7  A    between atoms: C_32  and  C_33
REMARK                            x       y       z     vdW  Elec       q    Type
REMARK                         _______ _______ _______ _____ _____    ______ ____
ROOT
ATOM      1  N   UNL     1       0.652  10.624  18.161  0.00  0.00    +0.000 N 
ATOM      2  C   UNL     1       1.144   9.501  18.842  0.00  0.00    +0.000 A 
ATOM      3  N   UNL     1       0.926   9.394  20.151  0.00  0.00    +0.000 NA
ATOM      4  C   UNL     1       1.427   8.324  20.796  0.00  0.00    +0.000 A 
ATOM      5  C   UNL     1       2.158   7.359  20.166  0.00  0.00    +0.000 A 
ATOM      6  C   UNL     1       2.336   7.520  18.820  0.00  0.00    +0.000 A 
ATOM      7  N   UNL     1       1.806   8.573  18.142  0.00  0.00    +0.000 NA
ATOM      8  H   UNL     1       0.996  10.618  17.210  0.00  0.00    +0.000 HD
ENDROOT
BRANCH   1  12
ATOM      9  N   UNL     1      -2.170  13.816  20.572  0.00  0.00    +0.000 N 
ATOM     10  C   UNL     1      -0.902  13.512  19.980  0.00  0.00    +0.000 A 
ATOM     11  C   UNL     1      -0.545  12.209  19.575  0.00  0.00    +0.000 A 
ATOM     12  C   UNL     1       0.533  11.918  18.719  0.00  0.00    +0.000 A 
ATOM     13  C   UNL     1       1.381  12.957  18.385  0.00  0.00    +0.000 A 
ATOM     14  C   UNL     1       1.185  14.232  18.918  0.00  0.00    +0.000 A 
ATOM     15  C   UNL     1       0.064  14.526  19.720  0.00  0.00    +0.000 A 
ATOM     16  N   UNL     1      -0.136  15.841  20.230  0.00  0.00    +0.000 N 
ATOM     17  C   UNL     1       0.877  16.876  20.238  0.00  0.00    +0.000 C 
ATOM     18  C   UNL     1      -1.315  16.154  20.911  0.00  0.00    +0.000 C 
ATOM     19  O   UNL     1      -1.684  17.305  21.092  0.00  0.00    +0.000 OA
ATOM     20  C   UNL     1      -1.969  14.923  21.567  0.00  0.00    +0.000 C 
ATOM     21  C   UNL     1      -3.182  15.411  22.348  0.00  0.00    +0.000 C 
BRANCH   9  23
ATOM     22  C   UNL     1      -3.564  12.437  22.181  0.00  0.00    +0.000 C 
ATOM     23  C   UNL     1      -3.300  12.827  20.713  0.00  0.00    +0.000 C 
ATOM     24  C   UNL     1      -4.686  13.330  20.256  0.00  0.00    +0.000 C 
ENDBRANCH   9  23
ENDBRANCH   1  12
BRANCH   6  25
ATOM     25  C   UNL     1       3.103   6.527  18.028  0.00  0.00    +0.000 A 
ATOM     26  C   UNL     1       4.194   6.965  17.249  0.00  0.00    +0.000 A 
ATOM     27  C   UNL     1       4.998   6.063  16.561  0.00  0.00    +0.000 A 
ATOM     28  C   UNL     1       4.724   4.702  16.638  0.00  0.00    +0.000 A 
ATOM     29  C   UNL     1       3.639   4.226  17.377  0.00  0.00    +0.000 A 
ATOM     30  C   UNL     1       2.809   5.141  18.050  0.00  0.00    +0.000 A 
ATOM     31  C   UNL     1       1.617   4.621  18.828  0.00  0.00    +0.000 C 
ATOM     32  C   UNL     1       1.223   3.223  18.392  0.00  0.00    +0.000 C 
ATOM     33  C   UNL     1       2.455   2.342  18.421  0.00  0.00    +0.000 C 
ATOM     34  N   UNL     1       3.484   2.844  17.524  0.00  0.00    +0.000 N 
ATOM     35  H   UNL     1       3.631   2.317  16.669  0.00  0.00    +0.000 HD
ENDBRANCH   6  25
TORSDOF 3
ENDMDL
