MODEL 1
REMARK VINA RESULT:      -7.1      0.000      0.000
REMARK  Name = 
REMARK  10 active torsions:
REMARK  status: ('A' for Active; 'I' for Inactive)
REMARK    1  A    between atoms: C_1  and  O_2
REMARK    2  A    between atoms: O_2  and  C_3
REMARK    3  A    between atoms: C_6  and  C_7
REMARK    4  A    between atoms: C_7  and  C_8
REMARK    5  A    between atoms: C_8  and  N_9
REMARK    6  A    between atoms: C_10  and  C_12
REMARK    7  A    between atoms: C_21  and  O_22
REMARK    8  A    between atoms: O_22  and  C_23
REMARK    9  A    between atoms: C_24  and  O_25
REMARK   10  A    between atoms: O_25  and  C_26
REMARK                            x       y       z     vdW  Elec       q    Type
REMARK                         _______ _______ _______ _____ _____    ______ ____
ROOT
ATOM      1  C   UNL     1       1.559   8.232  21.058  0.00  0.00    +0.000 C 
ENDROOT
BRANCH   1   2
ATOM      2  N   UNL     1       0.454   9.128  20.781  0.00  0.00    +0.000 N 
ATOM      3  C   UNL     1       0.467   9.921  19.660  0.00  0.00    +0.000 C 
ATOM      4  O   UNL     1       1.415   9.960  18.878  0.00  0.00    +0.000 OA
ATOM      5  H   UNL     1      -0.459   8.865  21.134  0.00  0.00    +0.000 HD
BRANCH   3   6
ATOM      6  C   UNL     1      -0.748  10.665  19.401  0.00  0.00    +0.000 A 
ATOM      7  C   UNL     1      -1.296  11.644  20.253  0.00  0.00    +0.000 A 
ATOM      8  N   UNL     1      -2.422  12.180  19.786  0.00  0.00    +0.000 NA
ATOM      9  N   UNL     1      -2.667  11.510  18.636  0.00  0.00    +0.000 N 
ATOM     10  C   UNL     1      -3.766  11.688  17.791  0.00  0.00    +0.000 A 
ATOM     11  C   UNL     1      -3.894  10.942  16.683  0.00  0.00    +0.000 A 
ATOM     12  C   UNL     1      -2.881   9.944  16.396  0.00  0.00    +0.000 A 
ATOM     13  C   UNL     1      -1.819   9.766  17.198  0.00  0.00    +0.000 A 
ATOM     14  C   UNL     1      -1.661  10.573  18.365  0.00  0.00    +0.000 A 
ENDBRANCH   3   6
ENDBRANCH   1   2
BRANCH   1  15
ATOM     15  C   UNL     1       1.318   6.768  20.634  0.00  0.00    +0.000 C 
BRANCH  15  19
ATOM     16  C   UNL     1       4.491   5.136  18.160  0.00  0.00    +0.000 A 
ATOM     17  C   UNL     1       3.796   6.284  17.770  0.00  0.00    +0.000 A 
ATOM     18  C   UNL     1       2.789   6.807  18.565  0.00  0.00    +0.000 A 
ATOM     19  C   UNL     1       2.394   6.161  19.741  0.00  0.00    +0.000 A 
ATOM     20  C   UNL     1       3.028   4.938  20.099  0.00  0.00    +0.000 A 
ATOM     21  C   UNL     1       4.082   4.416  19.302  0.00  0.00    +0.000 A 
BRANCH  16  23
ATOM     22  C   UNL     1       5.286   4.111  16.189  0.00  0.00    +0.000 C 
ATOM     23  O   UNL     1       5.588   4.724  17.446  0.00  0.00    +0.000 OA
ENDBRANCH  16  23
BRANCH  20  24
ATOM     24  O   UNL     1       2.518   4.386  21.256  0.00  0.00    +0.000 OA
ATOM     25  C   UNL     1       1.538   3.362  21.186  0.00  0.00    +0.000 C 
ENDBRANCH  20  24
BRANCH  21  26
ATOM     26  O   UNL     1       4.716   3.295  19.770  0.00  0.00    +0.000 OA
ATOM     27  C   UNL     1       4.291   2.008  19.352  0.00  0.00    +0.000 C 
ENDBRANCH  21  26
ENDBRANCH  15  19
ENDBRANCH   1  15
TORSDOF 7
ENDMDL
MODEL 2
REMARK VINA RESULT:      -7.1      1.424      1.629
REMARK  Name = 
REMARK  10 active torsions:
REMARK  status: ('A' for Active; 'I' for Inactive)
REMARK    1  A    between atoms: C_1  and  O_2
REMARK    2  A    between atoms: O_2  and  C_3
REMARK    3  A    between atoms: C_6  and  C_7
REMARK    4  A    between atoms: C_7  and  C_8
REMARK    5  A    between atoms: C_8  and  N_9
REMARK    6  A    between atoms: C_10  and  C_12
REMARK    7  A    between atoms: C_21  and  O_22
REMARK    8  A    between atoms: O_22  and  C_23
REMARK    9  A    between atoms: C_24  and  O_25
REMARK   10  A    between atoms: O_25  and  C_26
REMARK                            x       y       z     vdW  Elec       q    Type
REMARK                         _______ _______ _______ _____ _____    ______ ____
ROOT
ATOM      1  C   UNL     1       1.994   8.974  17.909  0.00  0.00    +0.000 C 
ENDROOT
BRANCH   1   2
ATOM      2  N   UNL     1       0.657   9.481  18.140  0.00  0.00    +0.000 N 
ATOM      3  C   UNL     1       0.471  10.721  18.703  0.00  0.00    +0.000 C 
ATOM      4  O   UNL     1       1.401  11.429  19.086  0.00  0.00    +0.000 OA
ATOM      5  H   UNL     1      -0.079   9.153  17.525  0.00  0.00    +0.000 HD
BRANCH   3   6
ATOM      6  C   UNL     1      -0.898  11.191  18.752  0.00  0.00    +0.000 A 
ATOM      7  C   UNL     1      -1.473  11.902  19.824  0.00  0.00    +0.000 A 
ATOM      8  N   UNL     1      -2.750  12.219  19.622  0.00  0.00    +0.000 NA
ATOM      9  N   UNL     1      -3.055  11.661  18.426  0.00  0.00    +0.000 N 
ATOM     10  C   UNL     1      -4.300  11.688  17.793  0.00  0.00    +0.000 A 
ATOM     11  C   UNL     1      -4.470  11.078  16.610  0.00  0.00    +0.000 A 
ATOM     12  C   UNL     1      -3.342  10.386  16.017  0.00  0.00    +0.000 A 
ATOM     13  C   UNL     1      -2.138  10.357  16.614  0.00  0.00    +0.000 A 
ATOM     14  C   UNL     1      -1.943  11.024  17.861  0.00  0.00    +0.000 A 
ENDBRANCH   3   6
ENDBRANCH   1   2
BRANCH   1  15
ATOM     15  C   UNL     1       2.373   7.753  18.772  0.00  0.00    +0.000 C 
BRANCH  15  19
ATOM     16  C   UNL     1       4.918   4.780  16.892  0.00  0.00    +0.000 A 
ATOM     17  C   UNL     1       4.993   6.125  16.521  0.00  0.00    +0.000 A 
ATOM     18  C   UNL     1       4.185   7.073  17.128  0.00  0.00    +0.000 A 
ATOM     19  C   UNL     1       3.226   6.698  18.074  0.00  0.00    +0.000 A 
ATOM     20  C   UNL     1       3.073   5.319  18.389  0.00  0.00    +0.000 A 
ATOM     21  C   UNL     1       3.921   4.349  17.791  0.00  0.00    +0.000 A 
BRANCH  16  23
ATOM     22  C   UNL     1       6.011   3.931  14.980  0.00  0.00    +0.000 C 
ATOM     23  O   UNL     1       5.833   3.883  16.399  0.00  0.00    +0.000 OA
ENDBRANCH  16  23
BRANCH  20  24
ATOM     24  O   UNL     1       2.067   5.083  19.303  0.00  0.00    +0.000 OA
ATOM     25  C   UNL     1       2.386   4.792  20.655  0.00  0.00    +0.000 C 
ENDBRANCH  20  24
BRANCH  21  26
ATOM     26  O   UNL     1       3.787   3.056  18.226  0.00  0.00    +0.000 OA
ATOM     27  C   UNL     1       2.804   2.209  17.653  0.00  0.00    +0.000 C 
ENDBRANCH  21  26
ENDBRANCH  15  19
ENDBRANCH   1  15
TORSDOF 7
ENDMDL
MODEL 3
REMARK VINA RESULT:      -7.1      1.653      3.368
REMARK  Name = 
REMARK  10 active torsions:
REMARK  status: ('A' for Active; 'I' for Inactive)
REMARK    1  A    between atoms: C_1  and  O_2
REMARK    2  A    between atoms: O_2  and  C_3
REMARK    3  A    between atoms: C_6  and  C_7
REMARK    4  A    between atoms: C_7  and  C_8
REMARK    5  A    between atoms: C_8  and  N_9
REMARK    6  A    between atoms: C_10  and  C_12
REMARK    7  A    between atoms: C_21  and  O_22
REMARK    8  A    between atoms: O_22  and  C_23
REMARK    9  A    between atoms: C_24  and  O_25
REMARK   10  A    between atoms: O_25  and  C_26
REMARK                            x       y       z     vdW  Elec       q    Type
REMARK                         _______ _______ _______ _____ _____    ______ ____
ROOT
ATOM      1  C   UNL     1       1.659   9.737  18.264  0.00  0.00    +0.000 C 
ENDROOT
BRANCH   1   2
ATOM      2  N   UNL     1       0.342   9.883  17.677  0.00  0.00    +0.000 N 
ATOM      3  C   UNL     1      -0.738  10.206  18.463  0.00  0.00    +0.000 C 
ATOM      4  O   UNL     1      -0.664  10.329  19.684  0.00  0.00    +0.000 OA
ATOM      5  H   UNL     1       0.294  10.174  16.707  0.00  0.00    +0.000 HD
BRANCH   3   6
ATOM      6  C   UNL     1      -1.973  10.473  17.756  0.00  0.00    +0.000 A 
ATOM      7  C   UNL     1      -2.245  10.090  16.428  0.00  0.00    +0.000 A 
ATOM      8  N   UNL     1      -3.456  10.457  16.011  0.00  0.00    +0.000 NA
ATOM      9  N   UNL     1      -3.980  11.149  17.050  0.00  0.00    +0.000 N 
ATOM     10  C   UNL     1      -5.229  11.772  17.084  0.00  0.00    +0.000 A 
ATOM     11  C   UNL     1      -5.621  12.441  18.179  0.00  0.00    +0.000 A 
ATOM     12  C   UNL     1      -4.717  12.511  19.311  0.00  0.00    +0.000 A 
ATOM     13  C   UNL     1      -3.514  11.912  19.292  0.00  0.00    +0.000 A 
ATOM     14  C   UNL     1      -3.100  11.178  18.140  0.00  0.00    +0.000 A 
ENDBRANCH   3   6
ENDBRANCH   1   2
BRANCH   1  15
ATOM     15  C   UNL     1       2.474   8.546  17.719  0.00  0.00    +0.000 C 
BRANCH  15  19
ATOM     16  C   UNL     1       2.604   5.051  20.292  0.00  0.00    +0.000 A 
ATOM     17  C   UNL     1       1.868   6.182  20.656  0.00  0.00    +0.000 A 
ATOM     18  C   UNL     1       1.823   7.293  19.830  0.00  0.00    +0.000 A 
ATOM     19  C   UNL     1       2.567   7.339  18.647  0.00  0.00    +0.000 A 
ATOM     20  C   UNL     1       3.397   6.232  18.313  0.00  0.00    +0.000 A 
ATOM     21  C   UNL     1       3.421   5.079  19.143  0.00  0.00    +0.000 A 
BRANCH  16  23
ATOM     22  C   UNL     1       1.273   3.198  20.896  0.00  0.00    +0.000 C 
ATOM     23  O   UNL     1       2.510   3.904  21.040  0.00  0.00    +0.000 OA
ENDBRANCH  16  23
BRANCH  20  24
ATOM     24  O   UNL     1       4.106   6.423  17.146  0.00  0.00    +0.000 OA
ATOM     25  C   UNL     1       5.500   6.683  17.192  0.00  0.00    +0.000 C 
ENDBRANCH  20  24
BRANCH  21  26
ATOM     26  O   UNL     1       4.158   4.012  18.700  0.00  0.00    +0.000 OA
ATOM     27  C   UNL     1       3.571   3.049  17.839  0.00  0.00    +0.000 C 
ENDBRANCH  21  26
ENDBRANCH  15  19
ENDBRANCH   1  15
TORSDOF 7
ENDMDL
MODEL 4
REMARK VINA RESULT:      -7.0      1.400      2.858
REMARK  Name = 
REMARK  10 active torsions:
REMARK  status: ('A' for Active; 'I' for Inactive)
REMARK    1  A    between atoms: C_1  and  O_2
REMARK    2  A    between atoms: O_2  and  C_3
REMARK    3  A    between atoms: C_6  and  C_7
REMARK    4  A    between atoms: C_7  and  C_8
REMARK    5  A    between atoms: C_8  and  N_9
REMARK    6  A    between atoms: C_10  and  C_12
REMARK    7  A    between atoms: C_21  and  O_22
REMARK    8  A    between atoms: O_22  and  C_23
REMARK    9  A    between atoms: C_24  and  O_25
REMARK   10  A    between atoms: O_25  and  C_26
REMARK                            x       y       z     vdW  Elec       q    Type
REMARK                         _______ _______ _______ _____ _____    ______ ____
ROOT
ATOM      1  C   UNL     1       2.473   9.196  18.109  0.00  0.00    +0.000 C 
ENDROOT
BRANCH   1   2
ATOM      2  N   UNL     1       1.165   9.814  18.029  0.00  0.00    +0.000 N 
ATOM      3  C   UNL     1       0.333   9.826  19.123  0.00  0.00    +0.000 C 
ATOM      4  O   UNL     1       0.618   9.278  20.186  0.00  0.00    +0.000 OA
ATOM      5  H   UNL     1       1.048  10.574  17.368  0.00  0.00    +0.000 HD
BRANCH   3   6
ATOM      6  C   UNL     1      -0.884  10.597  18.980  0.00  0.00    +0.000 A 
ATOM      7  C   UNL     1      -1.359  11.541  19.912  0.00  0.00    +0.000 A 
ATOM      8  N   UNL     1      -2.504  12.114  19.545  0.00  0.00    +0.000 NA
ATOM      9  N   UNL     1      -2.834  11.503  18.383  0.00  0.00    +0.000 N 
ATOM     10  C   UNL     1      -3.982  11.737  17.622  0.00  0.00    +0.000 A 
ATOM     11  C   UNL     1      -4.195  11.046  16.491  0.00  0.00    +0.000 A 
ATOM     12  C   UNL     1      -3.219  10.051  16.091  0.00  0.00    +0.000 A 
ATOM     13  C   UNL     1      -2.110   9.820  16.812  0.00  0.00    +0.000 A 
ATOM     14  C   UNL     1      -1.864  10.567  18.003  0.00  0.00    +0.000 A 
ENDBRANCH   3   6
ENDBRANCH   1   2
BRANCH   1  15
ATOM     15  C   UNL     1       2.604   7.872  17.326  0.00  0.00    +0.000 C 
BRANCH  15  19
ATOM     16  C   UNL     1       4.493   4.537  19.364  0.00  0.00    +0.000 A 
ATOM     17  C   UNL     1       3.293   5.077  19.834  0.00  0.00    +0.000 A 
ATOM     18  C   UNL     1       2.689   6.137  19.178  0.00  0.00    +0.000 A 
ATOM     19  C   UNL     1       3.298   6.738  18.072  0.00  0.00    +0.000 A 
ATOM     20  C   UNL     1       4.568   6.259  17.642  0.00  0.00    +0.000 A 
ATOM     21  C   UNL     1       5.175   5.153  18.295  0.00  0.00    +0.000 A 
BRANCH  16  23
ATOM     22  C   UNL     1       4.087   2.283  19.932  0.00  0.00    +0.000 C 
ATOM     23  O   UNL     1       4.994   3.390  19.928  0.00  0.00    +0.000 OA
ENDBRANCH  16  23
BRANCH  20  24
ATOM     24  O   UNL     1       5.075   6.964  16.570  0.00  0.00    +0.000 OA
ATOM     25  C   UNL     1       5.237   6.330  15.311  0.00  0.00    +0.000 C 
ENDBRANCH  20  24
BRANCH  21  26
ATOM     26  O   UNL     1       6.343   4.680  17.755  0.00  0.00    +0.000 OA
ATOM     27  C   UNL     1       7.593   5.128  18.257  0.00  0.00    +0.000 C 
ENDBRANCH  21  26
ENDBRANCH  15  19
ENDBRANCH   1  15
TORSDOF 7
ENDMDL
MODEL 5
REMARK VINA RESULT:      -7.0      3.313      8.125
REMARK  Name = 
REMARK  10 active torsions:
REMARK  status: ('A' for Active; 'I' for Inactive)
REMARK    1  A    between atoms: C_1  and  O_2
REMARK    2  A    between atoms: O_2  and  C_3
REMARK    3  A    between atoms: C_6  and  C_7
REMARK    4  A    between atoms: C_7  and  C_8
REMARK    5  A    between atoms: C_8  and  N_9
REMARK    6  A    between atoms: C_10  and  C_12
REMARK    7  A    between atoms: C_21  and  O_22
REMARK    8  A    between atoms: O_22  and  C_23
REMARK    9  A    between atoms: C_24  and  O_25
REMARK   10  A    between atoms: O_25  and  C_26
REMARK                            x       y       z     vdW  Elec       q    Type
REMARK                         _______ _______ _______ _____ _____    ______ ____
ROOT
ATOM      1  C   UNL     1       2.445   8.811  17.839  0.00  0.00    +0.000 C 
ENDROOT
BRANCH   1   2
ATOM      2  N   UNL     1       2.368   7.365  17.887  0.00  0.00    +0.000 N 
ATOM      3  C   UNL     1       3.501   6.603  17.730  0.00  0.00    +0.000 C 
ATOM      4  O   UNL     1       4.605   7.087  17.490  0.00  0.00    +0.000 OA
ATOM      5  H   UNL     1       1.625   6.955  18.443  0.00  0.00    +0.000 HD
BRANCH   3   6
ATOM      6  C   UNL     1       3.337   5.180  17.944  0.00  0.00    +0.000 A 
ATOM      7  C   UNL     1       3.879   4.170  17.125  0.00  0.00    +0.000 A 
ATOM      8  N   UNL     1       3.581   2.940  17.538  0.00  0.00    +0.000 NA
ATOM      9  N   UNL     1       2.779   3.125  18.612  0.00  0.00    +0.000 N 
ATOM     10  C   UNL     1       2.173   2.125  19.376  0.00  0.00    +0.000 A 
ATOM     11  C   UNL     1       1.384   2.450  20.412  0.00  0.00    +0.000 A 
ATOM     12  C   UNL     1       1.167   3.853  20.706  0.00  0.00    +0.000 A 
ATOM     13  C   UNL     1       1.747   4.824  19.981  0.00  0.00    +0.000 A 
ATOM     14  C   UNL     1       2.607   4.487  18.894  0.00  0.00    +0.000 A 
ENDBRANCH   3   6
ENDBRANCH   1   2
BRANCH   1  15
ATOM     15  C   UNL     1       1.096   9.530  18.048  0.00  0.00    +0.000 C 
BRANCH  15  19
ATOM     16  C   UNL     1       0.967  12.732  20.977  0.00  0.00    +0.000 A 
ATOM     17  C   UNL     1       1.474  12.955  19.694  0.00  0.00    +0.000 A 
ATOM     18  C   UNL     1       1.507  11.933  18.759  0.00  0.00    +0.000 A 
ATOM     19  C   UNL     1       1.101  10.638  19.096  0.00  0.00    +0.000 A 
ATOM     20  C   UNL     1       0.674  10.376  20.428  0.00  0.00    +0.000 A 
ATOM     21  C   UNL     1       0.609  11.429  21.380  0.00  0.00    +0.000 A 
BRANCH  16  23
ATOM     22  C   UNL     1      -0.252  14.693  21.464  0.00  0.00    +0.000 C 
ATOM     23  O   UNL     1       0.792  13.789  21.836  0.00  0.00    +0.000 OA
ENDBRANCH  16  23
BRANCH  20  24
ATOM     24  O   UNL     1       0.341   9.054  20.637  0.00  0.00    +0.000 OA
ATOM     25  C   UNL     1       1.204   8.209  21.382  0.00  0.00    +0.000 C 
ENDBRANCH  20  24
BRANCH  21  26
ATOM     26  O   UNL     1       0.084  11.122  22.608  0.00  0.00    +0.000 OA
ATOM     27  C   UNL     1      -1.309  11.259  22.843  0.00  0.00    +0.000 C 
ENDBRANCH  21  26
ENDBRANCH  15  19
ENDBRANCH   1  15
TORSDOF 7
ENDMDL
MODEL 6
REMARK VINA RESULT:      -6.9      1.148      1.354
REMARK  Name = 
REMARK  10 active torsions:
REMARK  status: ('A' for Active; 'I' for Inactive)
REMARK    1  A    between atoms: C_1  and  O_2
REMARK    2  A    between atoms: O_2  and  C_3
REMARK    3  A    between atoms: C_6  and  C_7
REMARK    4  A    between atoms: C_7  and  C_8
REMARK    5  A    between atoms: C_8  and  N_9
REMARK    6  A    between atoms: C_10  and  C_12
REMARK    7  A    between atoms: C_21  and  O_22
REMARK    8  A    between atoms: O_22  and  C_23
REMARK    9  A    between atoms: C_24  and  O_25
REMARK   10  A    between atoms: O_25  and  C_26
REMARK                            x       y       z     vdW  Elec       q    Type
REMARK                         _______ _______ _______ _____ _____    ______ ____
ROOT
ATOM      1  C   UNL     1       1.965   8.385  19.439  0.00  0.00    +0.000 C 
ENDROOT
BRANCH   1   2
ATOM      2  N   UNL     1       0.737   9.144  19.567  0.00  0.00    +0.000 N 
ATOM      3  C   UNL     1       0.618  10.378  18.975  0.00  0.00    +0.000 C 
ATOM      4  O   UNL     1       1.539  10.922  18.369  0.00  0.00    +0.000 OA
ATOM      5  H   UNL     1      -0.123   8.621  19.692  0.00  0.00    +0.000 HD
BRANCH   3   6
ATOM      6  C   UNL     1      -0.697  10.982  19.039  0.00  0.00    +0.000 A 
ATOM      7  C   UNL     1      -1.147  11.838  20.063  0.00  0.00    +0.000 A 
ATOM      8  N   UNL     1      -2.399  12.259  19.887  0.00  0.00    +0.000 NA
ATOM      9  N   UNL     1      -2.816  11.629  18.764  0.00  0.00    +0.000 N 
ATOM     10  C   UNL     1      -4.084  11.719  18.186  0.00  0.00    +0.000 A 
ATOM     11  C   UNL     1      -4.371  11.026  17.074  0.00  0.00    +0.000 A 
ATOM     12  C   UNL     1      -3.344  10.177  16.500  0.00  0.00    +0.000 A 
ATOM     13  C   UNL     1      -2.119  10.084  17.044  0.00  0.00    +0.000 A 
ATOM     14  C   UNL     1      -1.799  10.838  18.213  0.00  0.00    +0.000 A 
ENDBRANCH   3   6
ENDBRANCH   1   2
BRANCH   1  15
ATOM     15  C   UNL     1       2.045   7.506  18.174  0.00  0.00    +0.000 C 
BRANCH  15  19
ATOM     16  C   UNL     1       5.451   4.813  18.168  0.00  0.00    +0.000 A 
ATOM     17  C   UNL     1       5.495   6.026  17.476  0.00  0.00    +0.000 A 
ATOM     18  C   UNL     1       4.410   6.887  17.486  0.00  0.00    +0.000 A 
ATOM     19  C   UNL     1       3.219   6.534  18.127  0.00  0.00    +0.000 A 
ATOM     20  C   UNL     1       3.127   5.258  18.753  0.00  0.00    +0.000 A 
ATOM     21  C   UNL     1       4.249   4.387  18.771  0.00  0.00    +0.000 A 
BRANCH  16  23
ATOM     22  C   UNL     1       7.749   4.614  17.673  0.00  0.00    +0.000 C 
ATOM     23  O   UNL     1       6.585   4.048  18.282  0.00  0.00    +0.000 OA
ENDBRANCH  16  23
BRANCH  20  24
ATOM     24  O   UNL     1       1.889   5.020  19.311  0.00  0.00    +0.000 OA
ATOM     25  C   UNL     1       1.742   4.952  20.721  0.00  0.00    +0.000 C 
ENDBRANCH  20  24
BRANCH  21  26
ATOM     26  O   UNL     1       4.120   3.225  19.487  0.00  0.00    +0.000 OA
ATOM     27  C   UNL     1       3.660   2.043  18.851  0.00  0.00    +0.000 C 
ENDBRANCH  21  26
ENDBRANCH  15  19
ENDBRANCH   1  15
TORSDOF 7
ENDMDL
MODEL 7
REMARK VINA RESULT:      -6.9      3.170      8.876
REMARK  Name = 
REMARK  10 active torsions:
REMARK  status: ('A' for Active; 'I' for Inactive)
REMARK    1  A    between atoms: C_1  and  O_2
REMARK    2  A    between atoms: O_2  and  C_3
REMARK    3  A    between atoms: C_6  and  C_7
REMARK    4  A    between atoms: C_7  and  C_8
REMARK    5  A    between atoms: C_8  and  N_9
REMARK    6  A    between atoms: C_10  and  C_12
REMARK    7  A    between atoms: C_21  and  O_22
REMARK    8  A    between atoms: O_22  and  C_23
REMARK    9  A    between atoms: C_24  and  O_25
REMARK   10  A    between atoms: O_25  and  C_26
REMARK                            x       y       z     vdW  Elec       q    Type
REMARK                         _______ _______ _______ _____ _____    ______ ____
ROOT
ATOM      1  C   UNL     1       1.705   6.926  20.409  0.00  0.00    +0.000 C 
ENDROOT
BRANCH   1   2
ATOM      2  N   UNL     1       2.977   6.332  20.051  0.00  0.00    +0.000 N 
ATOM      3  C   UNL     1       3.100   5.594  18.897  0.00  0.00    +0.000 C 
ATOM      4  O   UNL     1       2.151   5.354  18.153  0.00  0.00    +0.000 OA
ATOM      5  H   UNL     1       3.817   6.796  20.378  0.00  0.00    +0.000 HD
BRANCH   3   6
ATOM      6  C   UNL     1       4.443   5.174  18.560  0.00  0.00    +0.000 A 
ATOM      7  C   UNL     1       5.422   4.765  19.488  0.00  0.00    +0.000 A 
ATOM      8  N   UNL     1       6.579   4.428  18.920  0.00  0.00    +0.000 NA
ATOM      9  N   UNL     1       6.396   4.672  17.601  0.00  0.00    +0.000 N 
ATOM     10  C   UNL     1       7.344   4.507  16.589  0.00  0.00    +0.000 A 
ATOM     11  C   UNL     1       7.033   4.802  15.317  0.00  0.00    +0.000 A 
ATOM     12  C   UNL     1       5.705   5.304  15.025  0.00  0.00    +0.000 A 
ATOM     13  C   UNL     1       4.782   5.463  15.989  0.00  0.00    +0.000 A 
ATOM     14  C   UNL     1       5.097   5.128  17.340  0.00  0.00    +0.000 A 
ENDBRANCH   3   6
ENDBRANCH   1   2
BRANCH   1  15
ATOM     15  C   UNL     1       1.491   8.355  19.868  0.00  0.00    +0.000 C 
BRANCH  15  19
ATOM     16  C   UNL     1      -0.683  11.066  22.471  0.00  0.00    +0.000 A 
ATOM     17  C   UNL     1      -0.120   9.888  22.971  0.00  0.00    +0.000 A 
ATOM     18  C   UNL     1       0.579   9.029  22.140  0.00  0.00    +0.000 A 
ATOM     19  C   UNL     1       0.680   9.281  20.768  0.00  0.00    +0.000 A 
ATOM     20  C   UNL     1       0.028  10.426  20.230  0.00  0.00    +0.000 A 
ATOM     21  C   UNL     1      -0.663  11.325  21.085  0.00  0.00    +0.000 A 
BRANCH  16  23
ATOM     22  C   UNL     1      -2.659  11.941  23.419  0.00  0.00    +0.000 C 
ATOM     23  O   UNL     1      -1.231  11.982  23.334  0.00  0.00    +0.000 OA
ENDBRANCH  16  23
BRANCH  20  24
ATOM     24  O   UNL     1       0.172  10.534  18.862  0.00  0.00    +0.000 OA
ATOM     25  C   UNL     1      -0.928  10.269  18.006  0.00  0.00    +0.000 C 
ENDBRANCH  20  24
BRANCH  21  26
ATOM     26  O   UNL     1      -1.170  12.462  20.510  0.00  0.00    +0.000 OA
ATOM     27  C   UNL     1      -0.353  13.614  20.368  0.00  0.00    +0.000 C 
ENDBRANCH  21  26
ENDBRANCH  15  19
ENDBRANCH   1  15
TORSDOF 7
ENDMDL
MODEL 8
REMARK VINA RESULT:      -6.9      2.931      4.881
REMARK  Name = 
REMARK  10 active torsions:
REMARK  status: ('A' for Active; 'I' for Inactive)
REMARK    1  A    between atoms: C_1  and  O_2
REMARK    2  A    between atoms: O_2  and  C_3
REMARK    3  A    between atoms: C_6  and  C_7
REMARK    4  A    between atoms: C_7  and  C_8
REMARK    5  A    between atoms: C_8  and  N_9
REMARK    6  A    between atoms: C_10  and  C_12
REMARK    7  A    between atoms: C_21  and  O_22
REMARK    8  A    between atoms: O_22  and  C_23
REMARK    9  A    between atoms: C_24  and  O_25
REMARK   10  A    between atoms: O_25  and  C_26
REMARK                            x       y       z     vdW  Elec       q    Type
REMARK                         _______ _______ _______ _____ _____    ______ ____
ROOT
ATOM      1  C   UNL     1       2.699   3.813  18.309  0.00  0.00    +0.000 C 
ENDROOT
BRANCH   1   2
ATOM      2  N   UNL     1       2.300   5.196  18.139  0.00  0.00    +0.000 N 
ATOM      3  C   UNL     1       2.495   6.105  19.151  0.00  0.00    +0.000 C 
ATOM      4  O   UNL     1       2.954   5.797  20.249  0.00  0.00    +0.000 OA
ATOM      5  H   UNL     1       2.297   5.568  17.196  0.00  0.00    +0.000 HD
BRANCH   3   6
ATOM      6  C   UNL     1       2.199   7.484  18.823  0.00  0.00    +0.000 A 
ATOM      7  C   UNL     1       2.582   8.134  17.632  0.00  0.00    +0.000 A 
ATOM      8  N   UNL     1       2.188   9.405  17.575  0.00  0.00    +0.000 NA
ATOM      9  N   UNL     1       1.587   9.630  18.767  0.00  0.00    +0.000 N 
ATOM     10  C   UNL     1       1.035  10.837  19.201  0.00  0.00    +0.000 A 
ATOM     11  C   UNL     1       0.480  10.927  20.419  0.00  0.00    +0.000 A 
ATOM     12  C   UNL     1       0.479   9.753  21.271  0.00  0.00    +0.000 A 
ATOM     13  C   UNL     1       1.002   8.585  20.862  0.00  0.00    +0.000 A 
ATOM     14  C   UNL     1       1.572   8.474  19.559  0.00  0.00    +0.000 A 
ENDBRANCH   3   6
ENDBRANCH   1   2
BRANCH   1  15
ATOM     15  C   UNL     1       4.196   3.614  18.624  0.00  0.00    +0.000 C 
BRANCH  15  19
ATOM     16  C   UNL     1       6.831   5.057  15.489  0.00  0.00    +0.000 A 
ATOM     17  C   UNL     1       5.899   4.048  15.234  0.00  0.00    +0.000 A 
ATOM     18  C   UNL     1       5.055   3.594  16.234  0.00  0.00    +0.000 A 
ATOM     19  C   UNL     1       5.161   4.083  17.540  0.00  0.00    +0.000 A 
ATOM     20  C   UNL     1       6.171   5.041  17.835  0.00  0.00    +0.000 A 
ATOM     21  C   UNL     1       7.018   5.531  16.804  0.00  0.00    +0.000 A 
BRANCH  16  23
ATOM     22  C   UNL     1       7.450   4.891  13.218  0.00  0.00    +0.000 C 
ATOM     23  O   UNL     1       7.546   5.606  14.454  0.00  0.00    +0.000 OA
ENDBRANCH  16  23
BRANCH  20  24
ATOM     24  O   UNL     1       6.193   5.408  19.164  0.00  0.00    +0.000 OA
ATOM     25  C   UNL     1       7.422   5.446  19.874  0.00  0.00    +0.000 C 
ENDBRANCH  20  24
BRANCH  21  26
ATOM     26  O   UNL     1       7.891   6.531  17.143  0.00  0.00    +0.000 OA
ATOM     27  C   UNL     1       7.430   7.867  17.273  0.00  0.00    +0.000 C 
ENDBRANCH  21  26
ENDBRANCH  15  19
ENDBRANCH   1  15
TORSDOF 7
ENDMDL
MODEL 9
REMARK VINA RESULT:      -6.8      2.195      2.943
REMARK  Name = 
REMARK  10 active torsions:
REMARK  status: ('A' for Active; 'I' for Inactive)
REMARK    1  A    between atoms: C_1  and  O_2
REMARK    2  A    between atoms: O_2  and  C_3
REMARK    3  A    between atoms: C_6  and  C_7
REMARK    4  A    between atoms: C_7  and  C_8
REMARK    5  A    between atoms: C_8  and  N_9
REMARK    6  A    between atoms: C_10  and  C_12
REMARK    7  A    between atoms: C_21  and  O_22
REMARK    8  A    between atoms: O_22  and  C_23
REMARK    9  A    between atoms: C_24  and  O_25
REMARK   10  A    between atoms: O_25  and  C_26
REMARK                            x       y       z     vdW  Elec       q    Type
REMARK                         _______ _______ _______ _____ _____    ______ ____
ROOT
ATOM      1  C   UNL     1       2.142   8.949  17.945  0.00  0.00    +0.000 C 
ENDROOT
BRANCH   1   2
ATOM      2  N   UNL     1       1.154   9.674  18.718  0.00  0.00    +0.000 N 
ATOM      3  C   UNL     1       1.231  11.041  18.839  0.00  0.00    +0.000 C 
ATOM      4  O   UNL     1       2.149  11.705  18.359  0.00  0.00    +0.000 OA
ATOM      5  H   UNL     1       0.227   9.269  18.787  0.00  0.00    +0.000 HD
BRANCH   3   6
ATOM      6  C   UNL     1       0.114  11.678  19.505  0.00  0.00    +0.000 A 
ATOM      7  C   UNL     1      -0.634  12.753  18.984  0.00  0.00    +0.000 A 
ATOM      8  N   UNL     1      -1.610  13.158  19.795  0.00  0.00    +0.000 NA
ATOM      9  N   UNL     1      -1.477  12.387  20.900  0.00  0.00    +0.000 N 
ATOM     10  C   UNL     1      -2.254  12.459  22.059  0.00  0.00    +0.000 A 
ATOM     11  C   UNL     1      -2.004  11.641  23.092  0.00  0.00    +0.000 A 
ATOM     12  C   UNL     1      -0.908  10.698  22.983  0.00  0.00    +0.000 A 
ATOM     13  C   UNL     1      -0.156  10.616  21.872  0.00  0.00    +0.000 A 
ATOM     14  C   UNL     1      -0.431  11.465  20.759  0.00  0.00    +0.000 A 
ENDBRANCH   3   6
ENDBRANCH   1   2
BRANCH   1  15
ATOM     15  C   UNL     1       1.905   7.427  17.871  0.00  0.00    +0.000 C 
BRANCH  15  19
ATOM     16  C   UNL     1       5.523   5.067  18.308  0.00  0.00    +0.000 A 
ATOM     17  C   UNL     1       5.494   6.186  17.471  0.00  0.00    +0.000 A 
ATOM     18  C   UNL     1       4.340   6.941  17.339  0.00  0.00    +0.000 A 
ATOM     19  C   UNL     1       3.157   6.564  17.983  0.00  0.00    +0.000 A 
ATOM     20  C   UNL     1       3.149   5.372  18.761  0.00  0.00    +0.000 A 
ATOM     21  C   UNL     1       4.338   4.613  18.923  0.00  0.00    +0.000 A 
BRANCH  16  23
ATOM     22  C   UNL     1       7.680   4.545  17.504  0.00  0.00    +0.000 C 
ATOM     23  O   UNL     1       6.713   4.427  18.552  0.00  0.00    +0.000 OA
ENDBRANCH  16  23
BRANCH  20  24
ATOM     24  O   UNL     1       1.913   5.095  19.306  0.00  0.00    +0.000 OA
ATOM     25  C   UNL     1       1.687   5.282  20.695  0.00  0.00    +0.000 C 
ENDBRANCH  20  24
BRANCH  21  26
ATOM     26  O   UNL     1       4.278   3.541  19.775  0.00  0.00    +0.000 OA
ATOM     27  C   UNL     1       3.902   2.263  19.287  0.00  0.00    +0.000 C 
ENDBRANCH  21  26
ENDBRANCH  15  19
ENDBRANCH   1  15
TORSDOF 7
ENDMDL
