MODEL 1
REMARK VINA RESULT:      -6.7      0.000      0.000
REMARK  Name = 
REMARK  17 active torsions:
REMARK  status: ('A' for Active; 'I' for Inactive)
REMARK    1  A    between atoms: C_1  and  C_2
REMARK    2  A    between atoms: C_2  and  O_3
REMARK    3  A    between atoms: C_2  and  C_4
REMARK    4  A    between atoms: C_4  and  C_5
REMARK    5  A    between atoms: N_7  and  C_8
REMARK    6  A    between atoms: C_8  and  C_9
REMARK    7  A    between atoms: N_11  and  C_12
REMARK    8  A    between atoms: C_12  and  C_13
REMARK    9  A    between atoms: C_13  and  C_14
REMARK   10  A    between atoms: C_14  and  C_15
REMARK   11  A    between atoms: C_15  and  C_16
REMARK   12  A    between atoms: C_16  and  C_17
REMARK   13  A    between atoms: C_17  and  C_18
REMARK   14  A    between atoms: C_18  and  C_19
REMARK   15  A    between atoms: C_19  and  C_20
REMARK   16  A    between atoms: C_20  and  C_21
REMARK   17  A    between atoms: C_21  and  C_22
REMARK                            x       y       z     vdW  Elec       q    Type
REMARK                         _______ _______ _______ _____ _____    ______ ____
ROOT
ATOM      1  C   UNL     1       2.289   8.851  18.378  0.00  0.00    +0.000 C 
ENDROOT
BRANCH   1   2
ATOM      2  C   UNL     1       0.986   9.605  18.132  0.00  0.00    +0.000 C 
BRANCH   2   5
ATOM      3  C   UNL     1      -0.201  11.644  18.842  0.00  0.00    +0.000 C 
ATOM      4  O   UNL     1      -1.103  11.462  18.027  0.00  0.00    +0.000 OA
ATOM      5  N   UNL     1       0.840  10.758  18.997  0.00  0.00    +0.000 N 
ATOM      6  H   UNL     1       1.558  10.919  19.693  0.00  0.00    +0.000 HD
BRANCH   3   7
ATOM      7  C   UNL     1      -0.149  12.853  19.745  0.00  0.00    +0.000 C 
BRANCH   7  10
ATOM      8  C   UNL     1      -2.002  12.250  22.746  0.00  0.00    +0.000 A 
ATOM      9  C   UNL     1      -1.991  12.741  21.463  0.00  0.00    +0.000 A 
ATOM     10  N   UNL     1      -0.710  12.558  21.041  0.00  0.00    +0.000 N 
ATOM     11  N   UNL     1       0.021  11.926  21.980  0.00  0.00    +0.000 NA
ATOM     12  N   UNL     1      -0.763  11.743  23.038  0.00  0.00    +0.000 NA
BRANCH   8  13
ATOM     13  C   UNL     1      -3.131  12.174  23.711  0.00  0.00    +0.000 C 
BRANCH  13  15
ATOM     14  C   UNL     1      -5.594  12.834  24.014  0.00  0.00    +0.000 C 
ATOM     15  C   UNL     1      -4.228  13.217  23.456  0.00  0.00    +0.000 C 
BRANCH  15  16
ATOM     16  O   UNL     1      -3.853  14.486  23.989  0.00  0.00    +0.000 OA
ATOM     17  H   UNL     1      -2.912  14.421  24.244  0.00  0.00    +0.000 HD
ENDBRANCH  15  16
ENDBRANCH  13  15
ENDBRANCH   8  13
ENDBRANCH   7  10
ENDBRANCH   3   7
ENDBRANCH   2   5
ENDBRANCH   1   2
BRANCH   1  18
ATOM     18  C   UNL     1       2.132   7.344  18.146  0.00  0.00    +0.000 C 
BRANCH  18  19
ATOM     19  C   UNL     1       2.759   6.464  19.235  0.00  0.00    +0.000 C 
BRANCH  19  20
ATOM     20  C   UNL     1       1.794   6.229  20.393  0.00  0.00    +0.000 C 
BRANCH  20  21
ATOM     21  C   UNL     1       1.478   4.750  20.601  0.00  0.00    +0.000 C 
BRANCH  21  22
ATOM     22  C   UNL     1       1.361   4.000  19.268  0.00  0.00    +0.000 C 
BRANCH  22  23
ATOM     23  C   UNL     1       1.370   2.471  19.391  0.00  0.00    +0.000 C 
BRANCH  23  24
ATOM     24  C   UNL     1       2.651   1.862  18.824  0.00  0.00    +0.000 C 
BRANCH  24  25
ATOM     25  C   UNL     1       3.356   2.792  17.844  0.00  0.00    +0.000 C 
BRANCH  25  26
ATOM     26  C   UNL     1       4.564   3.450  18.495  0.00  0.00    +0.000 C 
ATOM     27  O   UNL     1       4.908   3.169  19.641  0.00  0.00    +0.000 OA
ATOM     28  N   UNL     1       5.262   4.362  17.737  0.00  0.00    +0.000 N 
ATOM     29  C   UNL     1       6.519   4.896  18.263  0.00  0.00    +0.000 C 
ATOM     30  C   UNL     1       7.681   4.509  17.338  0.00  0.00    +0.000 C 
ATOM     31  N   UNL     1       7.443   4.945  15.952  0.00  0.00    +0.000 NA
ATOM     32  C   UNL     1       6.169   4.420  15.437  0.00  0.00    +0.000 C 
ATOM     33  C   UNL     1       4.975   4.750  16.354  0.00  0.00    +0.000 C 
ATOM     34  H   UNL     1       8.207   4.615  15.363  0.00  0.00    +0.000 HD
ENDBRANCH  25  26
ENDBRANCH  24  25
ENDBRANCH  23  24
ENDBRANCH  22  23
ENDBRANCH  21  22
ENDBRANCH  20  21
ENDBRANCH  19  20
ENDBRANCH  18  19
ENDBRANCH   1  18
TORSDOF 16
ENDMDL
MODEL 2
REMARK VINA RESULT:      -6.5      1.690      1.808
REMARK  Name = 
REMARK  17 active torsions:
REMARK  status: ('A' for Active; 'I' for Inactive)
REMARK    1  A    between atoms: C_1  and  C_2
REMARK    2  A    between atoms: C_2  and  O_3
REMARK    3  A    between atoms: C_2  and  C_4
REMARK    4  A    between atoms: C_4  and  C_5
REMARK    5  A    between atoms: N_7  and  C_8
REMARK    6  A    between atoms: C_8  and  C_9
REMARK    7  A    between atoms: N_11  and  C_12
REMARK    8  A    between atoms: C_12  and  C_13
REMARK    9  A    between atoms: C_13  and  C_14
REMARK   10  A    between atoms: C_14  and  C_15
REMARK   11  A    between atoms: C_15  and  C_16
REMARK   12  A    between atoms: C_16  and  C_17
REMARK   13  A    between atoms: C_17  and  C_18
REMARK   14  A    between atoms: C_18  and  C_19
REMARK   15  A    between atoms: C_19  and  C_20
REMARK   16  A    between atoms: C_20  and  C_21
REMARK   17  A    between atoms: C_21  and  C_22
REMARK                            x       y       z     vdW  Elec       q    Type
REMARK                         _______ _______ _______ _____ _____    ______ ____
ROOT
ATOM      1  C   UNL     1       1.848   9.244  17.846  0.00  0.00    +0.000 C 
ENDROOT
BRANCH   1   2
ATOM      2  C   UNL     1       0.566   9.881  18.376  0.00  0.00    +0.000 C 
BRANCH   2   5
ATOM      3  C   UNL     1      -0.170  12.162  18.944  0.00  0.00    +0.000 C 
ATOM      4  O   UNL     1      -1.299  11.961  18.503  0.00  0.00    +0.000 OA
ATOM      5  N   UNL     1       0.796  11.183  18.967  0.00  0.00    +0.000 N 
ATOM      6  H   UNL     1       1.712  11.368  19.360  0.00  0.00    +0.000 HD
BRANCH   3   7
ATOM      7  C   UNL     1       0.263  13.499  19.498  0.00  0.00    +0.000 C 
BRANCH   7  10
ATOM      8  C   UNL     1      -1.128  14.220  22.715  0.00  0.00    +0.000 A 
ATOM      9  C   UNL     1      -1.064  14.529  21.379  0.00  0.00    +0.000 A 
ATOM     10  N   UNL     1      -0.156  13.652  20.871  0.00  0.00    +0.000 N 
ATOM     11  N   UNL     1       0.272  12.797  21.821  0.00  0.00    +0.000 NA
ATOM     12  N   UNL     1      -0.312  13.147  22.963  0.00  0.00    +0.000 NA
BRANCH   8  13
ATOM     13  C   UNL     1      -1.959  14.838  23.782  0.00  0.00    +0.000 C 
BRANCH  13  15
ATOM     14  C   UNL     1      -1.332  15.657  26.134  0.00  0.00    +0.000 C 
ATOM     15  C   UNL     1      -1.201  15.869  24.630  0.00  0.00    +0.000 C 
BRANCH  15  16
ATOM     16  O   UNL     1       0.183  15.886  24.287  0.00  0.00    +0.000 OA
ATOM     17  H   UNL     1       0.639  15.287  24.910  0.00  0.00    +0.000 HD
ENDBRANCH  15  16
ENDBRANCH  13  15
ENDBRANCH   8  13
ENDBRANCH   7  10
ENDBRANCH   3   7
ENDBRANCH   2   5
ENDBRANCH   1   2
BRANCH   1  18
ATOM     18  C   UNL     1       2.258   8.015  18.664  0.00  0.00    +0.000 C 
BRANCH  18  19
ATOM     19  C   UNL     1       1.742   8.009  20.108  0.00  0.00    +0.000 C 
BRANCH  19  20
ATOM     20  C   UNL     1       1.666   6.594  20.673  0.00  0.00    +0.000 C 
BRANCH  20  21
ATOM     21  C   UNL     1       2.146   5.540  19.680  0.00  0.00    +0.000 C 
BRANCH  21  22
ATOM     22  C   UNL     1       1.353   4.233  19.809  0.00  0.00    +0.000 C 
BRANCH  22  23
ATOM     23  C   UNL     1       1.380   3.342  18.561  0.00  0.00    +0.000 C 
BRANCH  23  24
ATOM     24  C   UNL     1       2.255   2.107  18.762  0.00  0.00    +0.000 C 
BRANCH  24  25
ATOM     25  C   UNL     1       3.538   2.161  17.942  0.00  0.00    +0.000 C 
BRANCH  25  26
ATOM     26  C   UNL     1       4.559   3.084  18.592  0.00  0.00    +0.000 C 
ATOM     27  O   UNL     1       4.859   2.974  19.778  0.00  0.00    +0.000 OA
ATOM     28  N   UNL     1       5.140   4.036  17.787  0.00  0.00    +0.000 N 
ATOM     29  C   UNL     1       6.240   4.836  18.328  0.00  0.00    +0.000 C 
ATOM     30  C   UNL     1       7.518   4.586  17.516  0.00  0.00    +0.000 C 
ATOM     31  N   UNL     1       7.313   4.846  16.082  0.00  0.00    +0.000 NA
ATOM     32  C   UNL     1       6.194   4.053  15.549  0.00  0.00    +0.000 C 
ATOM     33  C   UNL     1       4.895   4.240  16.358  0.00  0.00    +0.000 C 
ATOM     34  H   UNL     1       8.165   4.610  15.575  0.00  0.00    +0.000 HD
ENDBRANCH  25  26
ENDBRANCH  24  25
ENDBRANCH  23  24
ENDBRANCH  22  23
ENDBRANCH  21  22
ENDBRANCH  20  21
ENDBRANCH  19  20
ENDBRANCH  18  19
ENDBRANCH   1  18
TORSDOF 16
ENDMDL
MODEL 3
REMARK VINA RESULT:      -6.5      2.948      4.427
REMARK  Name = 
REMARK  17 active torsions:
REMARK  status: ('A' for Active; 'I' for Inactive)
REMARK    1  A    between atoms: C_1  and  C_2
REMARK    2  A    between atoms: C_2  and  O_3
REMARK    3  A    between atoms: C_2  and  C_4
REMARK    4  A    between atoms: C_4  and  C_5
REMARK    5  A    between atoms: N_7  and  C_8
REMARK    6  A    between atoms: C_8  and  C_9
REMARK    7  A    between atoms: N_11  and  C_12
REMARK    8  A    between atoms: C_12  and  C_13
REMARK    9  A    between atoms: C_13  and  C_14
REMARK   10  A    between atoms: C_14  and  C_15
REMARK   11  A    between atoms: C_15  and  C_16
REMARK   12  A    between atoms: C_16  and  C_17
REMARK   13  A    between atoms: C_17  and  C_18
REMARK   14  A    between atoms: C_18  and  C_19
REMARK   15  A    between atoms: C_19  and  C_20
REMARK   16  A    between atoms: C_20  and  C_21
REMARK   17  A    between atoms: C_21  and  C_22
REMARK                            x       y       z     vdW  Elec       q    Type
REMARK                         _______ _______ _______ _____ _____    ______ ____
ROOT
ATOM      1  C   UNL     1       0.468   8.480  21.295  0.00  0.00    +0.000 C 
ENDROOT
BRANCH   1   2
ATOM      2  C   UNL     1       0.714   9.976  21.473  0.00  0.00    +0.000 C 
BRANCH   2   5
ATOM      3  C   UNL     1       0.587  12.088  20.210  0.00  0.00    +0.000 C 
ATOM      4  O   UNL     1       1.297  12.674  21.023  0.00  0.00    +0.000 OA
ATOM      5  N   UNL     1       0.288  10.749  20.325  0.00  0.00    +0.000 N 
ATOM      6  H   UNL     1      -0.281  10.284  19.627  0.00  0.00    +0.000 HD
BRANCH   3   7
ATOM      7  C   UNL     1      -0.026  12.777  19.015  0.00  0.00    +0.000 C 
BRANCH   7  10
ATOM      8  C   UNL     1      -3.285  11.582  18.144  0.00  0.00    +0.000 A 
ATOM      9  C   UNL     1      -1.975  11.767  17.774  0.00  0.00    +0.000 A 
ATOM     10  N   UNL     1      -1.405  12.388  18.842  0.00  0.00    +0.000 N 
ATOM     11  N   UNL     1      -2.290  12.522  19.850  0.00  0.00    +0.000 NA
ATOM     12  N   UNL     1      -3.454  12.039  19.425  0.00  0.00    +0.000 NA
BRANCH   8  13
ATOM     13  C   UNL     1      -4.393  10.944  17.385  0.00  0.00    +0.000 C 
BRANCH  13  15
ATOM     14  C   UNL     1      -6.754  11.175  18.368  0.00  0.00    +0.000 C 
ATOM     15  C   UNL     1      -5.702  11.744  17.423  0.00  0.00    +0.000 C 
BRANCH  15  16
ATOM     16  O   UNL     1      -5.455  13.103  17.777  0.00  0.00    +0.000 OA
ATOM     17  H   UNL     1      -4.870  13.476  17.088  0.00  0.00    +0.000 HD
ENDBRANCH  15  16
ENDBRANCH  13  15
ENDBRANCH   8  13
ENDBRANCH   7  10
ENDBRANCH   3   7
ENDBRANCH   2   5
ENDBRANCH   1   2
BRANCH   1  18
ATOM     18  C   UNL     1       1.731   7.740  20.843  0.00  0.00    +0.000 C 
BRANCH  18  19
ATOM     19  C   UNL     1       1.995   7.795  19.334  0.00  0.00    +0.000 C 
BRANCH  19  20
ATOM     20  C   UNL     1       3.000   6.732  18.899  0.00  0.00    +0.000 C 
BRANCH  20  21
ATOM     21  C   UNL     1       3.659   7.061  17.563  0.00  0.00    +0.000 C 
BRANCH  21  22
ATOM     22  C   UNL     1       5.108   6.560  17.505  0.00  0.00    +0.000 C 
BRANCH  22  23
ATOM     23  C   UNL     1       5.306   5.267  16.704  0.00  0.00    +0.000 C 
BRANCH  23  24
ATOM     24  C   UNL     1       4.059   4.387  16.725  0.00  0.00    +0.000 C 
BRANCH  24  25
ATOM     25  C   UNL     1       4.321   3.016  17.337  0.00  0.00    +0.000 C 
BRANCH  25  26
ATOM     26  C   UNL     1       4.324   3.092  18.857  0.00  0.00    +0.000 C 
ATOM     27  O   UNL     1       5.278   3.560  19.473  0.00  0.00    +0.000 OA
ATOM     28  N   UNL     1       3.205   2.626  19.507  0.00  0.00    +0.000 N 
ATOM     29  C   UNL     1       3.099   2.827  20.953  0.00  0.00    +0.000 C 
ATOM     30  C   UNL     1       1.882   3.707  21.271  0.00  0.00    +0.000 C 
ATOM     31  N   UNL     1       0.642   3.148  20.709  0.00  0.00    +0.000 NA
ATOM     32  C   UNL     1       0.763   2.931  19.258  0.00  0.00    +0.000 C 
ATOM     33  C   UNL     1       1.995   2.083  18.885  0.00  0.00    +0.000 C 
ATOM     34  H   UNL     1      -0.127   3.792  20.890  0.00  0.00    +0.000 HD
ENDBRANCH  25  26
ENDBRANCH  24  25
ENDBRANCH  23  24
ENDBRANCH  22  23
ENDBRANCH  21  22
ENDBRANCH  20  21
ENDBRANCH  19  20
ENDBRANCH  18  19
ENDBRANCH   1  18
TORSDOF 16
ENDMDL
MODEL 4
REMARK VINA RESULT:      -6.5      2.994      3.307
REMARK  Name = 
REMARK  17 active torsions:
REMARK  status: ('A' for Active; 'I' for Inactive)
REMARK    1  A    between atoms: C_1  and  C_2
REMARK    2  A    between atoms: C_2  and  O_3
REMARK    3  A    between atoms: C_2  and  C_4
REMARK    4  A    between atoms: C_4  and  C_5
REMARK    5  A    between atoms: N_7  and  C_8
REMARK    6  A    between atoms: C_8  and  C_9
REMARK    7  A    between atoms: N_11  and  C_12
REMARK    8  A    between atoms: C_12  and  C_13
REMARK    9  A    between atoms: C_13  and  C_14
REMARK   10  A    between atoms: C_14  and  C_15
REMARK   11  A    between atoms: C_15  and  C_16
REMARK   12  A    between atoms: C_16  and  C_17
REMARK   13  A    between atoms: C_17  and  C_18
REMARK   14  A    between atoms: C_18  and  C_19
REMARK   15  A    between atoms: C_19  and  C_20
REMARK   16  A    between atoms: C_20  and  C_21
REMARK   17  A    between atoms: C_21  and  C_22
REMARK                            x       y       z     vdW  Elec       q    Type
REMARK                         _______ _______ _______ _____ _____    ______ ____
ROOT
ATOM      1  C   UNL     1       2.104   9.374  17.840  0.00  0.00    +0.000 C 
ENDROOT
BRANCH   1   2
ATOM      2  C   UNL     1       0.804   9.885  18.455  0.00  0.00    +0.000 C 
BRANCH   2   5
ATOM      3  C   UNL     1      -1.480  10.538  17.800  0.00  0.00    +0.000 C 
ATOM      4  O   UNL     1      -1.661  11.145  18.852  0.00  0.00    +0.000 OA
ATOM      5  N   UNL     1      -0.283   9.929  17.499  0.00  0.00    +0.000 N 
ATOM      6  H   UNL     1      -0.151   9.455  16.612  0.00  0.00    +0.000 HD
BRANCH   3   7
ATOM      7  C   UNL     1      -2.550  10.398  16.743  0.00  0.00    +0.000 C 
BRANCH   7  10
ATOM      8  C   UNL     1      -5.730  11.727  17.706  0.00  0.00    +0.000 A 
ATOM      9  C   UNL     1      -4.558  11.900  17.010  0.00  0.00    +0.000 A 
ATOM     10  N   UNL     1      -3.844  10.769  17.263  0.00  0.00    +0.000 N 
ATOM     11  N   UNL     1      -4.556   9.908  18.016  0.00  0.00    +0.000 NA
ATOM     12  N   UNL     1      -5.714  10.494  18.304  0.00  0.00    +0.000 NA
BRANCH   8  13
ATOM     13  C   UNL     1      -6.905  12.632  17.803  0.00  0.00    +0.000 C 
BRANCH  13  15
ATOM     14  C   UNL     1      -6.757  12.752  20.363  0.00  0.00    +0.000 C 
ATOM     15  C   UNL     1      -6.894  13.521  19.054  0.00  0.00    +0.000 C 
BRANCH  15  16
ATOM     16  O   UNL     1      -5.849  14.488  18.978  0.00  0.00    +0.000 OA
ATOM     17  H   UNL     1      -5.204  14.268  19.678  0.00  0.00    +0.000 HD
ENDBRANCH  15  16
ENDBRANCH  13  15
ENDBRANCH   8  13
ENDBRANCH   7  10
ENDBRANCH   3   7
ENDBRANCH   2   5
ENDBRANCH   1   2
BRANCH   1  18
ATOM     18  C   UNL     1       2.299   7.873  18.077  0.00  0.00    +0.000 C 
BRANCH  18  19
ATOM     19  C   UNL     1       2.126   7.431  19.535  0.00  0.00    +0.000 C 
BRANCH  19  20
ATOM     20  C   UNL     1       2.721   6.047  19.778  0.00  0.00    +0.000 C 
BRANCH  20  21
ATOM     21  C   UNL     1       1.652   4.972  19.955  0.00  0.00    +0.000 C 
BRANCH  21  22
ATOM     22  C   UNL     1       1.401   4.200  18.653  0.00  0.00    +0.000 C 
BRANCH  22  23
ATOM     23  C   UNL     1       1.196   2.691  18.833  0.00  0.00    +0.000 C 
BRANCH  23  24
ATOM     24  C   UNL     1       2.521   1.956  19.023  0.00  0.00    +0.000 C 
BRANCH  24  25
ATOM     25  C   UNL     1       3.551   2.326  17.963  0.00  0.00    +0.000 C 
BRANCH  25  26
ATOM     26  C   UNL     1       4.636   3.218  18.550  0.00  0.00    +0.000 C 
ATOM     27  O   UNL     1       4.983   3.118  19.724  0.00  0.00    +0.000 OA
ATOM     28  N   UNL     1       5.220   4.131  17.702  0.00  0.00    +0.000 N 
ATOM     29  C   UNL     1       6.373   4.895  18.179  0.00  0.00    +0.000 C 
ATOM     30  C   UNL     1       7.604   4.578  17.318  0.00  0.00    +0.000 C 
ATOM     31  N   UNL     1       7.346   4.820  15.889  0.00  0.00    +0.000 NA
ATOM     32  C   UNL     1       6.174   4.064  15.421  0.00  0.00    +0.000 C 
ATOM     33  C   UNL     1       4.920   4.319  16.281  0.00  0.00    +0.000 C 
ATOM     34  H   UNL     1       8.165   4.539  15.351  0.00  0.00    +0.000 HD
ENDBRANCH  25  26
ENDBRANCH  24  25
ENDBRANCH  23  24
ENDBRANCH  22  23
ENDBRANCH  21  22
ENDBRANCH  20  21
ENDBRANCH  19  20
ENDBRANCH  18  19
ENDBRANCH   1  18
TORSDOF 16
ENDMDL
MODEL 5
REMARK VINA RESULT:      -6.5      7.018     11.293
REMARK  Name = 
REMARK  17 active torsions:
REMARK  status: ('A' for Active; 'I' for Inactive)
REMARK    1  A    between atoms: C_1  and  C_2
REMARK    2  A    between atoms: C_2  and  O_3
REMARK    3  A    between atoms: C_2  and  C_4
REMARK    4  A    between atoms: C_4  and  C_5
REMARK    5  A    between atoms: N_7  and  C_8
REMARK    6  A    between atoms: C_8  and  C_9
REMARK    7  A    between atoms: N_11  and  C_12
REMARK    8  A    between atoms: C_12  and  C_13
REMARK    9  A    between atoms: C_13  and  C_14
REMARK   10  A    between atoms: C_14  and  C_15
REMARK   11  A    between atoms: C_15  and  C_16
REMARK   12  A    between atoms: C_16  and  C_17
REMARK   13  A    between atoms: C_17  and  C_18
REMARK   14  A    between atoms: C_18  and  C_19
REMARK   15  A    between atoms: C_19  and  C_20
REMARK   16  A    between atoms: C_20  and  C_21
REMARK   17  A    between atoms: C_21  and  C_22
REMARK                            x       y       z     vdW  Elec       q    Type
REMARK                         _______ _______ _______ _____ _____    ______ ____
ROOT
ATOM      1  C   UNL     1       7.808   5.480  19.192  0.00  0.00    +0.000 C 
ENDROOT
BRANCH   1   2
ATOM      2  C   UNL     1       8.056   4.658  17.931  0.00  0.00    +0.000 C 
BRANCH   2   5
ATOM      3  C   UNL     1       6.479   4.609  16.038  0.00  0.00    +0.000 C 
ATOM      4  O   UNL     1       7.223   5.290  15.336  0.00  0.00    +0.000 OA
ATOM      5  N   UNL     1       6.827   4.210  17.308  0.00  0.00    +0.000 N 
ATOM      6  H   UNL     1       6.205   3.628  17.858  0.00  0.00    +0.000 HD
BRANCH   3   7
ATOM      7  C   UNL     1       5.116   4.150  15.577  0.00  0.00    +0.000 C 
BRANCH   7  10
ATOM      8  C   UNL     1       2.951   3.354  18.313  0.00  0.00    +0.000 A 
ATOM      9  C   UNL     1       3.736   2.903  17.280  0.00  0.00    +0.000 A 
ATOM     10  N   UNL     1       4.203   4.036  16.689  0.00  0.00    +0.000 N 
ATOM     11  N   UNL     1       3.791   5.132  17.357  0.00  0.00    +0.000 NA
ATOM     12  N   UNL     1       3.009   4.723  18.351  0.00  0.00    +0.000 NA
BRANCH   8  13
ATOM     13  C   UNL     1       2.182   2.572  19.317  0.00  0.00    +0.000 C 
BRANCH  13  15
ATOM     14  C   UNL     1       1.347   2.664  21.744  0.00  0.00    +0.000 C 
ATOM     15  C   UNL     1       2.475   2.979  20.768  0.00  0.00    +0.000 C 
BRANCH  15  16
ATOM     16  O   UNL     1       3.672   2.360  21.234  0.00  0.00    +0.000 OA
ATOM     17  H   UNL     1       4.173   2.074  20.445  0.00  0.00    +0.000 HD
ENDBRANCH  15  16
ENDBRANCH  13  15
ENDBRANCH   8  13
ENDBRANCH   7  10
ENDBRANCH   3   7
ENDBRANCH   2   5
ENDBRANCH   1   2
BRANCH   1  18
ATOM     18  C   UNL     1       7.311   6.893  18.867  0.00  0.00    +0.000 C 
BRANCH  18  19
ATOM     19  C   UNL     1       8.058   7.581  17.718  0.00  0.00    +0.000 C 
BRANCH  19  20
ATOM     20  C   UNL     1       7.877   9.096  17.757  0.00  0.00    +0.000 C 
BRANCH  20  21
ATOM     21  C   UNL     1       8.846   9.776  18.719  0.00  0.00    +0.000 C 
BRANCH  21  22
ATOM     22  C   UNL     1       9.331  11.128  18.178  0.00  0.00    +0.000 C 
BRANCH  22  23
ATOM     23  C   UNL     1      10.855  11.290  18.133  0.00  0.00    +0.000 C 
BRANCH  23  24
ATOM     24  C   UNL     1      11.268  12.610  17.486  0.00  0.00    +0.000 C 
BRANCH  24  25
ATOM     25  C   UNL     1      10.148  13.643  17.500  0.00  0.00    +0.000 C 
BRANCH  25  26
ATOM     26  C   UNL     1      10.701  15.041  17.735  0.00  0.00    +0.000 C 
ATOM     27  O   UNL     1      11.773  15.396  17.252  0.00  0.00    +0.000 OA
ATOM     28  N   UNL     1       9.939  15.893  18.501  0.00  0.00    +0.000 N 
ATOM     29  C   UNL     1      10.354  17.291  18.619  0.00  0.00    +0.000 C 
ATOM     30  C   UNL     1       9.272  18.209  18.034  0.00  0.00    +0.000 C 
ATOM     31  N   UNL     1       7.961  17.977  18.664  0.00  0.00    +0.000 NA
ATOM     32  C   UNL     1       7.560  16.566  18.558  0.00  0.00    +0.000 C 
ATOM     33  C   UNL     1       8.634  15.600  19.098  0.00  0.00    +0.000 C 
ATOM     34  H   UNL     1       7.263  18.561  18.205  0.00  0.00    +0.000 HD
ENDBRANCH  25  26
ENDBRANCH  24  25
ENDBRANCH  23  24
ENDBRANCH  22  23
ENDBRANCH  21  22
ENDBRANCH  20  21
ENDBRANCH  19  20
ENDBRANCH  18  19
ENDBRANCH   1  18
TORSDOF 16
ENDMDL
MODEL 6
REMARK VINA RESULT:      -6.4      2.496      2.927
REMARK  Name = 
REMARK  17 active torsions:
REMARK  status: ('A' for Active; 'I' for Inactive)
REMARK    1  A    between atoms: C_1  and  C_2
REMARK    2  A    between atoms: C_2  and  O_3
REMARK    3  A    between atoms: C_2  and  C_4
REMARK    4  A    between atoms: C_4  and  C_5
REMARK    5  A    between atoms: N_7  and  C_8
REMARK    6  A    between atoms: C_8  and  C_9
REMARK    7  A    between atoms: N_11  and  C_12
REMARK    8  A    between atoms: C_12  and  C_13
REMARK    9  A    between atoms: C_13  and  C_14
REMARK   10  A    between atoms: C_14  and  C_15
REMARK   11  A    between atoms: C_15  and  C_16
REMARK   12  A    between atoms: C_16  and  C_17
REMARK   13  A    between atoms: C_17  and  C_18
REMARK   14  A    between atoms: C_18  and  C_19
REMARK   15  A    between atoms: C_19  and  C_20
REMARK   16  A    between atoms: C_20  and  C_21
REMARK   17  A    between atoms: C_21  and  C_22
REMARK                            x       y       z     vdW  Elec       q    Type
REMARK                         _______ _______ _______ _____ _____    ______ ____
ROOT
ATOM      1  C   UNL     1       2.370   8.654  17.973  0.00  0.00    +0.000 C 
ENDROOT
BRANCH   1   2
ATOM      2  C   UNL     1       1.755   9.553  19.042  0.00  0.00    +0.000 C 
BRANCH   2   5
ATOM      3  C   UNL     1       0.767  11.804  19.200  0.00  0.00    +0.000 C 
ATOM      4  O   UNL     1       1.233  11.984  20.322  0.00  0.00    +0.000 OA
ATOM      5  N   UNL     1       1.012  10.660  18.476  0.00  0.00    +0.000 N 
ATOM      6  H   UNL     1       0.635  10.547  17.542  0.00  0.00    +0.000 HD
BRANCH   3   7
ATOM      7  C   UNL     1      -0.118  12.816  18.512  0.00  0.00    +0.000 C 
BRANCH   7  10
ATOM      8  C   UNL     1      -3.573  11.907  18.720  0.00  0.00    +0.000 A 
ATOM      9  C   UNL     1      -2.487  12.501  19.316  0.00  0.00    +0.000 A 
ATOM     10  N   UNL     1      -1.477  12.339  18.419  0.00  0.00    +0.000 N 
ATOM     11  N   UNL     1      -1.921  11.740  17.296  0.00  0.00    +0.000 NA
ATOM     12  N   UNL     1      -3.207  11.459  17.477  0.00  0.00    +0.000 NA
BRANCH   8  13
ATOM     13  C   UNL     1      -4.965  11.778  19.224  0.00  0.00    +0.000 C 
BRANCH  13  15
ATOM     14  C   UNL     1      -6.885  10.072  19.203  0.00  0.00    +0.000 C 
ATOM     15  C   UNL     1      -5.833  10.822  18.394  0.00  0.00    +0.000 C 
BRANCH  15  16
ATOM     16  O   UNL     1      -6.482  11.520  17.333  0.00  0.00    +0.000 OA
ATOM     17  H   UNL     1      -6.350  12.475  17.497  0.00  0.00    +0.000 HD
ENDBRANCH  15  16
ENDBRANCH  13  15
ENDBRANCH   8  13
ENDBRANCH   7  10
ENDBRANCH   3   7
ENDBRANCH   2   5
ENDBRANCH   1   2
BRANCH   1  18
ATOM     18  C   UNL     1       1.777   7.241  18.001  0.00  0.00    +0.000 C 
BRANCH  18  19
ATOM     19  C   UNL     1       2.617   6.213  18.767  0.00  0.00    +0.000 C 
BRANCH  19  20
ATOM     20  C   UNL     1       2.151   6.070  20.213  0.00  0.00    +0.000 C 
BRANCH  20  21
ATOM     21  C   UNL     1       1.140   4.942  20.394  0.00  0.00    +0.000 C 
BRANCH  21  22
ATOM     22  C   UNL     1       1.818   3.566  20.404  0.00  0.00    +0.000 C 
BRANCH  22  23
ATOM     23  C   UNL     1       1.406   2.640  19.253  0.00  0.00    +0.000 C 
BRANCH  23  24
ATOM     24  C   UNL     1       2.232   2.893  17.994  0.00  0.00    +0.000 C 
BRANCH  24  25
ATOM     25  C   UNL     1       3.590   2.203  18.039  0.00  0.00    +0.000 C 
BRANCH  25  26
ATOM     26  C   UNL     1       4.662   3.149  18.562  0.00  0.00    +0.000 C 
ATOM     27  O   UNL     1       5.048   3.099  19.727  0.00  0.00    +0.000 OA
ATOM     28  N   UNL     1       5.190   4.051  17.667  0.00  0.00    +0.000 N 
ATOM     29  C   UNL     1       6.331   4.866  18.082  0.00  0.00    +0.000 C 
ATOM     30  C   UNL     1       7.545   4.560  17.194  0.00  0.00    +0.000 C 
ATOM     31  N   UNL     1       7.237   4.745  15.767  0.00  0.00    +0.000 NA
ATOM     32  C   UNL     1       6.077   3.937  15.360  0.00  0.00    +0.000 C 
ATOM     33  C   UNL     1       4.841   4.181  16.250  0.00  0.00    +0.000 C 
ATOM     34  H   UNL     1       8.048   4.473  15.212  0.00  0.00    +0.000 HD
ENDBRANCH  25  26
ENDBRANCH  24  25
ENDBRANCH  23  24
ENDBRANCH  22  23
ENDBRANCH  21  22
ENDBRANCH  20  21
ENDBRANCH  19  20
ENDBRANCH  18  19
ENDBRANCH   1  18
TORSDOF 16
ENDMDL
MODEL 7
REMARK VINA RESULT:      -6.4      2.828      4.455
REMARK  Name = 
REMARK  17 active torsions:
REMARK  status: ('A' for Active; 'I' for Inactive)
REMARK    1  A    between atoms: C_1  and  C_2
REMARK    2  A    between atoms: C_2  and  O_3
REMARK    3  A    between atoms: C_2  and  C_4
REMARK    4  A    between atoms: C_4  and  C_5
REMARK    5  A    between atoms: N_7  and  C_8
REMARK    6  A    between atoms: C_8  and  C_9
REMARK    7  A    between atoms: N_11  and  C_12
REMARK    8  A    between atoms: C_12  and  C_13
REMARK    9  A    between atoms: C_13  and  C_14
REMARK   10  A    between atoms: C_14  and  C_15
REMARK   11  A    between atoms: C_15  and  C_16
REMARK   12  A    between atoms: C_16  and  C_17
REMARK   13  A    between atoms: C_17  and  C_18
REMARK   14  A    between atoms: C_18  and  C_19
REMARK   15  A    between atoms: C_19  and  C_20
REMARK   16  A    between atoms: C_20  and  C_21
REMARK   17  A    between atoms: C_21  and  C_22
REMARK                            x       y       z     vdW  Elec       q    Type
REMARK                         _______ _______ _______ _____ _____    ______ ____
ROOT
ATOM      1  C   UNL     1      -0.477   8.779  21.860  0.00  0.00    +0.000 C 
ENDROOT
BRANCH   1   2
ATOM      2  C   UNL     1      -0.270   9.644  23.100  0.00  0.00    +0.000 C 
BRANCH   2   5
ATOM      3  C   UNL     1      -1.045  11.951  22.715  0.00  0.00    +0.000 C 
ATOM      4  O   UNL     1      -0.041  12.233  22.066  0.00  0.00    +0.000 OA
ATOM      5  N   UNL     1      -1.265  10.690  23.220  0.00  0.00    +0.000 N 
ATOM      6  H   UNL     1      -2.113  10.477  23.732  0.00  0.00    +0.000 HD
BRANCH   3   7
ATOM      7  C   UNL     1      -2.128  12.958  23.022  0.00  0.00    +0.000 C 
BRANCH   7  10
ATOM      8  C   UNL     1      -4.576  12.596  20.437  0.00  0.00    +0.000 A 
ATOM      9  C   UNL     1      -3.280  12.895  20.779  0.00  0.00    +0.000 A 
ATOM     10  N   UNL     1      -3.256  12.794  22.136  0.00  0.00    +0.000 N 
ATOM     11  N   UNL     1      -4.450  12.386  22.610  0.00  0.00    +0.000 NA
ATOM     12  N   UNL     1      -5.273  12.274  21.572  0.00  0.00    +0.000 NA
BRANCH   8  13
ATOM     13  C   UNL     1      -5.199  12.538  19.088  0.00  0.00    +0.000 C 
BRANCH  13  15
ATOM     14  C   UNL     1      -6.661  10.434  18.910  0.00  0.00    +0.000 C 
ATOM     15  C   UNL     1      -5.346  11.112  18.541  0.00  0.00    +0.000 C 
BRANCH  15  16
ATOM     16  O   UNL     1      -5.205  11.098  17.122  0.00  0.00    +0.000 OA
ATOM     17  H   UNL     1      -6.097  10.956  16.748  0.00  0.00    +0.000 HD
ENDBRANCH  15  16
ENDBRANCH  13  15
ENDBRANCH   8  13
ENDBRANCH   7  10
ENDBRANCH   3   7
ENDBRANCH   2   5
ENDBRANCH   1   2
BRANCH   1  18
ATOM     18  C   UNL     1       0.823   8.584  21.073  0.00  0.00    +0.000 C 
BRANCH  18  19
ATOM     19  C   UNL     1       1.177   7.122  20.779  0.00  0.00    +0.000 C 
BRANCH  19  20
ATOM     20  C   UNL     1       2.485   7.004  20.003  0.00  0.00    +0.000 C 
BRANCH  20  21
ATOM     21  C   UNL     1       2.263   6.841  18.502  0.00  0.00    +0.000 C 
BRANCH  21  22
ATOM     22  C   UNL     1       3.114   7.826  17.690  0.00  0.00    +0.000 C 
BRANCH  22  23
ATOM     23  C   UNL     1       4.164   7.170  16.785  0.00  0.00    +0.000 C 
BRANCH  23  24
ATOM     24  C   UNL     1       5.141   6.305  17.579  0.00  0.00    +0.000 C 
BRANCH  24  25
ATOM     25  C   UNL     1       4.966   4.818  17.298  0.00  0.00    +0.000 C 
BRANCH  25  26
ATOM     26  C   UNL     1       5.064   4.008  18.583  0.00  0.00    +0.000 C 
ATOM     27  O   UNL     1       5.993   4.165  19.371  0.00  0.00    +0.000 OA
ATOM     28  N   UNL     1       4.057   3.103  18.829  0.00  0.00    +0.000 N 
ATOM     29  C   UNL     1       4.027   2.421  20.124  0.00  0.00    +0.000 C 
ATOM     30  C   UNL     1       2.737   2.779  20.874  0.00  0.00    +0.000 C 
ATOM     31  N   UNL     1       1.539   2.477  20.073  0.00  0.00    +0.000 NA
ATOM     32  C   UNL     1       1.585   3.150  18.766  0.00  0.00    +0.000 C 
ATOM     33  C   UNL     1       2.884   2.852  17.990  0.00  0.00    +0.000 C 
ATOM     34  H   UNL     1       0.712   2.786  20.582  0.00  0.00    +0.000 HD
ENDBRANCH  25  26
ENDBRANCH  24  25
ENDBRANCH  23  24
ENDBRANCH  22  23
ENDBRANCH  21  22
ENDBRANCH  20  21
ENDBRANCH  19  20
ENDBRANCH  18  19
ENDBRANCH   1  18
TORSDOF 16
ENDMDL
MODEL 8
REMARK VINA RESULT:      -6.4      6.500     11.339
REMARK  Name = 
REMARK  17 active torsions:
REMARK  status: ('A' for Active; 'I' for Inactive)
REMARK    1  A    between atoms: C_1  and  C_2
REMARK    2  A    between atoms: C_2  and  O_3
REMARK    3  A    between atoms: C_2  and  C_4
REMARK    4  A    between atoms: C_4  and  C_5
REMARK    5  A    between atoms: N_7  and  C_8
REMARK    6  A    between atoms: C_8  and  C_9
REMARK    7  A    between atoms: N_11  and  C_12
REMARK    8  A    between atoms: C_12  and  C_13
REMARK    9  A    between atoms: C_13  and  C_14
REMARK   10  A    between atoms: C_14  and  C_15
REMARK   11  A    between atoms: C_15  and  C_16
REMARK   12  A    between atoms: C_16  and  C_17
REMARK   13  A    between atoms: C_17  and  C_18
REMARK   14  A    between atoms: C_18  and  C_19
REMARK   15  A    between atoms: C_19  and  C_20
REMARK   16  A    between atoms: C_20  and  C_21
REMARK   17  A    between atoms: C_21  and  C_22
REMARK                            x       y       z     vdW  Elec       q    Type
REMARK                         _______ _______ _______ _____ _____    ______ ____
ROOT
ATOM      1  C   UNL     1       7.979   7.982  17.295  0.00  0.00    +0.000 C 
ENDROOT
BRANCH   1   2
ATOM      2  C   UNL     1       7.565   6.882  18.268  0.00  0.00    +0.000 C 
BRANCH   2   5
ATOM      3  C   UNL     1       6.639   4.840  17.244  0.00  0.00    +0.000 C 
ATOM      4  O   UNL     1       7.737   4.288  17.233  0.00  0.00    +0.000 OA
ATOM      5  N   UNL     1       6.452   6.095  17.777  0.00  0.00    +0.000 N 
ATOM      6  H   UNL     1       5.531   6.518  17.795  0.00  0.00    +0.000 HD
BRANCH   3   7
ATOM      7  C   UNL     1       5.398   4.199  16.673  0.00  0.00    +0.000 C 
BRANCH   7  10
ATOM      8  C   UNL     1       3.580   3.084  19.546  0.00  0.00    +0.000 A 
ATOM      9  C   UNL     1       4.492   3.962  19.014  0.00  0.00    +0.000 A 
ATOM     10  N   UNL     1       4.605   3.586  17.711  0.00  0.00    +0.000 N 
ATOM     11  N   UNL     1       3.760   2.575  17.427  0.00  0.00    +0.000 NA
ATOM     12  N   UNL     1       3.134   2.251  18.554  0.00  0.00    +0.000 NA
BRANCH   8  13
ATOM     13  C   UNL     1       3.050   3.009  20.933  0.00  0.00    +0.000 C 
BRANCH  13  15
ATOM     14  C   UNL     1       1.585   5.101  20.667  0.00  0.00    +0.000 C 
ATOM     15  C   UNL     1       1.660   3.640  21.094  0.00  0.00    +0.000 C 
BRANCH  15  16
ATOM     16  O   UNL     1       0.681   2.898  20.369  0.00  0.00    +0.000 OA
ATOM     17  H   UNL     1       0.581   2.038  20.822  0.00  0.00    +0.000 HD
ENDBRANCH  15  16
ENDBRANCH  13  15
ENDBRANCH   8  13
ENDBRANCH   7  10
ENDBRANCH   3   7
ENDBRANCH   2   5
ENDBRANCH   1   2
BRANCH   1  18
ATOM     18  C   UNL     1       8.001   9.360  17.964  0.00  0.00    +0.000 C 
BRANCH  18  19
ATOM     19  C   UNL     1       9.126   9.553  18.987  0.00  0.00    +0.000 C 
BRANCH  19  20
ATOM     20  C   UNL     1       9.587  11.006  19.051  0.00  0.00    +0.000 C 
BRANCH  20  21
ATOM     21  C   UNL     1      10.563  11.361  17.934  0.00  0.00    +0.000 C 
BRANCH  21  22
ATOM     22  C   UNL     1      11.771  12.145  18.461  0.00  0.00    +0.000 C 
BRANCH  22  23
ATOM     23  C   UNL     1      11.508  12.939  19.746  0.00  0.00    +0.000 C 
BRANCH  23  24
ATOM     24  C   UNL     1      11.884  14.411  19.593  0.00  0.00    +0.000 C 
BRANCH  24  25
ATOM     25  C   UNL     1      10.962  15.153  18.634  0.00  0.00    +0.000 C 
BRANCH  25  26
ATOM     26  C   UNL     1       9.959  16.007  19.396  0.00  0.00    +0.000 C 
ATOM     27  O   UNL     1      10.297  17.048  19.955  0.00  0.00    +0.000 OA
ATOM     28  N   UNL     1       8.655  15.569  19.419  0.00  0.00    +0.000 N 
ATOM     29  C   UNL     1       7.632  16.438  20.002  0.00  0.00    +0.000 C 
ATOM     30  C   UNL     1       6.597  16.817  18.933  0.00  0.00    +0.000 C 
ATOM     31  N   UNL     1       6.003  15.627  18.303  0.00  0.00    +0.000 NA
ATOM     32  C   UNL     1       7.038  14.748  17.737  0.00  0.00    +0.000 C 
ATOM     33  C   UNL     1       8.125  14.371  18.764  0.00  0.00    +0.000 C 
ATOM     34  H   UNL     1       5.370  15.923  17.561  0.00  0.00    +0.000 HD
ENDBRANCH  25  26
ENDBRANCH  24  25
ENDBRANCH  23  24
ENDBRANCH  22  23
ENDBRANCH  21  22
ENDBRANCH  20  21
ENDBRANCH  19  20
ENDBRANCH  18  19
ENDBRANCH   1  18
TORSDOF 16
ENDMDL
MODEL 9
REMARK VINA RESULT:      -6.4      2.382     12.009
REMARK  Name = 
REMARK  17 active torsions:
REMARK  status: ('A' for Active; 'I' for Inactive)
REMARK    1  A    between atoms: C_1  and  C_2
REMARK    2  A    between atoms: C_2  and  O_3
REMARK    3  A    between atoms: C_2  and  C_4
REMARK    4  A    between atoms: C_4  and  C_5
REMARK    5  A    between atoms: N_7  and  C_8
REMARK    6  A    between atoms: C_8  and  C_9
REMARK    7  A    between atoms: N_11  and  C_12
REMARK    8  A    between atoms: C_12  and  C_13
REMARK    9  A    between atoms: C_13  and  C_14
REMARK   10  A    between atoms: C_14  and  C_15
REMARK   11  A    between atoms: C_15  and  C_16
REMARK   12  A    between atoms: C_16  and  C_17
REMARK   13  A    between atoms: C_17  and  C_18
REMARK   14  A    between atoms: C_18  and  C_19
REMARK   15  A    between atoms: C_19  and  C_20
REMARK   16  A    between atoms: C_20  and  C_21
REMARK   17  A    between atoms: C_21  and  C_22
REMARK                            x       y       z     vdW  Elec       q    Type
REMARK                         _______ _______ _______ _____ _____    ______ ____
ROOT
ATOM      1  C   UNL     1       2.474   6.457  18.966  0.00  0.00    +0.000 C 
ENDROOT
BRANCH   1   2
ATOM      2  C   UNL     1       3.594   5.665  19.634  0.00  0.00    +0.000 C 
BRANCH   2   5
ATOM      3  C   UNL     1       5.658   4.601  18.809  0.00  0.00    +0.000 C 
ATOM      4  O   UNL     1       5.363   3.521  19.316  0.00  0.00    +0.000 OA
ATOM      5  N   UNL     1       4.827   5.696  18.874  0.00  0.00    +0.000 N 
ATOM      6  H   UNL     1       5.083   6.568  18.427  0.00  0.00    +0.000 HD
BRANCH   3   7
ATOM      7  C   UNL     1       6.957   4.830  18.074  0.00  0.00    +0.000 C 
BRANCH   7  10
ATOM      8  C   UNL     1       6.068   4.395  14.635  0.00  0.00    +0.000 A 
ATOM      9  C   UNL     1       5.893   4.007  15.941  0.00  0.00    +0.000 A 
ATOM     10  N   UNL     1       6.759   4.785  16.645  0.00  0.00    +0.000 N 
ATOM     11  N   UNL     1       7.390   5.658  15.835  0.00  0.00    +0.000 NA
ATOM     12  N   UNL     1       6.980   5.418  14.593  0.00  0.00    +0.000 NA
BRANCH   8  13
ATOM     13  C   UNL     1       5.386   3.900  13.410  0.00  0.00    +0.000 C 
BRANCH  13  15
ATOM     14  C   UNL     1       5.596   2.234  11.468  0.00  0.00    +0.000 C 
ATOM     15  C   UNL     1       6.318   3.152  12.448  0.00  0.00    +0.000 C 
BRANCH  15  16
ATOM     16  O   UNL     1       7.125   4.068  11.711  0.00  0.00    +0.000 OA
ATOM     17  H   UNL     1       6.545   4.487  11.045  0.00  0.00    +0.000 HD
ENDBRANCH  15  16
ENDBRANCH  13  15
ENDBRANCH   8  13
ENDBRANCH   7  10
ENDBRANCH   3   7
ENDBRANCH   2   5
ENDBRANCH   1   2
BRANCH   1  18
ATOM     18  C   UNL     1       3.012   7.648  18.166  0.00  0.00    +0.000 C 
BRANCH  18  19
ATOM     19  C   UNL     1       1.936   8.625  17.678  0.00  0.00    +0.000 C 
BRANCH  19  20
ATOM     20  C   UNL     1       1.216   9.296  18.843  0.00  0.00    +0.000 C 
BRANCH  20  21
ATOM     21  C   UNL     1      -0.054  10.021  18.408  0.00  0.00    +0.000 C 
BRANCH  21  22
ATOM     22  C   UNL     1      -0.194  11.387  19.092  0.00  0.00    +0.000 C 
BRANCH  22  23
ATOM     23  C   UNL     1       0.655  11.558  20.358  0.00  0.00    +0.000 C 
BRANCH  23  24
ATOM     24  C   UNL     1       1.370  12.907  20.386  0.00  0.00    +0.000 C 
BRANCH  24  25
ATOM     25  C   UNL     1       0.832  13.831  21.471  0.00  0.00    +0.000 C 
BRANCH  25  26
ATOM     26  C   UNL     1      -0.556  14.341  21.111  0.00  0.00    +0.000 C 
ATOM     27  O   UNL     1      -0.756  14.983  20.083  0.00  0.00    +0.000 OA
ATOM     28  N   UNL     1      -1.579  14.036  21.979  0.00  0.00    +0.000 N 
ATOM     29  C   UNL     1      -2.951  14.367  21.592  0.00  0.00    +0.000 C 
ATOM     30  C   UNL     1      -3.789  13.085  21.491  0.00  0.00    +0.000 C 
ATOM     31  N   UNL     1      -3.750  12.308  22.740  0.00  0.00    +0.000 NA
ATOM     32  C   UNL     1      -2.367  11.996  23.133  0.00  0.00    +0.000 C 
ATOM     33  C   UNL     1      -1.474  13.250  23.211  0.00  0.00    +0.000 C 
ATOM     34  H   UNL     1      -4.267  11.439  22.609  0.00  0.00    +0.000 HD
ENDBRANCH  25  26
ENDBRANCH  24  25
ENDBRANCH  23  24
ENDBRANCH  22  23
ENDBRANCH  21  22
ENDBRANCH  20  21
ENDBRANCH  19  20
ENDBRANCH  18  19
ENDBRANCH   1  18
TORSDOF 16
ENDMDL
