MODEL 1
REMARK VINA RESULT:      -8.1      0.000      0.000
REMARK  Name = 
REMARK  4 active torsions:
REMARK  status: ('A' for Active; 'I' for Inactive)
REMARK    1  A    between atoms: C_1  and  C_2
REMARK    2  A    between atoms: C_6  and  C_7
REMARK    3  A    between atoms: N_10  and  C_11
REMARK    4  A    between atoms: C_16  and  C_17
REMARK                            x       y       z     vdW  Elec       q    Type
REMARK                         _______ _______ _______ _____ _____    ______ ____
ROOT
ATOM      1  C   UNL     1       1.534   9.299  19.619  0.00  0.00    +0.000 C 
ATOM      2  C   UNL     1       1.178   7.965  20.270  0.00  0.00    +0.000 C 
ATOM      3  C   UNL     1       2.338   7.019  20.019  0.00  0.00    +0.000 C 
ATOM      4  N   UNL     1       2.544   6.873  18.574  0.00  0.00    +0.000 N 
ATOM      5  C   UNL     1       2.644   8.084  17.753  0.00  0.00    +0.000 C 
ATOM      6  C   UNL     1       1.551   9.096  18.102  0.00  0.00    +0.000 C 
ENDROOT
BRANCH   1  12
ATOM      7  C   UNL     1      -1.453  10.344  18.589  0.00  0.00    +0.000 C 
ATOM      8  C   UNL     1      -0.568  10.831  19.663  0.00  0.00    +0.000 A 
ATOM      9  N   UNL     1      -0.894  11.860  20.514  0.00  0.00    +0.000 N 
ATOM     10  C   UNL     1       0.133  12.021  21.393  0.00  0.00    +0.000 A 
ATOM     11  N   UNL     1       1.102  11.168  21.161  0.00  0.00    +0.000 NA
ATOM     12  C   UNL     1       0.674  10.413  20.092  0.00  0.00    +0.000 A 
ATOM     13  H   UNL     1      -1.746  12.399  20.500  0.00  0.00    +0.000 HD
ENDBRANCH   1  12
BRANCH   4  14
ATOM     14  C   UNL     1       2.807   5.584  18.140  0.00  0.00    +0.000 A 
ATOM     15  N   UNL     1       1.678   4.849  17.954  0.00  0.00    +0.000 NA
ATOM     16  C   UNL     1       1.786   3.591  17.530  0.00  0.00    +0.000 A 
ATOM     17  N   UNL     1       2.925   2.972  17.249  0.00  0.00    +0.000 NA
ATOM     18  C   UNL     1       4.033   3.714  17.444  0.00  0.00    +0.000 A 
ATOM     19  C   UNL     1       4.075   5.036  17.895  0.00  0.00    +0.000 A 
BRANCH  19  20
ATOM     20  C   UNL     1       5.395   5.683  18.118  0.00  0.00    +0.000 A 
ATOM     21  C   UNL     1       6.229   5.311  19.193  0.00  0.00    +0.000 A 
ATOM     22  C   UNL     1       7.504   5.868  19.360  0.00  0.00    +0.000 A 
ATOM     23  C   UNL     1       7.994   6.777  18.430  0.00  0.00    +0.000 A 
ATOM     24  C   UNL     1       7.178   7.197  17.389  0.00  0.00    +0.000 A 
ATOM     25  C   UNL     1       5.872   6.705  17.283  0.00  0.00    +0.000 A 
ENDBRANCH  19  20
ENDBRANCH   4  14
TORSDOF 3
ENDMDL
MODEL 2
REMARK VINA RESULT:      -8.0      0.816      1.036
REMARK  Name = 
REMARK  4 active torsions:
REMARK  status: ('A' for Active; 'I' for Inactive)
REMARK    1  A    between atoms: C_1  and  C_2
REMARK    2  A    between atoms: C_6  and  C_7
REMARK    3  A    between atoms: N_10  and  C_11
REMARK    4  A    between atoms: C_16  and  C_17
REMARK                            x       y       z     vdW  Elec       q    Type
REMARK                         _______ _______ _______ _____ _____    ______ ____
ROOT
ATOM      1  C   UNL     1       1.573   9.399  19.453  0.00  0.00    +0.000 C 
ATOM      2  C   UNL     1       1.263   8.107  20.204  0.00  0.00    +0.000 C 
ATOM      3  C   UNL     1       2.414   7.151  19.946  0.00  0.00    +0.000 C 
ATOM      4  N   UNL     1       2.538   6.917  18.503  0.00  0.00    +0.000 N 
ATOM      5  C   UNL     1       2.583   8.075  17.605  0.00  0.00    +0.000 C 
ATOM      6  C   UNL     1       1.505   9.104  17.952  0.00  0.00    +0.000 C 
ENDROOT
BRANCH   1  12
ATOM      7  C   UNL     1       1.848  12.670  18.903  0.00  0.00    +0.000 C 
ATOM      8  C   UNL     1       0.852  11.890  19.661  0.00  0.00    +0.000 A 
ATOM      9  N   UNL     1      -0.245  12.445  20.275  0.00  0.00    +0.000 N 
ATOM     10  C   UNL     1      -0.959  11.438  20.850  0.00  0.00    +0.000 A 
ATOM     11  N   UNL     1      -0.391  10.273  20.653  0.00  0.00    +0.000 NA
ATOM     12  C   UNL     1       0.734  10.538  19.904  0.00  0.00    +0.000 A 
ATOM     13  H   UNL     1      -0.489  13.423  20.294  0.00  0.00    +0.000 HD
ENDBRANCH   1  12
BRANCH   4  14
ATOM     14  C   UNL     1       2.786   5.605  18.135  0.00  0.00    +0.000 A 
ATOM     15  N   UNL     1       1.646   4.880  17.970  0.00  0.00    +0.000 NA
ATOM     16  C   UNL     1       1.739   3.601  17.608  0.00  0.00    +0.000 A 
ATOM     17  N   UNL     1       2.870   2.951  17.372  0.00  0.00    +0.000 NA
ATOM     18  C   UNL     1       3.989   3.684  17.546  0.00  0.00    +0.000 A 
ATOM     19  C   UNL     1       4.047   5.025  17.932  0.00  0.00    +0.000 A 
BRANCH  19  20
ATOM     20  C   UNL     1       5.375   5.661  18.141  0.00  0.00    +0.000 A 
ATOM     21  C   UNL     1       6.215   5.286  19.210  0.00  0.00    +0.000 A 
ATOM     22  C   UNL     1       7.496   5.832  19.364  0.00  0.00    +0.000 A 
ATOM     23  C   UNL     1       7.986   6.732  18.426  0.00  0.00    +0.000 A 
ATOM     24  C   UNL     1       7.165   7.156  17.390  0.00  0.00    +0.000 A 
ATOM     25  C   UNL     1       5.854   6.676  17.298  0.00  0.00    +0.000 A 
ENDBRANCH  19  20
ENDBRANCH   4  14
TORSDOF 3
ENDMDL
MODEL 3
REMARK VINA RESULT:      -7.9      0.900      1.226
REMARK  Name = 
REMARK  4 active torsions:
REMARK  status: ('A' for Active; 'I' for Inactive)
REMARK    1  A    between atoms: C_1  and  C_2
REMARK    2  A    between atoms: C_6  and  C_7
REMARK    3  A    between atoms: N_10  and  C_11
REMARK    4  A    between atoms: C_16  and  C_17
REMARK                            x       y       z     vdW  Elec       q    Type
REMARK                         _______ _______ _______ _____ _____    ______ ____
ROOT
ATOM      1  C   UNL     1       1.457   9.026  19.977  0.00  0.00    +0.000 C 
ATOM      2  C   UNL     1       1.153   7.639  20.537  0.00  0.00    +0.000 C 
ATOM      3  C   UNL     1       2.336   6.750  20.199  0.00  0.00    +0.000 C 
ATOM      4  N   UNL     1       2.517   6.713  18.743  0.00  0.00    +0.000 N 
ATOM      5  C   UNL     1       2.565   7.981  18.010  0.00  0.00    +0.000 C 
ATOM      6  C   UNL     1       1.450   8.933  18.449  0.00  0.00    +0.000 C 
ENDROOT
BRANCH   1  12
ATOM      7  C   UNL     1       0.223   9.429  23.042  0.00  0.00    +0.000 C 
ATOM      8  C   UNL     1       0.078  10.240  21.819  0.00  0.00    +0.000 A 
ATOM      9  N   UNL     1      -0.618  11.424  21.766  0.00  0.00    +0.000 N 
ATOM     10  C   UNL     1      -0.520  11.914  20.500  0.00  0.00    +0.000 A 
ATOM     11  N   UNL     1       0.187  11.121  19.732  0.00  0.00    +0.000 NA
ATOM     12  C   UNL     1       0.575  10.078  20.543  0.00  0.00    +0.000 A 
ATOM     13  H   UNL     1      -1.110  11.863  22.530  0.00  0.00    +0.000 HD
ENDBRANCH   1  12
BRANCH   4  14
ATOM     14  C   UNL     1       2.809   5.467  18.214  0.00  0.00    +0.000 A 
ATOM     15  N   UNL     1       1.701   4.701  18.025  0.00  0.00    +0.000 NA
ATOM     16  C   UNL     1       1.837   3.479  17.514  0.00  0.00    +0.000 A 
ATOM     17  N   UNL     1       2.985   2.925  17.146  0.00  0.00    +0.000 NA
ATOM     18  C   UNL     1       4.072   3.696  17.346  0.00  0.00    +0.000 A 
ATOM     19  C   UNL     1       4.084   4.986  17.882  0.00  0.00    +0.000 A 
BRANCH  19  20
ATOM     20  C   UNL     1       5.388   5.671  18.094  0.00  0.00    +0.000 A 
ATOM     21  C   UNL     1       6.251   5.306  19.148  0.00  0.00    +0.000 A 
ATOM     22  C   UNL     1       7.511   5.898  19.305  0.00  0.00    +0.000 A 
ATOM     23  C   UNL     1       7.958   6.837  18.383  0.00  0.00    +0.000 A 
ATOM     24  C   UNL     1       7.111   7.250  17.362  0.00  0.00    +0.000 A 
ATOM     25  C   UNL     1       5.819   6.720  17.270  0.00  0.00    +0.000 A 
ENDBRANCH  19  20
ENDBRANCH   4  14
TORSDOF 3
ENDMDL
MODEL 4
REMARK VINA RESULT:      -7.9      0.340      1.034
REMARK  Name = 
REMARK  4 active torsions:
REMARK  status: ('A' for Active; 'I' for Inactive)
REMARK    1  A    between atoms: C_1  and  C_2
REMARK    2  A    between atoms: C_6  and  C_7
REMARK    3  A    between atoms: N_10  and  C_11
REMARK    4  A    between atoms: C_16  and  C_17
REMARK                            x       y       z     vdW  Elec       q    Type
REMARK                         _______ _______ _______ _____ _____    ______ ____
ROOT
ATOM      1  C   UNL     1       1.624   8.993  19.820  0.00  0.00    +0.000 C 
ATOM      2  C   UNL     1       1.239   7.652  20.440  0.00  0.00    +0.000 C 
ATOM      3  C   UNL     1       2.400   6.701  20.206  0.00  0.00    +0.000 C 
ATOM      4  N   UNL     1       2.645   6.576  18.765  0.00  0.00    +0.000 N 
ATOM      5  C   UNL     1       2.777   7.799  17.967  0.00  0.00    +0.000 C 
ATOM      6  C   UNL     1       1.682   8.814  18.301  0.00  0.00    +0.000 C 
ENDROOT
BRANCH   1  12
ATOM      7  C   UNL     1      -1.229  10.201  18.604  0.00  0.00    +0.000 C 
ATOM      8  C   UNL     1      -0.428  10.592  19.779  0.00  0.00    +0.000 A 
ATOM      9  N   UNL     1      -0.797  11.579  20.661  0.00  0.00    +0.000 N 
ATOM     10  C   UNL     1       0.153  11.651  21.634  0.00  0.00    +0.000 A 
ATOM     11  N   UNL     1       1.113  10.781  21.433  0.00  0.00    +0.000 NA
ATOM     12  C   UNL     1       0.759  10.107  20.286  0.00  0.00    +0.000 A 
ATOM     13  H   UNL     1      -1.628  12.148  20.607  0.00  0.00    +0.000 HD
ENDBRANCH   1  12
BRANCH   4  14
ATOM     14  C   UNL     1       2.911   5.292  18.319  0.00  0.00    +0.000 A 
ATOM     15  N   UNL     1       1.795   4.519  18.241  0.00  0.00    +0.000 NA
ATOM     16  C   UNL     1       1.906   3.261  17.818  0.00  0.00    +0.000 A 
ATOM     17  N   UNL     1       3.035   2.676  17.439  0.00  0.00    +0.000 NA
ATOM     18  C   UNL     1       4.131   3.456  17.529  0.00  0.00    +0.000 A 
ATOM     19  C   UNL     1       4.169   4.783  17.964  0.00  0.00    +0.000 A 
BRANCH  19  20
ATOM     20  C   UNL     1       5.482   5.475  18.062  0.00  0.00    +0.000 A 
ATOM     21  C   UNL     1       5.856   6.483  17.148  0.00  0.00    +0.000 A 
ATOM     22  C   UNL     1       7.060   7.187  17.284  0.00  0.00    +0.000 A 
ATOM     23  C   UNL     1       7.897   6.932  18.363  0.00  0.00    +0.000 A 
ATOM     24  C   UNL     1       7.578   5.914  19.251  0.00  0.00    +0.000 A 
ATOM     25  C   UNL     1       6.420   5.154  19.054  0.00  0.00    +0.000 A 
ENDBRANCH  19  20
ENDBRANCH   4  14
TORSDOF 3
ENDMDL
MODEL 5
REMARK VINA RESULT:      -7.8      1.118      1.327
REMARK  Name = 
REMARK  4 active torsions:
REMARK  status: ('A' for Active; 'I' for Inactive)
REMARK    1  A    between atoms: C_1  and  C_2
REMARK    2  A    between atoms: C_6  and  C_7
REMARK    3  A    between atoms: N_10  and  C_11
REMARK    4  A    between atoms: C_16  and  C_17
REMARK                            x       y       z     vdW  Elec       q    Type
REMARK                         _______ _______ _______ _____ _____    ______ ____
ROOT
ATOM      1  C   UNL     1       1.477   8.705  20.724  0.00  0.00    +0.000 C 
ATOM      2  C   UNL     1       1.174   7.256  21.094  0.00  0.00    +0.000 C 
ATOM      3  C   UNL     1       2.311   6.407  20.552  0.00  0.00    +0.000 C 
ATOM      4  N   UNL     1       2.400   6.583  19.098  0.00  0.00    +0.000 N 
ATOM      5  C   UNL     1       2.434   7.945  18.557  0.00  0.00    +0.000 C 
ATOM      6  C   UNL     1       1.372   8.838  19.202  0.00  0.00    +0.000 C 
ENDROOT
BRANCH   1  12
ATOM      7  C   UNL     1       1.033  11.981  20.341  0.00  0.00    +0.000 C 
ATOM      8  C   UNL     1       0.473  11.030  21.318  0.00  0.00    +0.000 A 
ATOM      9  N   UNL     1      -0.441  11.378  22.285  0.00  0.00    +0.000 N 
ATOM     10  C   UNL     1      -0.760  10.255  22.985  0.00  0.00    +0.000 A 
ATOM     11  N   UNL     1      -0.108   9.209  22.539  0.00  0.00    +0.000 NA
ATOM     12  C   UNL     1       0.658   9.675  21.494  0.00  0.00    +0.000 A 
ATOM     13  H   UNL     1      -0.819  12.299  22.446  0.00  0.00    +0.000 HD
ENDBRANCH   1  12
BRANCH   4  14
ATOM     14  C   UNL     1       2.628   5.424  18.375  0.00  0.00    +0.000 A 
ATOM     15  N   UNL     1       1.495   4.701  18.167  0.00  0.00    +0.000 NA
ATOM     16  C   UNL     1       1.569   3.565  17.476  0.00  0.00    +0.000 A 
ATOM     17  N   UNL     1       2.675   3.062  16.943  0.00  0.00    +0.000 NA
ATOM     18  C   UNL     1       3.788   3.790  17.164  0.00  0.00    +0.000 A 
ATOM     19  C   UNL     1       3.865   4.989  17.876  0.00  0.00    +0.000 A 
BRANCH  19  20
ATOM     20  C   UNL     1       5.193   5.627  18.080  0.00  0.00    +0.000 A 
ATOM     21  C   UNL     1       6.050   5.231  19.128  0.00  0.00    +0.000 A 
ATOM     22  C   UNL     1       7.331   5.779  19.275  0.00  0.00    +0.000 A 
ATOM     23  C   UNL     1       7.804   6.703  18.351  0.00  0.00    +0.000 A 
ATOM     24  C   UNL     1       6.965   7.147  17.337  0.00  0.00    +0.000 A 
ATOM     25  C   UNL     1       5.655   6.663  17.253  0.00  0.00    +0.000 A 
ENDBRANCH  19  20
ENDBRANCH   4  14
TORSDOF 3
ENDMDL
MODEL 6
REMARK VINA RESULT:      -7.8      0.897      1.559
REMARK  Name = 
REMARK  4 active torsions:
REMARK  status: ('A' for Active; 'I' for Inactive)
REMARK    1  A    between atoms: C_1  and  C_2
REMARK    2  A    between atoms: C_6  and  C_7
REMARK    3  A    between atoms: N_10  and  C_11
REMARK    4  A    between atoms: C_16  and  C_17
REMARK                            x       y       z     vdW  Elec       q    Type
REMARK                         _______ _______ _______ _____ _____    ______ ____
ROOT
ATOM      1  C   UNL     1       1.644   8.960  19.832  0.00  0.00    +0.000 C 
ATOM      2  C   UNL     1       1.305   7.590  20.415  0.00  0.00    +0.000 C 
ATOM      3  C   UNL     1       2.478   6.673  20.115  0.00  0.00    +0.000 C 
ATOM      4  N   UNL     1       2.683   6.604  18.664  0.00  0.00    +0.000 N 
ATOM      5  C   UNL     1       2.767   7.856  17.906  0.00  0.00    +0.000 C 
ATOM      6  C   UNL     1       1.661   8.836  18.306  0.00  0.00    +0.000 C 
ENDROOT
BRANCH   1  12
ATOM      7  C   UNL     1       0.387   9.461  22.873  0.00  0.00    +0.000 C 
ATOM      8  C   UNL     1       0.265  10.241  21.628  0.00  0.00    +0.000 A 
ATOM      9  N   UNL     1      -0.414  11.433  21.537  0.00  0.00    +0.000 N 
ATOM     10  C   UNL     1      -0.298  11.887  20.259  0.00  0.00    +0.000 A 
ATOM     11  N   UNL     1       0.405  11.064  19.519  0.00  0.00    +0.000 NA
ATOM     12  C   UNL     1       0.771  10.038  20.361  0.00  0.00    +0.000 A 
ATOM     13  H   UNL     1      -0.907  11.898  22.284  0.00  0.00    +0.000 HD
ENDBRANCH   1  12
BRANCH   4  14
ATOM     14  C   UNL     1       2.962   5.342  18.165  0.00  0.00    +0.000 A 
ATOM     15  N   UNL     1       1.850   4.571  18.030  0.00  0.00    +0.000 NA
ATOM     16  C   UNL     1       1.974   3.334  17.552  0.00  0.00    +0.000 A 
ATOM     17  N   UNL     1       3.112   2.769  17.170  0.00  0.00    +0.000 NA
ATOM     18  C   UNL     1       4.203   3.547  17.316  0.00  0.00    +0.000 A 
ATOM     19  C   UNL     1       4.228   4.853  17.811  0.00  0.00    +0.000 A 
BRANCH  19  20
ATOM     20  C   UNL     1       5.537   5.544  17.966  0.00  0.00    +0.000 A 
ATOM     21  C   UNL     1       5.936   6.575  17.090  0.00  0.00    +0.000 A 
ATOM     22  C   UNL     1       7.134   7.276  17.280  0.00  0.00    +0.000 A 
ATOM     23  C   UNL     1       7.940   6.994  18.377  0.00  0.00    +0.000 A 
ATOM     24  C   UNL     1       7.596   5.953  19.228  0.00  0.00    +0.000 A 
ATOM     25  C   UNL     1       6.445   5.197  18.977  0.00  0.00    +0.000 A 
ENDBRANCH  19  20
ENDBRANCH   4  14
TORSDOF 3
ENDMDL
MODEL 7
REMARK VINA RESULT:      -7.7      1.885      3.695
REMARK  Name = 
REMARK  4 active torsions:
REMARK  status: ('A' for Active; 'I' for Inactive)
REMARK    1  A    between atoms: C_1  and  C_2
REMARK    2  A    between atoms: C_6  and  C_7
REMARK    3  A    between atoms: N_10  and  C_11
REMARK    4  A    between atoms: C_16  and  C_17
REMARK                            x       y       z     vdW  Elec       q    Type
REMARK                         _______ _______ _______ _____ _____    ______ ____
ROOT
ATOM      1  C   UNL     1       0.889   9.381  19.960  0.00  0.00    +0.000 C 
ATOM      2  C   UNL     1       1.668   9.680  18.682  0.00  0.00    +0.000 C 
ATOM      3  C   UNL     1       1.750   8.385  17.894  0.00  0.00    +0.000 C 
ATOM      4  N   UNL     1       2.422   7.363  18.705  0.00  0.00    +0.000 N 
ATOM      5  C   UNL     1       1.953   7.135  20.076  0.00  0.00    +0.000 C 
ATOM      6  C   UNL     1       1.741   8.451  20.828  0.00  0.00    +0.000 C 
ENDROOT
BRANCH   1  12
ATOM      7  C   UNL     1      -0.602   9.814  22.904  0.00  0.00    +0.000 C 
ATOM      8  C   UNL     1      -0.192  10.780  21.869  0.00  0.00    +0.000 A 
ATOM      9  N   UNL     1      -0.335  12.141  21.995  0.00  0.00    +0.000 N 
ATOM     10  C   UNL     1       0.173  12.723  20.874  0.00  0.00    +0.000 A 
ATOM     11  N   UNL     1       0.627  11.828  20.031  0.00  0.00    +0.000 NA
ATOM     12  C   UNL     1       0.416  10.612  20.642  0.00  0.00    +0.000 A 
ATOM     13  H   UNL     1      -0.738  12.629  22.780  0.00  0.00    +0.000 HD
ENDBRANCH   1  12
BRANCH   4  14
ATOM     14  C   UNL     1       3.334   6.573  18.026  0.00  0.00    +0.000 A 
ATOM     15  N   UNL     1       4.081   7.278  17.134  0.00  0.00    +0.000 NA
ATOM     16  C   UNL     1       5.006   6.642  16.417  0.00  0.00    +0.000 A 
ATOM     17  N   UNL     1       5.286   5.348  16.502  0.00  0.00    +0.000 NA
ATOM     18  C   UNL     1       4.532   4.665  17.386  0.00  0.00    +0.000 A 
ATOM     19  C   UNL     1       3.523   5.193  18.195  0.00  0.00    +0.000 A 
BRANCH  19  20
ATOM     20  C   UNL     1       2.743   4.278  19.070  0.00  0.00    +0.000 A 
ATOM     21  C   UNL     1       3.245   3.836  20.312  0.00  0.00    +0.000 A 
ATOM     22  C   UNL     1       2.481   3.035  21.170  0.00  0.00    +0.000 A 
ATOM     23  C   UNL     1       1.178   2.693  20.827  0.00  0.00    +0.000 A 
ATOM     24  C   UNL     1       0.674   3.074  19.591  0.00  0.00    +0.000 A 
ATOM     25  C   UNL     1       1.478   3.795  18.701  0.00  0.00    +0.000 A 
ENDBRANCH  19  20
ENDBRANCH   4  14
TORSDOF 3
ENDMDL
MODEL 8
REMARK VINA RESULT:      -7.7      1.825      1.988
REMARK  Name = 
REMARK  4 active torsions:
REMARK  status: ('A' for Active; 'I' for Inactive)
REMARK    1  A    between atoms: C_1  and  C_2
REMARK    2  A    between atoms: C_6  and  C_7
REMARK    3  A    between atoms: N_10  and  C_11
REMARK    4  A    between atoms: C_16  and  C_17
REMARK                            x       y       z     vdW  Elec       q    Type
REMARK                         _______ _______ _______ _____ _____    ______ ____
ROOT
ATOM      1  C   UNL     1       1.687   9.328  19.003  0.00  0.00    +0.000 C 
ATOM      2  C   UNL     1       1.034   8.563  20.151  0.00  0.00    +0.000 C 
ATOM      3  C   UNL     1       2.018   7.495  20.595  0.00  0.00    +0.000 C 
ATOM      4  N   UNL     1       2.320   6.610  19.464  0.00  0.00    +0.000 N 
ATOM      5  C   UNL     1       2.714   7.214  18.187  0.00  0.00    +0.000 C 
ATOM      6  C   UNL     1       1.800   8.380  17.806  0.00  0.00    +0.000 C 
ENDROOT
BRANCH   1  12
ATOM      7  C   UNL     1      -1.399   9.990  17.945  0.00  0.00    +0.000 C 
ATOM      8  C   UNL     1      -0.274  10.880  18.289  0.00  0.00    +0.000 A 
ATOM      9  N   UNL     1      -0.353  12.252  18.266  0.00  0.00    +0.000 N 
ATOM     10  C   UNL     1       0.850  12.749  18.666  0.00  0.00    +0.000 A 
ATOM     11  N   UNL     1       1.700  11.788  18.938  0.00  0.00    +0.000 NA
ATOM     12  C   UNL     1       1.010  10.618  18.717  0.00  0.00    +0.000 A 
ATOM     13  H   UNL     1      -1.159  12.800  18.007  0.00  0.00    +0.000 HD
ENDBRANCH   1  12
BRANCH   4  14
ATOM     14  C   UNL     1       2.378   5.260  19.767  0.00  0.00    +0.000 A 
ATOM     15  N   UNL     1       1.322   4.842  20.515  0.00  0.00    +0.000 NA
ATOM     16  C   UNL     1       1.247   3.560  20.871  0.00  0.00    +0.000 A 
ATOM     17  N   UNL     1       2.126   2.621  20.545  0.00  0.00    +0.000 NA
ATOM     18  C   UNL     1       3.169   3.056  19.810  0.00  0.00    +0.000 A 
ATOM     19  C   UNL     1       3.385   4.366  19.374  0.00  0.00    +0.000 A 
BRANCH  19  20
ATOM     20  C   UNL     1       4.629   4.683  18.623  0.00  0.00    +0.000 A 
ATOM     21  C   UNL     1       5.723   5.322  19.243  0.00  0.00    +0.000 A 
ATOM     22  C   UNL     1       6.923   5.554  18.556  0.00  0.00    +0.000 A 
ATOM     23  C   UNL     1       7.073   5.111  17.247  0.00  0.00    +0.000 A 
ATOM     24  C   UNL     1       5.997   4.522  16.597  0.00  0.00    +0.000 A 
ATOM     25  C   UNL     1       4.773   4.379  17.261  0.00  0.00    +0.000 A 
ENDBRANCH  19  20
ENDBRANCH   4  14
TORSDOF 3
ENDMDL
MODEL 9
REMARK VINA RESULT:      -7.7      1.769      3.686
REMARK  Name = 
REMARK  4 active torsions:
REMARK  status: ('A' for Active; 'I' for Inactive)
REMARK    1  A    between atoms: C_1  and  C_2
REMARK    2  A    between atoms: C_6  and  C_7
REMARK    3  A    between atoms: N_10  and  C_11
REMARK    4  A    between atoms: C_16  and  C_17
REMARK                            x       y       z     vdW  Elec       q    Type
REMARK                         _______ _______ _______ _____ _____    ______ ____
ROOT
ATOM      1  C   UNL     1       0.673   9.669  19.703  0.00  0.00    +0.000 C 
ATOM      2  C   UNL     1       1.521   9.856  18.447  0.00  0.00    +0.000 C 
ATOM      3  C   UNL     1       1.672   8.490  17.801  0.00  0.00    +0.000 C 
ATOM      4  N   UNL     1       2.311   7.571  18.749  0.00  0.00    +0.000 N 
ATOM      5  C   UNL     1       1.766   7.471  20.107  0.00  0.00    +0.000 C 
ATOM      6  C   UNL     1       1.487   8.851  20.708  0.00  0.00    +0.000 C 
ENDROOT
BRANCH   1  12
ATOM      7  C   UNL     1      -1.991  11.456  18.815  0.00  0.00    +0.000 C 
ATOM      8  C   UNL     1      -0.973  11.678  19.858  0.00  0.00    +0.000 A 
ATOM      9  N   UNL     1      -0.998  12.734  20.738  0.00  0.00    +0.000 N 
ATOM     10  C   UNL     1       0.068  12.610  21.576  0.00  0.00    +0.000 A 
ATOM     11  N   UNL     1       0.782  11.548  21.290  0.00  0.00    +0.000 NA
ATOM     12  C   UNL     1       0.139  10.952  20.228  0.00  0.00    +0.000 A 
ATOM     13  H   UNL     1      -1.687  13.470  20.768  0.00  0.00    +0.000 HD
ENDBRANCH   1  12
BRANCH   4  14
ATOM     14  C   UNL     1       3.276   6.737  18.207  0.00  0.00    +0.000 A 
ATOM     15  N   UNL     1       4.089   7.376  17.323  0.00  0.00    +0.000 NA
ATOM     16  C   UNL     1       5.068   6.693  16.733  0.00  0.00    +0.000 A 
ATOM     17  N   UNL     1       5.343   5.412  16.941  0.00  0.00    +0.000 NA
ATOM     18  C   UNL     1       4.524   4.795  17.815  0.00  0.00    +0.000 A 
ATOM     19  C   UNL     1       3.454   5.377  18.499  0.00  0.00    +0.000 A 
BRANCH  19  20
ATOM     20  C   UNL     1       2.609   4.527  19.381  0.00  0.00    +0.000 A 
ATOM     21  C   UNL     1       1.484   3.836  18.885  0.00  0.00    +0.000 A 
ATOM     22  C   UNL     1       0.733   2.977  19.698  0.00  0.00    +0.000 A 
ATOM     23  C   UNL     1       1.116   2.752  21.015  0.00  0.00    +0.000 A 
ATOM     24  C   UNL     1       2.191   3.454  21.543  0.00  0.00    +0.000 A 
ATOM     25  C   UNL     1       2.878   4.380  20.750  0.00  0.00    +0.000 A 
ENDBRANCH  19  20
ENDBRANCH   4  14
TORSDOF 3
ENDMDL
