MODEL 1
REMARK VINA RESULT:      -7.3      0.000      0.000
REMARK  Name = 
REMARK  8 active torsions:
REMARK  status: ('A' for Active; 'I' for Inactive)
REMARK    1  A    between atoms: C_1  and  O_2
REMARK    2  A    between atoms: O_2  and  C_3
REMARK    3  A    between atoms: C_7  and  C_8
REMARK    4  A    between atoms: N_9  and  N_10
REMARK    5  A    between atoms: N_10  and  C_11
REMARK    6  A    between atoms: C_14  and  S_15
REMARK    7  A    between atoms: S_15  and  O_18
REMARK    8  A    between atoms: C_21  and  O_22
REMARK                            x       y       z     vdW  Elec       q    Type
REMARK                         _______ _______ _______ _____ _____    ______ ____
ROOT
ATOM      1  N   UNL     1       2.552   6.220  20.208  0.00  0.00    +0.000 N 
ATOM      2  H   UNL     1       2.051   5.419  20.589  0.00  0.00    +0.000 HD
ENDROOT
BRANCH   1   3
ATOM      3  C   UNL     1       3.567   5.904  19.276  0.00  0.00    +0.000 A 
ATOM      4  C   UNL     1       4.476   4.852  19.495  0.00  0.00    +0.000 A 
ATOM      5  C   UNL     1       5.430   4.495  18.545  0.00  0.00    +0.000 A 
ATOM      6  C   UNL     1       5.472   5.180  17.337  0.00  0.00    +0.000 A 
ATOM      7  C   UNL     1       4.557   6.201  17.065  0.00  0.00    +0.000 A 
ATOM      8  C   UNL     1       3.608   6.555  18.034  0.00  0.00    +0.000 A 
BRANCH   6   9
ATOM      9  S   UNL     1       6.658   4.683  16.122  0.00  0.00    +0.000 S 
ATOM     10  O   UNL     1       6.512   5.559  14.979  0.00  0.00    +0.000 OA
ATOM     11  O   UNL     1       7.922   4.492  16.798  0.00  0.00    +0.000 OA
BRANCH   9  12
ATOM     12  O   UNL     1       6.131   3.247  15.615  0.00  0.00    +0.000 OA
ATOM     13  H   UNL     1       6.294   3.191  14.649  0.00  0.00    +0.000 HD
ENDBRANCH   9  12
ENDBRANCH   6   9
ENDBRANCH   1   3
BRANCH   1  15
ATOM     14  C   UNL     1       1.373   7.940  21.107  0.00  0.00    +0.000 C 
ATOM     15  N   UNL     1       1.936   7.412  20.065  0.00  0.00    +0.000 NA
BRANCH  14  20
ATOM     16  C   UNL     1      -0.219  11.294  21.962  0.00  0.00    +0.000 A 
ATOM     17  C   UNL     1      -0.510  11.745  20.668  0.00  0.00    +0.000 A 
ATOM     18  C   UNL     1      -0.203  10.974  19.544  0.00  0.00    +0.000 A 
ATOM     19  C   UNL     1       0.408   9.730  19.694  0.00  0.00    +0.000 A 
ATOM     20  C   UNL     1       0.714   9.266  20.976  0.00  0.00    +0.000 A 
ATOM     21  C   UNL     1       0.396  10.047  22.111  0.00  0.00    +0.000 A 
BRANCH  16  23
ATOM     22  C   UNL     1      -0.741  13.548  22.588  0.00  0.00    +0.000 C 
ATOM     23  O   UNL     1      -0.593  12.178  22.940  0.00  0.00    +0.000 OA
ENDBRANCH  16  23
BRANCH  21  24
ATOM     24  O   UNL     1       0.692   9.588  23.368  0.00  0.00    +0.000 OA
ATOM     25  H   UNL     1       1.627   9.290  23.352  0.00  0.00    +0.000 HD
ENDBRANCH  21  24
ENDBRANCH  14  20
ENDBRANCH   1  15
TORSDOF 7
ENDMDL
MODEL 2
REMARK VINA RESULT:      -7.2      0.895      1.717
REMARK  Name = 
REMARK  8 active torsions:
REMARK  status: ('A' for Active; 'I' for Inactive)
REMARK    1  A    between atoms: C_1  and  O_2
REMARK    2  A    between atoms: O_2  and  C_3
REMARK    3  A    between atoms: C_7  and  C_8
REMARK    4  A    between atoms: N_9  and  N_10
REMARK    5  A    between atoms: N_10  and  C_11
REMARK    6  A    between atoms: C_14  and  S_15
REMARK    7  A    between atoms: S_15  and  O_18
REMARK    8  A    between atoms: C_21  and  O_22
REMARK                            x       y       z     vdW  Elec       q    Type
REMARK                         _______ _______ _______ _____ _____    ______ ____
ROOT
ATOM      1  N   UNL     1       2.326   6.373  20.151  0.00  0.00    +0.000 N 
ATOM      2  H   UNL     1       1.794   5.549  20.429  0.00  0.00    +0.000 HD
ENDROOT
BRANCH   1   3
ATOM      3  C   UNL     1       3.356   6.132  19.214  0.00  0.00    +0.000 A 
ATOM      4  C   UNL     1       3.488   6.898  18.041  0.00  0.00    +0.000 A 
ATOM      5  C   UNL     1       4.545   6.708  17.153  0.00  0.00    +0.000 A 
ATOM      6  C   UNL     1       5.510   5.751  17.444  0.00  0.00    +0.000 A 
ATOM      7  C   UNL     1       5.436   5.002  18.622  0.00  0.00    +0.000 A 
ATOM      8  C   UNL     1       4.363   5.198  19.501  0.00  0.00    +0.000 A 
BRANCH   6   9
ATOM      9  S   UNL     1       6.870   5.554  16.331  0.00  0.00    +0.000 S 
ATOM     10  O   UNL     1       7.712   4.495  16.846  0.00  0.00    +0.000 OA
ATOM     11  O   UNL     1       6.337   5.539  14.987  0.00  0.00    +0.000 OA
BRANCH   9  12
ATOM     12  O   UNL     1       7.736   6.900  16.519  0.00  0.00    +0.000 OA
ATOM     13  H   UNL     1       8.514   6.682  17.076  0.00  0.00    +0.000 HD
ENDBRANCH   9  12
ENDBRANCH   6   9
ENDBRANCH   1   3
BRANCH   1  15
ATOM     14  C   UNL     1       1.218   8.039  21.225  0.00  0.00    +0.000 C 
ATOM     15  N   UNL     1       1.746   7.591  20.129  0.00  0.00    +0.000 NA
BRANCH  14  20
ATOM     16  C   UNL     1      -0.596  11.191  22.361  0.00  0.00    +0.000 A 
ATOM     17  C   UNL     1      -0.532  11.931  21.175  0.00  0.00    +0.000 A 
ATOM     18  C   UNL     1       0.081  11.416  20.029  0.00  0.00    +0.000 A 
ATOM     19  C   UNL     1       0.647  10.142  20.051  0.00  0.00    +0.000 A 
ATOM     20  C   UNL     1       0.600   9.391  21.227  0.00  0.00    +0.000 A 
ATOM     21  C   UNL     1      -0.026   9.913  22.382  0.00  0.00    +0.000 A 
BRANCH  16  23
ATOM     22  C   UNL     1      -2.638  12.058  23.272  0.00  0.00    +0.000 C 
ATOM     23  O   UNL     1      -1.234  11.851  23.378  0.00  0.00    +0.000 OA
ENDBRANCH  16  23
BRANCH  21  24
ATOM     24  O   UNL     1      -0.076   9.173  23.535  0.00  0.00    +0.000 OA
ATOM     25  H   UNL     1      -0.837   9.505  24.056  0.00  0.00    +0.000 HD
ENDBRANCH  21  24
ENDBRANCH  14  20
ENDBRANCH   1  15
TORSDOF 7
ENDMDL
MODEL 3
REMARK VINA RESULT:      -7.1      6.458      7.582
REMARK  Name = 
REMARK  8 active torsions:
REMARK  status: ('A' for Active; 'I' for Inactive)
REMARK    1  A    between atoms: C_1  and  O_2
REMARK    2  A    between atoms: O_2  and  C_3
REMARK    3  A    between atoms: C_7  and  C_8
REMARK    4  A    between atoms: N_9  and  N_10
REMARK    5  A    between atoms: N_10  and  C_11
REMARK    6  A    between atoms: C_14  and  S_15
REMARK    7  A    between atoms: S_15  and  O_18
REMARK    8  A    between atoms: C_21  and  O_22
REMARK                            x       y       z     vdW  Elec       q    Type
REMARK                         _______ _______ _______ _____ _____    ______ ____
ROOT
ATOM      1  N   UNL     1       7.888   8.086  17.224  0.00  0.00    +0.000 N 
ATOM      2  H   UNL     1       8.501   7.821  16.454  0.00  0.00    +0.000 HD
ENDROOT
BRANCH   1   3
ATOM      3  C   UNL     1       7.009   7.070  17.666  0.00  0.00    +0.000 A 
ATOM      4  C   UNL     1       5.733   6.893  17.100  0.00  0.00    +0.000 A 
ATOM      5  C   UNL     1       4.897   5.848  17.486  0.00  0.00    +0.000 A 
ATOM      6  C   UNL     1       5.342   4.941  18.440  0.00  0.00    +0.000 A 
ATOM      7  C   UNL     1       6.621   5.058  18.991  0.00  0.00    +0.000 A 
ATOM      8  C   UNL     1       7.448   6.120  18.600  0.00  0.00    +0.000 A 
BRANCH   6   9
ATOM      9  S   UNL     1       4.286   3.593  18.884  0.00  0.00    +0.000 S 
ATOM     10  O   UNL     1       3.314   4.089  19.834  0.00  0.00    +0.000 OA
ATOM     11  O   UNL     1       3.906   2.914  17.666  0.00  0.00    +0.000 OA
BRANCH   9  12
ATOM     12  O   UNL     1       5.236   2.609  19.738  0.00  0.00    +0.000 OA
ATOM     13  H   UNL     1       5.112   1.698  19.394  0.00  0.00    +0.000 HD
ENDBRANCH   9  12
ENDBRANCH   6   9
ENDBRANCH   1   3
BRANCH   1  15
ATOM     14  C   UNL     1       8.726  10.139  17.712  0.00  0.00    +0.000 C 
ATOM     15  N   UNL     1       8.284   8.996  18.137  0.00  0.00    +0.000 NA
BRANCH  14  20
ATOM     16  C   UNL     1       9.447  13.494  19.367  0.00  0.00    +0.000 A 
ATOM     17  C   UNL     1       9.923  13.041  20.603  0.00  0.00    +0.000 A 
ATOM     18  C   UNL     1      10.015  11.676  20.891  0.00  0.00    +0.000 A 
ATOM     19  C   UNL     1       9.626  10.733  19.940  0.00  0.00    +0.000 A 
ATOM     20  C   UNL     1       9.141  11.165  18.704  0.00  0.00    +0.000 A 
ATOM     21  C   UNL     1       9.055  12.546  18.415  0.00  0.00    +0.000 A 
BRANCH  16  23
ATOM     22  C   UNL     1      10.574  15.509  18.721  0.00  0.00    +0.000 C 
ATOM     23  O   UNL     1       9.429  14.860  19.261  0.00  0.00    +0.000 OA
ENDBRANCH  16  23
BRANCH  21  24
ATOM     24  O   UNL     1       8.583  12.969  17.199  0.00  0.00    +0.000 OA
ATOM     25  H   UNL     1       7.930  13.678  17.376  0.00  0.00    +0.000 HD
ENDBRANCH  21  24
ENDBRANCH  14  20
ENDBRANCH   1  15
TORSDOF 7
ENDMDL
MODEL 4
REMARK VINA RESULT:      -7.1      6.392      7.500
REMARK  Name = 
REMARK  8 active torsions:
REMARK  status: ('A' for Active; 'I' for Inactive)
REMARK    1  A    between atoms: C_1  and  O_2
REMARK    2  A    between atoms: O_2  and  C_3
REMARK    3  A    between atoms: C_7  and  C_8
REMARK    4  A    between atoms: N_9  and  N_10
REMARK    5  A    between atoms: N_10  and  C_11
REMARK    6  A    between atoms: C_14  and  S_15
REMARK    7  A    between atoms: S_15  and  O_18
REMARK    8  A    between atoms: C_21  and  O_22
REMARK                            x       y       z     vdW  Elec       q    Type
REMARK                         _______ _______ _______ _____ _____    ______ ____
ROOT
ATOM      1  N   UNL     1       7.823   8.037  17.062  0.00  0.00    +0.000 N 
ATOM      2  H   UNL     1       8.417   7.855  16.254  0.00  0.00    +0.000 HD
ENDROOT
BRANCH   1   3
ATOM      3  C   UNL     1       7.019   6.949  17.471  0.00  0.00    +0.000 A 
ATOM      4  C   UNL     1       7.343   6.165  18.594  0.00  0.00    +0.000 A 
ATOM      5  C   UNL     1       6.513   5.139  19.039  0.00  0.00    +0.000 A 
ATOM      6  C   UNL     1       5.319   4.895  18.371  0.00  0.00    +0.000 A 
ATOM      7  C   UNL     1       4.942   5.682  17.278  0.00  0.00    +0.000 A 
ATOM      8  C   UNL     1       5.791   6.705  16.837  0.00  0.00    +0.000 A 
BRANCH   6   9
ATOM      9  S   UNL     1       4.254   3.619  18.977  0.00  0.00    +0.000 S 
ATOM     10  O   UNL     1       3.436   4.189  20.025  0.00  0.00    +0.000 OA
ATOM     11  O   UNL     1       3.689   2.941  17.832  0.00  0.00    +0.000 OA
BRANCH   9  12
ATOM     12  O   UNL     1       5.247   2.599  19.733  0.00  0.00    +0.000 OA
ATOM     13  H   UNL     1       5.996   3.120  20.095  0.00  0.00    +0.000 HD
ENDBRANCH   9  12
ENDBRANCH   6   9
ENDBRANCH   1   3
BRANCH   1  15
ATOM     14  C   UNL     1       8.680  10.058  17.641  0.00  0.00    +0.000 C 
ATOM     15  N   UNL     1       8.207   8.911  18.015  0.00  0.00    +0.000 NA
BRANCH  14  20
ATOM     16  C   UNL     1       9.441  13.345  19.411  0.00  0.00    +0.000 A 
ATOM     17  C   UNL     1       9.837  12.846  20.658  0.00  0.00    +0.000 A 
ATOM     18  C   UNL     1       9.862  11.472  20.917  0.00  0.00    +0.000 A 
ATOM     19  C   UNL     1       9.488  10.567  19.925  0.00  0.00    +0.000 A 
ATOM     20  C   UNL     1       9.082  11.046  18.677  0.00  0.00    +0.000 A 
ATOM     21  C   UNL     1       9.063  12.435  18.418  0.00  0.00    +0.000 A 
BRANCH  16  23
ATOM     22  C   UNL     1      10.657  15.327  18.827  0.00  0.00    +0.000 C 
ATOM     23  O   UNL     1       9.480  14.712  19.339  0.00  0.00    +0.000 OA
ENDBRANCH  16  23
BRANCH  21  24
ATOM     24  O   UNL     1       8.670  12.903  17.191  0.00  0.00    +0.000 OA
ATOM     25  H   UNL     1       9.244  12.472  16.523  0.00  0.00    +0.000 HD
ENDBRANCH  21  24
ENDBRANCH  14  20
ENDBRANCH   1  15
TORSDOF 7
ENDMDL
MODEL 5
REMARK VINA RESULT:      -7.1      1.450      2.413
REMARK  Name = 
REMARK  8 active torsions:
REMARK  status: ('A' for Active; 'I' for Inactive)
REMARK    1  A    between atoms: C_1  and  O_2
REMARK    2  A    between atoms: O_2  and  C_3
REMARK    3  A    between atoms: C_7  and  C_8
REMARK    4  A    between atoms: N_9  and  N_10
REMARK    5  A    between atoms: N_10  and  C_11
REMARK    6  A    between atoms: C_14  and  S_15
REMARK    7  A    between atoms: S_15  and  O_18
REMARK    8  A    between atoms: C_21  and  O_22
REMARK                            x       y       z     vdW  Elec       q    Type
REMARK                         _______ _______ _______ _____ _____    ______ ____
ROOT
ATOM      1  N   UNL     1       2.440   6.119  20.307  0.00  0.00    +0.000 N 
ATOM      2  H   UNL     1       1.883   5.286  20.493  0.00  0.00    +0.000 HD
ENDROOT
BRANCH   1   3
ATOM      3  C   UNL     1       3.440   5.962  19.319  0.00  0.00    +0.000 A 
ATOM      4  C   UNL     1       3.486   6.774  18.172  0.00  0.00    +0.000 A 
ATOM      5  C   UNL     1       4.512   6.667  17.236  0.00  0.00    +0.000 A 
ATOM      6  C   UNL     1       5.532   5.748  17.451  0.00  0.00    +0.000 A 
ATOM      7  C   UNL     1       5.544   4.955  18.602  0.00  0.00    +0.000 A 
ATOM      8  C   UNL     1       4.500   5.068  19.531  0.00  0.00    +0.000 A 
BRANCH   6   9
ATOM      9  S   UNL     1       6.852   5.657  16.277  0.00  0.00    +0.000 S 
ATOM     10  O   UNL     1       7.718   4.566  16.671  0.00  0.00    +0.000 OA
ATOM     11  O   UNL     1       6.271   5.750  14.957  0.00  0.00    +0.000 OA
BRANCH   9  12
ATOM     12  O   UNL     1       7.717   6.990  16.546  0.00  0.00    +0.000 OA
ATOM     13  H   UNL     1       8.475   6.746  17.120  0.00  0.00    +0.000 HD
ENDBRANCH   9  12
ENDBRANCH   6   9
ENDBRANCH   1   3
BRANCH   1  15
ATOM     14  C   UNL     1       0.941   7.503  21.302  0.00  0.00    +0.000 C 
ATOM     15  N   UNL     1       1.907   7.350  20.451  0.00  0.00    +0.000 NA
BRANCH  14  20
ATOM     16  C   UNL     1      -0.346  11.025  20.623  0.00  0.00    +0.000 A 
ATOM     17  C   UNL     1      -0.746  11.375  21.919  0.00  0.00    +0.000 A 
ATOM     18  C   UNL     1      -0.594  10.490  22.990  0.00  0.00    +0.000 A 
ATOM     19  C   UNL     1      -0.038   9.228  22.782  0.00  0.00    +0.000 A 
ATOM     20  C   UNL     1       0.359   8.857  21.496  0.00  0.00    +0.000 A 
ATOM     21  C   UNL     1       0.209   9.757  20.416  0.00  0.00    +0.000 A 
BRANCH  16  23
ATOM     22  C   UNL     1      -1.900  12.232  19.253  0.00  0.00    +0.000 C 
ATOM     23  O   UNL     1      -0.567  12.014  19.702  0.00  0.00    +0.000 OA
ENDBRANCH  16  23
BRANCH  21  24
ATOM     24  O   UNL     1       0.604   9.393  19.155  0.00  0.00    +0.000 OA
ATOM     25  H   UNL     1       1.466   9.830  18.988  0.00  0.00    +0.000 HD
ENDBRANCH  21  24
ENDBRANCH  14  20
ENDBRANCH   1  15
TORSDOF 7
ENDMDL
MODEL 6
REMARK VINA RESULT:      -7.1      1.421      2.103
REMARK  Name = 
REMARK  8 active torsions:
REMARK  status: ('A' for Active; 'I' for Inactive)
REMARK    1  A    between atoms: C_1  and  O_2
REMARK    2  A    between atoms: O_2  and  C_3
REMARK    3  A    between atoms: C_7  and  C_8
REMARK    4  A    between atoms: N_9  and  N_10
REMARK    5  A    between atoms: N_10  and  C_11
REMARK    6  A    between atoms: C_14  and  S_15
REMARK    7  A    between atoms: S_15  and  O_18
REMARK    8  A    between atoms: C_21  and  O_22
REMARK                            x       y       z     vdW  Elec       q    Type
REMARK                         _______ _______ _______ _____ _____    ______ ____
ROOT
ATOM      1  N   UNL     1       2.305   6.272  20.202  0.00  0.00    +0.000 N 
ATOM      2  H   UNL     1       1.686   5.462  20.218  0.00  0.00    +0.000 HD
ENDROOT
BRANCH   1   3
ATOM      3  C   UNL     1       3.406   6.167  19.321  0.00  0.00    +0.000 A 
ATOM      4  C   UNL     1       4.468   5.276  19.560  0.00  0.00    +0.000 A 
ATOM      5  C   UNL     1       5.516   5.121  18.656  0.00  0.00    +0.000 A 
ATOM      6  C   UNL     1       5.502   5.849  17.472  0.00  0.00    +0.000 A 
ATOM      7  C   UNL     1       4.441   6.710  17.178  0.00  0.00    +0.000 A 
ATOM      8  C   UNL     1       3.398   6.862  18.102  0.00  0.00    +0.000 A 
BRANCH   6   9
ATOM      9  S   UNL     1       6.816   5.606  16.312  0.00  0.00    +0.000 S 
ATOM     10  O   UNL     1       7.639   4.520  16.800  0.00  0.00    +0.000 OA
ATOM     11  O   UNL     1       6.237   5.608  14.988  0.00  0.00    +0.000 OA
BRANCH   9  12
ATOM     12  O   UNL     1       7.732   6.923  16.468  0.00  0.00    +0.000 OA
ATOM     13  H   UNL     1       8.358   6.767  17.208  0.00  0.00    +0.000 HD
ENDBRANCH   9  12
ENDBRANCH   6   9
ENDBRANCH   1   3
BRANCH   1  15
ATOM     14  C   UNL     1       0.760   7.623  21.172  0.00  0.00    +0.000 C 
ATOM     15  N   UNL     1       1.825   7.509  20.442  0.00  0.00    +0.000 NA
BRANCH  14  20
ATOM     16  C   UNL     1      -0.331  11.253  20.781  0.00  0.00    +0.000 A 
ATOM     17  C   UNL     1      -0.776  11.499  22.086  0.00  0.00    +0.000 A 
ATOM     18  C   UNL     1      -0.716  10.510  23.073  0.00  0.00    +0.000 A 
ATOM     19  C   UNL     1      -0.209   9.248  22.768  0.00  0.00    +0.000 A 
ATOM     20  C   UNL     1       0.232   8.980  21.471  0.00  0.00    +0.000 A 
ATOM     21  C   UNL     1       0.175   9.984  20.477  0.00  0.00    +0.000 A 
BRANCH  16  23
ATOM     22  C   UNL     1      -1.697  13.042  19.957  0.00  0.00    +0.000 C 
ATOM     23  O   UNL     1      -0.463  12.335  19.952  0.00  0.00    +0.000 OA
ENDBRANCH  16  23
BRANCH  21  24
ATOM     24  O   UNL     1       0.613   9.722  19.205  0.00  0.00    +0.000 OA
ATOM     25  H   UNL     1      -0.043  10.112  18.590  0.00  0.00    +0.000 HD
ENDBRANCH  21  24
ENDBRANCH  14  20
ENDBRANCH   1  15
TORSDOF 7
ENDMDL
MODEL 7
REMARK VINA RESULT:      -7.0      0.891      1.370
REMARK  Name = 
REMARK  8 active torsions:
REMARK  status: ('A' for Active; 'I' for Inactive)
REMARK    1  A    between atoms: C_1  and  O_2
REMARK    2  A    between atoms: O_2  and  C_3
REMARK    3  A    between atoms: C_7  and  C_8
REMARK    4  A    between atoms: N_9  and  N_10
REMARK    5  A    between atoms: N_10  and  C_11
REMARK    6  A    between atoms: C_14  and  S_15
REMARK    7  A    between atoms: S_15  and  O_18
REMARK    8  A    between atoms: C_21  and  O_22
REMARK                            x       y       z     vdW  Elec       q    Type
REMARK                         _______ _______ _______ _____ _____    ______ ____
ROOT
ATOM      1  N   UNL     1       2.247   6.241  20.540  0.00  0.00    +0.000 N 
ATOM      2  H   UNL     1       1.941   5.384  20.999  0.00  0.00    +0.000 HD
ENDROOT
BRANCH   1   3
ATOM      3  C   UNL     1       3.187   6.059  19.499  0.00  0.00    +0.000 A 
ATOM      4  C   UNL     1       3.181   6.861  18.343  0.00  0.00    +0.000 A 
ATOM      5  C   UNL     1       4.151   6.730  17.352  0.00  0.00    +0.000 A 
ATOM      6  C   UNL     1       5.167   5.796  17.519  0.00  0.00    +0.000 A 
ATOM      7  C   UNL     1       5.231   5.012  18.674  0.00  0.00    +0.000 A 
ATOM      8  C   UNL     1       4.244   5.150  19.659  0.00  0.00    +0.000 A 
BRANCH   6   9
ATOM      9  S   UNL     1       6.417   5.674  16.273  0.00  0.00    +0.000 S 
ATOM     10  O   UNL     1       5.767   5.775  14.984  0.00  0.00    +0.000 OA
ATOM     11  O   UNL     1       7.509   6.538  16.662  0.00  0.00    +0.000 OA
BRANCH   9  12
ATOM     12  O   UNL     1       6.922   4.146  16.364  0.00  0.00    +0.000 OA
ATOM     13  H   UNL     1       7.554   4.082  17.112  0.00  0.00    +0.000 HD
ENDBRANCH   9  12
ENDBRANCH   6   9
ENDBRANCH   1   3
BRANCH   1  15
ATOM     14  C   UNL     1       1.479   8.211  21.367  0.00  0.00    +0.000 C 
ATOM     15  N   UNL     1       1.421   7.303  20.444  0.00  0.00    +0.000 NA
BRANCH  14  20
ATOM     16  C   UNL     1      -0.686  11.206  22.292  0.00  0.00    +0.000 A 
ATOM     17  C   UNL     1      -1.045  11.633  21.008  0.00  0.00    +0.000 A 
ATOM     18  C   UNL     1      -0.600  10.959  19.867  0.00  0.00    +0.000 A 
ATOM     19  C   UNL     1       0.221   9.839  19.992  0.00  0.00    +0.000 A 
ATOM     20  C   UNL     1       0.597   9.402  21.264  0.00  0.00    +0.000 A 
ATOM     21  C   UNL     1       0.140  10.083  22.415  0.00  0.00    +0.000 A 
BRANCH  16  23
ATOM     22  C   UNL     1      -2.580  12.371  23.188  0.00  0.00    +0.000 C 
ATOM     23  O   UNL     1      -1.215  11.983  23.288  0.00  0.00    +0.000 OA
ENDBRANCH  16  23
BRANCH  21  24
ATOM     24  O   UNL     1       0.505   9.650  23.663  0.00  0.00    +0.000 OA
ATOM     25  H   UNL     1       1.059   8.850  23.539  0.00  0.00    +0.000 HD
ENDBRANCH  21  24
ENDBRANCH  14  20
ENDBRANCH   1  15
TORSDOF 7
ENDMDL
MODEL 8
REMARK VINA RESULT:      -7.0      0.776      1.020
REMARK  Name = 
REMARK  8 active torsions:
REMARK  status: ('A' for Active; 'I' for Inactive)
REMARK    1  A    between atoms: C_1  and  O_2
REMARK    2  A    between atoms: O_2  and  C_3
REMARK    3  A    between atoms: C_7  and  C_8
REMARK    4  A    between atoms: N_9  and  N_10
REMARK    5  A    between atoms: N_10  and  C_11
REMARK    6  A    between atoms: C_14  and  S_15
REMARK    7  A    between atoms: S_15  and  O_18
REMARK    8  A    between atoms: C_21  and  O_22
REMARK                            x       y       z     vdW  Elec       q    Type
REMARK                         _______ _______ _______ _____ _____    ______ ____
ROOT
ATOM      1  N   UNL     1       2.262   6.644  20.355  0.00  0.00    +0.000 N 
ATOM      2  H   UNL     1       1.779   5.814  20.697  0.00  0.00    +0.000 HD
ENDROOT
BRANCH   1   3
ATOM      3  C   UNL     1       3.270   6.398  19.395  0.00  0.00    +0.000 A 
ATOM      4  C   UNL     1       4.217   5.370  19.558  0.00  0.00    +0.000 A 
ATOM      5  C   UNL     1       5.164   5.082  18.578  0.00  0.00    +0.000 A 
ATOM      6  C   UNL     1       5.161   5.813  17.397  0.00  0.00    +0.000 A 
ATOM      7  C   UNL     1       4.208   6.812  17.180  0.00  0.00    +0.000 A 
ATOM      8  C   UNL     1       3.266   7.097  18.178  0.00  0.00    +0.000 A 
BRANCH   6   9
ATOM      9  S   UNL     1       6.341   5.403  16.144  0.00  0.00    +0.000 S 
ATOM     10  O   UNL     1       7.511   6.230  16.352  0.00  0.00    +0.000 OA
ATOM     11  O   UNL     1       6.413   3.961  16.065  0.00  0.00    +0.000 OA
BRANCH   9  12
ATOM     12  O   UNL     1       5.681   5.954  14.780  0.00  0.00    +0.000 OA
ATOM     13  H   UNL     1       5.428   5.179  14.234  0.00  0.00    +0.000 HD
ENDBRANCH   9  12
ENDBRANCH   6   9
ENDBRANCH   1   3
BRANCH   1  15
ATOM     14  C   UNL     1       0.860   8.174  21.276  0.00  0.00    +0.000 C 
ATOM     15  N   UNL     1       1.625   7.832  20.287  0.00  0.00    +0.000 NA
BRANCH  14  20
ATOM     16  C   UNL     1      -0.730  11.468  22.344  0.00  0.00    +0.000 A 
ATOM     17  C   UNL     1      -1.111  11.955  21.088  0.00  0.00    +0.000 A 
ATOM     18  C   UNL     1      -0.864  11.227  19.921  0.00  0.00    +0.000 A 
ATOM     19  C   UNL     1      -0.224   9.991  19.990  0.00  0.00    +0.000 A 
ATOM     20  C   UNL     1       0.172   9.491  21.233  0.00  0.00    +0.000 A 
ATOM     21  C   UNL     1      -0.085  10.228  22.411  0.00  0.00    +0.000 A 
BRANCH  16  23
ATOM     22  C   UNL     1      -1.201  13.698  23.087  0.00  0.00    +0.000 C 
ATOM     23  O   UNL     1      -1.054  12.312  23.373  0.00  0.00    +0.000 OA
ENDBRANCH  16  23
BRANCH  21  24
ATOM     24  O   UNL     1       0.299   9.734  23.631  0.00  0.00    +0.000 OA
ATOM     25  H   UNL     1      -0.329  10.090  24.295  0.00  0.00    +0.000 HD
ENDBRANCH  21  24
ENDBRANCH  14  20
ENDBRANCH   1  15
TORSDOF 7
ENDMDL
MODEL 9
REMARK VINA RESULT:      -6.8      1.374      1.789
REMARK  Name = 
REMARK  8 active torsions:
REMARK  status: ('A' for Active; 'I' for Inactive)
REMARK    1  A    between atoms: C_1  and  O_2
REMARK    2  A    between atoms: O_2  and  C_3
REMARK    3  A    between atoms: C_7  and  C_8
REMARK    4  A    between atoms: N_9  and  N_10
REMARK    5  A    between atoms: N_10  and  C_11
REMARK    6  A    between atoms: C_14  and  S_15
REMARK    7  A    between atoms: S_15  and  O_18
REMARK    8  A    between atoms: C_21  and  O_22
REMARK                            x       y       z     vdW  Elec       q    Type
REMARK                         _______ _______ _______ _____ _____    ______ ____
ROOT
ATOM      1  N   UNL     1       2.286   6.090  20.356  0.00  0.00    +0.000 N 
ATOM      2  H   UNL     1       1.599   5.341  20.444  0.00  0.00    +0.000 HD
ENDROOT
BRANCH   1   3
ATOM      3  C   UNL     1       3.336   5.834  19.445  0.00  0.00    +0.000 A 
ATOM      4  C   UNL     1       4.225   4.757  19.618  0.00  0.00    +0.000 A 
ATOM      5  C   UNL     1       5.215   4.463  18.682  0.00  0.00    +0.000 A 
ATOM      6  C   UNL     1       5.314   5.240  17.534  0.00  0.00    +0.000 A 
ATOM      7  C   UNL     1       4.420   6.291  17.307  0.00  0.00    +0.000 A 
ATOM      8  C   UNL     1       3.435   6.580  18.261  0.00  0.00    +0.000 A 
BRANCH   6   9
ATOM      9  S   UNL     1       6.546   4.825  16.335  0.00  0.00    +0.000 S 
ATOM     10  O   UNL     1       6.421   5.756  15.234  0.00  0.00    +0.000 OA
ATOM     11  O   UNL     1       7.791   4.617  17.039  0.00  0.00    +0.000 OA
BRANCH   9  12
ATOM     12  O   UNL     1       6.058   3.409  15.737  0.00  0.00    +0.000 OA
ATOM     13  H   UNL     1       6.812   2.784  15.791  0.00  0.00    +0.000 HD
ENDBRANCH   9  12
ENDBRANCH   6   9
ENDBRANCH   1   3
BRANCH   1  15
ATOM     14  C   UNL     1       0.803   7.623  21.133  0.00  0.00    +0.000 C 
ATOM     15  N   UNL     1       1.926   7.378  20.535  0.00  0.00    +0.000 NA
BRANCH  14  20
ATOM     16  C   UNL     1       0.255  11.361  20.637  0.00  0.00    +0.000 A 
ATOM     17  C   UNL     1      -0.377  11.662  21.850  0.00  0.00    +0.000 A 
ATOM     18  C   UNL     1      -0.614  10.674  22.810  0.00  0.00    +0.000 A 
ATOM     19  C   UNL     1      -0.221   9.358  22.572  0.00  0.00    +0.000 A 
ATOM     20  C   UNL     1       0.403   9.036  21.364  0.00  0.00    +0.000 A 
ATOM     21  C   UNL     1       0.645  10.039  20.398  0.00  0.00    +0.000 A 
BRANCH  16  23
ATOM     22  C   UNL     1       1.679  13.083  19.767  0.00  0.00    +0.000 C 
ATOM     23  O   UNL     1       0.405  12.451  19.821  0.00  0.00    +0.000 OA
ENDBRANCH  16  23
BRANCH  21  24
ATOM     24  O   UNL     1       1.263   9.723  19.216  0.00  0.00    +0.000 OA
ATOM     25  H   UNL     1       0.898   8.860  18.924  0.00  0.00    +0.000 HD
ENDBRANCH  21  24
ENDBRANCH  14  20
ENDBRANCH   1  15
TORSDOF 7
ENDMDL
