MODEL 1
REMARK VINA RESULT:      -8.7      0.000      0.000
REMARK  Name = 
REMARK  8 active torsions:
REMARK  status: ('A' for Active; 'I' for Inactive)
REMARK    1  A    between atoms: C_1  and  O_2
REMARK    2  A    between atoms: O_2  and  C_3
REMARK    3  A    between atoms: C_3  and  C_4
REMARK    4  A    between atoms: C_4  and  C_5
REMARK    5  A    between atoms: C_4  and  O_6
REMARK    6  A    between atoms: O_6  and  C_7
REMARK    7  A    between atoms: C_13  and  C_14
REMARK    8  A    between atoms: C_16  and  N_17
REMARK                            x       y       z     vdW  Elec       q    Type
REMARK                         _______ _______ _______ _____ _____    ______ ____
ROOT
ATOM      1  C   UNL     1       0.918   9.743  19.745  0.00  0.00    +0.000 A 
ATOM      2  C   UNL     1       1.388   8.485  20.061  0.00  0.00    +0.000 A 
ATOM      3  C   UNL     1       2.157   7.823  19.129  0.00  0.00    +0.000 A 
ATOM      4  N   UNL     1       2.448   8.402  17.953  0.00  0.00    +0.000 NA
ATOM      5  C   UNL     1       1.920   9.616  17.720  0.00  0.00    +0.000 A 
ATOM      6  N   UNL     1       1.165  10.330  18.560  0.00  0.00    +0.000 NA
ENDROOT
BRANCH   3   7
ATOM      7  N   UNL     1       2.674   6.574  19.434  0.00  0.00    +0.000 N 
ATOM      8  C   UNL     1       3.389   5.831  18.406  0.00  0.00    +0.000 C 
ATOM      9  C   UNL     1       2.625   4.577  17.991  0.00  0.00    +0.000 C 
ATOM     10  C   UNL     1       2.176   3.747  19.208  0.00  0.00    +0.000 C 
ATOM     11  C   UNL     1       3.351   3.028  19.912  0.00  0.00    +0.000 C 
ATOM     12  C   UNL     1       3.479   1.708  19.173  0.00  0.00    +0.000 C 
ATOM     13  N   UNL     1       2.145   1.445  18.732  0.00  0.00    +0.000 N 
ATOM     14  C   UNL     1       1.344   2.567  18.731  0.00  0.00    +0.000 C 
ATOM     15  O   UNL     1       0.184   2.584  18.360  0.00  0.00    +0.000 OA
ATOM     16  C   UNL     1       1.372   4.629  20.166  0.00  0.00    +0.000 C 
ATOM     17  C   UNL     1       2.170   5.853  20.600  0.00  0.00    +0.000 C 
ATOM     18  H   UNL     1       1.796   0.562  18.379  0.00  0.00    +0.000 HD
ENDBRANCH   3   7
BRANCH   1  25
ATOM     19  C   UNL     1      -3.163  12.203  19.724  0.00  0.00    +0.000 A 
ATOM     20  C   UNL     1      -3.415  12.686  21.014  0.00  0.00    +0.000 A 
ATOM     21  C   UNL     1      -2.546  12.446  22.081  0.00  0.00    +0.000 A 
ATOM     22  C   UNL     1      -1.410  11.695  21.812  0.00  0.00    +0.000 A 
ATOM     23  N   UNL     1      -0.402  11.284  22.631  0.00  0.00    +0.000 N 
ATOM     24  N   UNL     1       0.540  10.560  22.017  0.00  0.00    +0.000 NA
ATOM     25  C   UNL     1       0.130  10.486  20.737  0.00  0.00    +0.000 A 
ATOM     26  C   UNL     1      -1.100  11.197  20.552  0.00  0.00    +0.000 A 
ATOM     27  C   UNL     1      -1.988  11.469  19.483  0.00  0.00    +0.000 A 
ATOM     28  H   UNL     1      -0.296  11.474  23.622  0.00  0.00    +0.000 HD
BRANCH  19  29
ATOM     29  O   UNL     1      -3.986  12.382  18.639  0.00  0.00    +0.000 OA
BRANCH  29  30
ATOM     30  C   UNL     1      -4.455  11.197  17.969  0.00  0.00    +0.000 C 
ATOM     31  C   UNL     1      -5.949  11.037  18.241  0.00  0.00    +0.000 C 
BRANCH  30  32
ATOM     32  C   UNL     1      -4.211  11.288  16.455  0.00  0.00    +0.000 C 
BRANCH  32  34
ATOM     33  C   UNL     1      -3.084  10.189  14.699  0.00  0.00    +0.000 C 
ATOM     34  O   UNL     1      -3.088  10.480  16.088  0.00  0.00    +0.000 OA
ENDBRANCH  32  34
ENDBRANCH  30  32
ENDBRANCH  29  30
ENDBRANCH  19  29
ENDBRANCH   1  25
TORSDOF 6
ENDMDL
MODEL 2
REMARK VINA RESULT:      -8.5      3.886      9.593
REMARK  Name = 
REMARK  8 active torsions:
REMARK  status: ('A' for Active; 'I' for Inactive)
REMARK    1  A    between atoms: C_1  and  O_2
REMARK    2  A    between atoms: O_2  and  C_3
REMARK    3  A    between atoms: C_3  and  C_4
REMARK    4  A    between atoms: C_4  and  C_5
REMARK    5  A    between atoms: C_4  and  O_6
REMARK    6  A    between atoms: O_6  and  C_7
REMARK    7  A    between atoms: C_13  and  C_14
REMARK    8  A    between atoms: C_16  and  N_17
REMARK                            x       y       z     vdW  Elec       q    Type
REMARK                         _______ _______ _______ _____ _____    ______ ____
ROOT
ATOM      1  C   UNL     1       2.704   5.357  18.936  0.00  0.00    +0.000 A 
ATOM      2  C   UNL     1       2.475   6.705  18.753  0.00  0.00    +0.000 A 
ATOM      3  C   UNL     1       1.821   7.397  19.748  0.00  0.00    +0.000 A 
ATOM      4  N   UNL     1       1.432   6.770  20.870  0.00  0.00    +0.000 NA
ATOM      5  C   UNL     1       1.668   5.450  20.947  0.00  0.00    +0.000 A 
ATOM      6  N   UNL     1       2.292   4.698  20.035  0.00  0.00    +0.000 NA
ENDROOT
BRANCH   3   7
ATOM      7  N   UNL     1       1.612   8.760  19.607  0.00  0.00    +0.000 N 
ATOM      8  C   UNL     1       0.935   9.488  20.671  0.00  0.00    +0.000 C 
ATOM      9  C   UNL     1      -0.430   9.998  20.217  0.00  0.00    +0.000 C 
ATOM     10  C   UNL     1      -0.350  10.734  18.867  0.00  0.00    +0.000 C 
ATOM     11  C   UNL     1       0.341  12.113  18.973  0.00  0.00    +0.000 C 
ATOM     12  C   UNL     1      -0.784  13.070  19.325  0.00  0.00    +0.000 C 
ATOM     13  N   UNL     1      -1.931  12.468  18.723  0.00  0.00    +0.000 N 
ATOM     14  C   UNL     1      -1.751  11.133  18.430  0.00  0.00    +0.000 C 
ATOM     15  O   UNL     1      -2.606  10.412  17.946  0.00  0.00    +0.000 OA
ATOM     16  C   UNL     1       0.309   9.828  17.824  0.00  0.00    +0.000 C 
ATOM     17  C   UNL     1       1.688   9.366  18.279  0.00  0.00    +0.000 C 
ATOM     18  H   UNL     1      -2.829  12.912  18.570  0.00  0.00    +0.000 HD
ENDBRANCH   3   7
BRANCH   1  25
ATOM     19  C   UNL     1       6.740   5.969  16.479  0.00  0.00    +0.000 A 
ATOM     20  C   UNL     1       6.928   4.875  15.625  0.00  0.00    +0.000 A 
ATOM     21  C   UNL     1       6.019   3.817  15.560  0.00  0.00    +0.000 A 
ATOM     22  C   UNL     1       4.908   3.888  16.389  0.00  0.00    +0.000 A 
ATOM     23  N   UNL     1       3.873   3.020  16.566  0.00  0.00    +0.000 N 
ATOM     24  N   UNL     1       2.970   3.421  17.467  0.00  0.00    +0.000 NA
ATOM     25  C   UNL     1       3.436   4.606  17.909  0.00  0.00    +0.000 A 
ATOM     26  C   UNL     1       4.661   4.951  17.250  0.00  0.00    +0.000 A 
ATOM     27  C   UNL     1       5.588   6.021  17.285  0.00  0.00    +0.000 A 
ATOM     28  H   UNL     1       3.722   2.137  16.092  0.00  0.00    +0.000 HD
BRANCH  19  29
ATOM     29  O   UNL     1       7.605   7.028  16.608  0.00  0.00    +0.000 OA
BRANCH  29  30
ATOM     30  C   UNL     1       7.589   7.738  17.861  0.00  0.00    +0.000 C 
ATOM     31  C   UNL     1       8.316   6.898  18.910  0.00  0.00    +0.000 C 
BRANCH  30  32
ATOM     32  C   UNL     1       8.275   9.106  17.727  0.00  0.00    +0.000 C 
BRANCH  32  34
ATOM     33  C   UNL     1       9.337  10.808  18.967  0.00  0.00    +0.000 C 
ATOM     34  O   UNL     1       8.939   9.445  18.948  0.00  0.00    +0.000 OA
ENDBRANCH  32  34
ENDBRANCH  30  32
ENDBRANCH  29  30
ENDBRANCH  19  29
ENDBRANCH   1  25
TORSDOF 6
ENDMDL
MODEL 3
REMARK VINA RESULT:      -8.4      1.342      1.626
REMARK  Name = 
REMARK  8 active torsions:
REMARK  status: ('A' for Active; 'I' for Inactive)
REMARK    1  A    between atoms: C_1  and  O_2
REMARK    2  A    between atoms: O_2  and  C_3
REMARK    3  A    between atoms: C_3  and  C_4
REMARK    4  A    between atoms: C_4  and  C_5
REMARK    5  A    between atoms: C_4  and  O_6
REMARK    6  A    between atoms: O_6  and  C_7
REMARK    7  A    between atoms: C_13  and  C_14
REMARK    8  A    between atoms: C_16  and  N_17
REMARK                            x       y       z     vdW  Elec       q    Type
REMARK                         _______ _______ _______ _____ _____    ______ ____
ROOT
ATOM      1  C   UNL     1       0.892   9.487  20.190  0.00  0.00    +0.000 A 
ATOM      2  C   UNL     1       1.464   8.232  20.258  0.00  0.00    +0.000 A 
ATOM      3  C   UNL     1       2.158   7.772  19.160  0.00  0.00    +0.000 A 
ATOM      4  N   UNL     1       2.280   8.537  18.063  0.00  0.00    +0.000 NA
ATOM      5  C   UNL     1       1.663   9.731  18.076  0.00  0.00    +0.000 A 
ATOM      6  N   UNL     1       0.970  10.257  19.090  0.00  0.00    +0.000 NA
ENDROOT
BRANCH   3   7
ATOM      7  N   UNL     1       2.775   6.532  19.213  0.00  0.00    +0.000 N 
ATOM      8  C   UNL     1       3.130   5.862  17.971  0.00  0.00    +0.000 C 
ATOM      9  C   UNL     1       2.302   4.598  17.762  0.00  0.00    +0.000 C 
ATOM     10  C   UNL     1       2.295   3.700  19.013  0.00  0.00    +0.000 C 
ATOM     11  C   UNL     1       3.651   2.998  19.256  0.00  0.00    +0.000 C 
ATOM     12  C   UNL     1       3.560   1.717  18.447  0.00  0.00    +0.000 C 
ATOM     13  N   UNL     1       2.162   1.422  18.451  0.00  0.00    +0.000 N 
ATOM     14  C   UNL     1       1.380   2.510  18.770  0.00  0.00    +0.000 C 
ATOM     15  O   UNL     1       0.162   2.498  18.799  0.00  0.00    +0.000 OA
ATOM     16  C   UNL     1       1.828   4.509  20.225  0.00  0.00    +0.000 C 
ATOM     17  C   UNL     1       2.696   5.743  20.440  0.00  0.00    +0.000 C 
ATOM     18  H   UNL     1       1.737   0.541  18.185  0.00  0.00    +0.000 HD
ENDBRANCH   3   7
BRANCH   1  25
ATOM     19  C   UNL     1      -2.758  12.461  20.919  0.00  0.00    +0.000 A 
ATOM     20  C   UNL     1      -2.992  12.572  22.296  0.00  0.00    +0.000 A 
ATOM     21  C   UNL     1      -2.221  11.890  23.239  0.00  0.00    +0.000 A 
ATOM     22  C   UNL     1      -1.202  11.082  22.754  0.00  0.00    +0.000 A 
ATOM     23  N   UNL     1      -0.308  10.289  23.409  0.00  0.00    +0.000 N 
ATOM     24  N   UNL     1       0.540   9.640  22.604  0.00  0.00    +0.000 NA
ATOM     25  C   UNL     1       0.183  10.016  21.361  0.00  0.00    +0.000 A 
ATOM     26  C   UNL     1      -0.914  10.938  21.402  0.00  0.00    +0.000 A 
ATOM     27  C   UNL     1      -1.699  11.654  20.466  0.00  0.00    +0.000 A 
ATOM     28  H   UNL     1      -0.219  10.157  24.411  0.00  0.00    +0.000 HD
BRANCH  19  29
ATOM     29  O   UNL     1      -3.493  13.084  19.941  0.00  0.00    +0.000 OA
BRANCH  29  30
ATOM     30  C   UNL     1      -4.842  12.622  19.739  0.00  0.00    +0.000 C 
ATOM     31  C   UNL     1      -5.789  13.818  19.822  0.00  0.00    +0.000 C 
BRANCH  30  32
ATOM     32  C   UNL     1      -4.991  11.937  18.372  0.00  0.00    +0.000 C 
BRANCH  32  34
ATOM     33  C   UNL     1      -6.682  10.374  18.883  0.00  0.00    +0.000 C 
ATOM     34  O   UNL     1      -6.353  11.552  18.161  0.00  0.00    +0.000 OA
ENDBRANCH  32  34
ENDBRANCH  30  32
ENDBRANCH  29  30
ENDBRANCH  19  29
ENDBRANCH   1  25
TORSDOF 6
ENDMDL
MODEL 4
REMARK VINA RESULT:      -8.3      2.976      3.395
REMARK  Name = 
REMARK  8 active torsions:
REMARK  status: ('A' for Active; 'I' for Inactive)
REMARK    1  A    between atoms: C_1  and  O_2
REMARK    2  A    between atoms: O_2  and  C_3
REMARK    3  A    between atoms: C_3  and  C_4
REMARK    4  A    between atoms: C_4  and  C_5
REMARK    5  A    between atoms: C_4  and  O_6
REMARK    6  A    between atoms: O_6  and  C_7
REMARK    7  A    between atoms: C_13  and  C_14
REMARK    8  A    between atoms: C_16  and  N_17
REMARK                            x       y       z     vdW  Elec       q    Type
REMARK                         _______ _______ _______ _____ _____    ______ ____
ROOT
ATOM      1  C   UNL     1       0.806   9.609  20.128  0.00  0.00    +0.000 A 
ATOM      2  C   UNL     1       1.348   8.357  20.342  0.00  0.00    +0.000 A 
ATOM      3  C   UNL     1       2.039   7.761  19.310  0.00  0.00    +0.000 A 
ATOM      4  N   UNL     1       2.189   8.395  18.136  0.00  0.00    +0.000 NA
ATOM      5  C   UNL     1       1.600   9.595  18.008  0.00  0.00    +0.000 A 
ATOM      6  N   UNL     1       0.911  10.249  18.949  0.00  0.00    +0.000 NA
ENDROOT
BRANCH   3   7
ATOM      7  N   UNL     1       2.626   6.521  19.509  0.00  0.00    +0.000 N 
ATOM      8  C   UNL     1       3.294   5.865  18.395  0.00  0.00    +0.000 C 
ATOM      9  C   UNL     1       2.552   4.602  17.966  0.00  0.00    +0.000 C 
ATOM     10  C   UNL     1       2.224   3.691  19.163  0.00  0.00    +0.000 C 
ATOM     11  C   UNL     1       3.474   2.988  19.742  0.00  0.00    +0.000 C 
ATOM     12  C   UNL     1       3.601   1.715  18.925  0.00  0.00    +0.000 C 
ATOM     13  N   UNL     1       2.251   1.418  18.563  0.00  0.00    +0.000 N 
ATOM     14  C   UNL     1       1.408   2.502  18.679  0.00  0.00    +0.000 C 
ATOM     15  O   UNL     1       0.224   2.488  18.391  0.00  0.00    +0.000 OA
ATOM     16  C   UNL     1       1.456   4.486  20.221  0.00  0.00    +0.000 C 
ATOM     17  C   UNL     1       2.235   5.718  20.666  0.00  0.00    +0.000 C 
ATOM     18  H   UNL     1       1.912   0.540  18.187  0.00  0.00    +0.000 HD
ENDBRANCH   3   7
BRANCH   1  25
ATOM     19  C   UNL     1       0.091  14.126  21.465  0.00  0.00    +0.000 A 
ATOM     20  C   UNL     1      -0.697  14.142  22.623  0.00  0.00    +0.000 A 
ATOM     21  C   UNL     1      -1.152  12.970  23.231  0.00  0.00    +0.000 A 
ATOM     22  C   UNL     1      -0.792  11.770  22.633  0.00  0.00    +0.000 A 
ATOM     23  N   UNL     1      -1.091  10.484  22.970  0.00  0.00    +0.000 N 
ATOM     24  N   UNL     1      -0.567   9.568  22.149  0.00  0.00    +0.000 NA
ATOM     25  C   UNL     1       0.101  10.283  21.224  0.00  0.00    +0.000 A 
ATOM     26  C   UNL     1      -0.005  11.688  21.491  0.00  0.00    +0.000 A 
ATOM     27  C   UNL     1       0.459  12.890  20.903  0.00  0.00    +0.000 A 
ATOM     28  H   UNL     1      -1.642  10.166  23.759  0.00  0.00    +0.000 HD
BRANCH  19  29
ATOM     29  O   UNL     1       0.549  15.240  20.806  0.00  0.00    +0.000 OA
BRANCH  29  30
ATOM     30  C   UNL     1       0.778  15.115  19.390  0.00  0.00    +0.000 C 
ATOM     31  C   UNL     1      -0.289  15.916  18.646  0.00  0.00    +0.000 C 
BRANCH  30  32
ATOM     32  C   UNL     1       2.173  15.635  19.010  0.00  0.00    +0.000 C 
BRANCH  32  34
ATOM     33  C   UNL     1       2.962  13.506  18.372  0.00  0.00    +0.000 C 
ATOM     34  O   UNL     1       2.722  14.841  17.954  0.00  0.00    +0.000 OA
ENDBRANCH  32  34
ENDBRANCH  30  32
ENDBRANCH  29  30
ENDBRANCH  19  29
ENDBRANCH   1  25
TORSDOF 6
ENDMDL
MODEL 5
REMARK VINA RESULT:      -8.3      3.302      9.751
REMARK  Name = 
REMARK  8 active torsions:
REMARK  status: ('A' for Active; 'I' for Inactive)
REMARK    1  A    between atoms: C_1  and  O_2
REMARK    2  A    between atoms: O_2  and  C_3
REMARK    3  A    between atoms: C_3  and  C_4
REMARK    4  A    between atoms: C_4  and  C_5
REMARK    5  A    between atoms: C_4  and  O_6
REMARK    6  A    between atoms: O_6  and  C_7
REMARK    7  A    between atoms: C_13  and  C_14
REMARK    8  A    between atoms: C_16  and  N_17
REMARK                            x       y       z     vdW  Elec       q    Type
REMARK                         _______ _______ _______ _____ _____    ______ ____
ROOT
ATOM      1  C   UNL     1       0.138  10.273  21.005  0.00  0.00    +0.000 A 
ATOM      2  C   UNL     1      -0.747  11.331  21.047  0.00  0.00    +0.000 A 
ATOM      3  C   UNL     1      -1.383  11.602  22.238  0.00  0.00    +0.000 A 
ATOM      4  N   UNL     1      -1.132  10.859  23.328  0.00  0.00    +0.000 NA
ATOM      5  C   UNL     1      -0.280   9.830  23.185  0.00  0.00    +0.000 A 
ATOM      6  N   UNL     1       0.380   9.492  22.073  0.00  0.00    +0.000 NA
ENDROOT
BRANCH   3   7
ATOM      7  N   UNL     1      -2.249  12.682  22.319  0.00  0.00    +0.000 N 
ATOM      8  C   UNL     1      -2.377  13.396  23.581  0.00  0.00    +0.000 C 
ATOM      9  C   UNL     1      -3.763  13.207  24.191  0.00  0.00    +0.000 C 
ATOM     10  C   UNL     1      -4.883  13.476  23.169  0.00  0.00    +0.000 C 
ATOM     11  C   UNL     1      -5.033  14.975  22.821  0.00  0.00    +0.000 C 
ATOM     12  C   UNL     1      -5.988  15.510  23.872  0.00  0.00    +0.000 C 
ATOM     13  N   UNL     1      -6.799  14.378  24.190  0.00  0.00    +0.000 N 
ATOM     14  C   UNL     1      -6.229  13.181  23.812  0.00  0.00    +0.000 C 
ATOM     15  O   UNL     1      -6.726  12.087  24.015  0.00  0.00    +0.000 OA
ATOM     16  C   UNL     1      -4.668  12.605  21.928  0.00  0.00    +0.000 C 
ATOM     17  C   UNL     1      -3.295  12.842  21.312  0.00  0.00    +0.000 C 
ATOM     18  H   UNL     1      -7.673  14.393  24.701  0.00  0.00    +0.000 HD
ENDBRANCH   3   7
BRANCH   1  25
ATOM     19  C   UNL     1       2.721   6.650  19.299  0.00  0.00    +0.000 A 
ATOM     20  C   UNL     1       3.154   6.965  18.005  0.00  0.00    +0.000 A 
ATOM     21  C   UNL     1       2.841   8.178  17.390  0.00  0.00    +0.000 A 
ATOM     22  C   UNL     1       2.068   9.073  18.117  0.00  0.00    +0.000 A 
ATOM     23  N   UNL     1       1.589  10.306  17.790  0.00  0.00    +0.000 N 
ATOM     24  N   UNL     1       0.865  10.885  18.753  0.00  0.00    +0.000 NA
ATOM     25  C   UNL     1       0.860   9.989  19.759  0.00  0.00    +0.000 A 
ATOM     26  C   UNL     1       1.616   8.823  19.408  0.00  0.00    +0.000 A 
ATOM     27  C   UNL     1       1.962   7.593  20.017  0.00  0.00    +0.000 A 
ATOM     28  H   UNL     1       1.732  10.812  16.923  0.00  0.00    +0.000 HD
BRANCH  19  29
ATOM     29  O   UNL     1       2.973   5.468  19.951  0.00  0.00    +0.000 OA
BRANCH  29  30
ATOM     30  C   UNL     1       2.870   4.258  19.177  0.00  0.00    +0.000 C 
ATOM     31  C   UNL     1       4.113   3.407  19.426  0.00  0.00    +0.000 C 
BRANCH  30  32
ATOM     32  C   UNL     1       1.613   3.464  19.564  0.00  0.00    +0.000 C 
BRANCH  32  34
ATOM     33  C   UNL     1       1.482   2.568  21.741  0.00  0.00    +0.000 C 
ATOM     34  O   UNL     1       1.965   2.373  20.420  0.00  0.00    +0.000 OA
ENDBRANCH  32  34
ENDBRANCH  30  32
ENDBRANCH  29  30
ENDBRANCH  19  29
ENDBRANCH   1  25
TORSDOF 6
ENDMDL
MODEL 6
REMARK VINA RESULT:      -8.3      1.337      1.853
REMARK  Name = 
REMARK  8 active torsions:
REMARK  status: ('A' for Active; 'I' for Inactive)
REMARK    1  A    between atoms: C_1  and  O_2
REMARK    2  A    between atoms: O_2  and  C_3
REMARK    3  A    between atoms: C_3  and  C_4
REMARK    4  A    between atoms: C_4  and  C_5
REMARK    5  A    between atoms: C_4  and  O_6
REMARK    6  A    between atoms: O_6  and  C_7
REMARK    7  A    between atoms: C_13  and  C_14
REMARK    8  A    between atoms: C_16  and  N_17
REMARK                            x       y       z     vdW  Elec       q    Type
REMARK                         _______ _______ _______ _____ _____    ______ ____
ROOT
ATOM      1  C   UNL     1       1.039   9.573  19.546  0.00  0.00    +0.000 A 
ATOM      2  C   UNL     1       1.463   8.363  20.058  0.00  0.00    +0.000 A 
ATOM      3  C   UNL     1       2.230   7.548  19.254  0.00  0.00    +0.000 A 
ATOM      4  N   UNL     1       2.561   7.935  18.012  0.00  0.00    +0.000 NA
ATOM      5  C   UNL     1       2.076   9.114  17.587  0.00  0.00    +0.000 A 
ATOM      6  N   UNL     1       1.327   9.967  18.292  0.00  0.00    +0.000 NA
ENDROOT
BRANCH   3   7
ATOM      7  N   UNL     1       2.702   6.345  19.755  0.00  0.00    +0.000 N 
ATOM      8  C   UNL     1       4.020   5.877  19.353  0.00  0.00    +0.000 C 
ATOM      9  C   UNL     1       3.928   4.616  18.499  0.00  0.00    +0.000 C 
ATOM     10  C   UNL     1       3.022   3.550  19.141  0.00  0.00    +0.000 C 
ATOM     11  C   UNL     1       3.660   2.889  20.385  0.00  0.00    +0.000 C 
ATOM     12  C   UNL     1       4.467   1.733  19.822  0.00  0.00    +0.000 C 
ATOM     13  N   UNL     1       3.748   1.371  18.642  0.00  0.00    +0.000 N 
ATOM     14  C   UNL     1       2.899   2.363  18.199  0.00  0.00    +0.000 C 
ATOM     15  O   UNL     1       2.215   2.286  17.193  0.00  0.00    +0.000 OA
ATOM     16  C   UNL     1       1.647   4.154  19.439  0.00  0.00    +0.000 C 
ATOM     17  C   UNL     1       1.761   5.386  20.328  0.00  0.00    +0.000 C 
ATOM     18  H   UNL     1       3.865   0.517  18.109  0.00  0.00    +0.000 HD
ENDBRANCH   3   7
BRANCH   1  25
ATOM     19  C   UNL     1      -3.096  11.907  19.156  0.00  0.00    +0.000 A 
ATOM     20  C   UNL     1      -3.331  12.625  20.335  0.00  0.00    +0.000 A 
ATOM     21  C   UNL     1      -2.436  12.610  21.406  0.00  0.00    +0.000 A 
ATOM     22  C   UNL     1      -1.289  11.843  21.258  0.00  0.00    +0.000 A 
ATOM     23  N   UNL     1      -0.254  11.615  22.115  0.00  0.00    +0.000 N 
ATOM     24  N   UNL     1       0.691  10.804  21.628  0.00  0.00    +0.000 NA
ATOM     25  C   UNL     1       0.256  10.477  20.396  0.00  0.00    +0.000 A 
ATOM     26  C   UNL     1      -0.994  11.117  20.110  0.00  0.00    +0.000 A 
ATOM     27  C   UNL     1      -1.910  11.162  19.030  0.00  0.00    +0.000 A 
ATOM     28  H   UNL     1      -0.132  11.994  23.048  0.00  0.00    +0.000 HD
BRANCH  19  29
ATOM     29  O   UNL     1      -3.946  11.860  18.078  0.00  0.00    +0.000 OA
BRANCH  29  30
ATOM     30  C   UNL     1      -5.356  11.981  18.348  0.00  0.00    +0.000 C 
ATOM     31  C   UNL     1      -6.020  12.704  17.178  0.00  0.00    +0.000 C 
BRANCH  30  32
ATOM     32  C   UNL     1      -6.001  10.600  18.537  0.00  0.00    +0.000 C 
BRANCH  32  34
ATOM     33  C   UNL     1      -7.281   9.286  20.019  0.00  0.00    +0.000 C 
ATOM     34  O   UNL     1      -6.798  10.588  19.725  0.00  0.00    +0.000 OA
ENDBRANCH  32  34
ENDBRANCH  30  32
ENDBRANCH  29  30
ENDBRANCH  19  29
ENDBRANCH   1  25
TORSDOF 6
ENDMDL
MODEL 7
REMARK VINA RESULT:      -8.2      3.208      9.617
REMARK  Name = 
REMARK  8 active torsions:
REMARK  status: ('A' for Active; 'I' for Inactive)
REMARK    1  A    between atoms: C_1  and  O_2
REMARK    2  A    between atoms: O_2  and  C_3
REMARK    3  A    between atoms: C_3  and  C_4
REMARK    4  A    between atoms: C_4  and  C_5
REMARK    5  A    between atoms: C_4  and  O_6
REMARK    6  A    between atoms: O_6  and  C_7
REMARK    7  A    between atoms: C_13  and  C_14
REMARK    8  A    between atoms: C_16  and  N_17
REMARK                            x       y       z     vdW  Elec       q    Type
REMARK                         _______ _______ _______ _____ _____    ______ ____
ROOT
ATOM      1  C   UNL     1       0.234  10.090  21.053  0.00  0.00    +0.000 A 
ATOM      2  C   UNL     1      -0.613  11.180  21.066  0.00  0.00    +0.000 A 
ATOM      3  C   UNL     1      -1.236  11.508  22.250  0.00  0.00    +0.000 A 
ATOM      4  N   UNL     1      -1.008  10.788  23.361  0.00  0.00    +0.000 NA
ATOM      5  C   UNL     1      -0.194   9.726  23.246  0.00  0.00    +0.000 A 
ATOM      6  N   UNL     1       0.451   9.333  22.143  0.00  0.00    +0.000 NA
ENDROOT
BRANCH   3   7
ATOM      7  N   UNL     1      -2.063  12.620  22.301  0.00  0.00    +0.000 N 
ATOM      8  C   UNL     1      -2.167  13.370  23.544  0.00  0.00    +0.000 C 
ATOM      9  C   UNL     1      -3.560  13.247  24.155  0.00  0.00    +0.000 C 
ATOM     10  C   UNL     1      -4.668  13.529  23.124  0.00  0.00    +0.000 C 
ATOM     11  C   UNL     1      -4.764  15.023  22.737  0.00  0.00    +0.000 C 
ATOM     12  C   UNL     1      -5.700  15.619  23.772  0.00  0.00    +0.000 C 
ATOM     13  N   UNL     1      -6.552  14.525  24.117  0.00  0.00    +0.000 N 
ATOM     14  C   UNL     1      -6.025  13.299  23.772  0.00  0.00    +0.000 C 
ATOM     15  O   UNL     1      -6.561  12.229  24.002  0.00  0.00    +0.000 OA
ATOM     16  C   UNL     1      -4.483  12.619  21.907  0.00  0.00    +0.000 C 
ATOM     17  C   UNL     1      -3.101  12.790  21.288  0.00  0.00    +0.000 C 
ATOM     18  H   UNL     1      -7.426  14.585  24.626  0.00  0.00    +0.000 HD
ENDBRANCH   3   7
BRANCH   1  25
ATOM     19  C   UNL     1       2.741   6.359  19.475  0.00  0.00    +0.000 A 
ATOM     20  C   UNL     1       3.171   6.615  18.167  0.00  0.00    +0.000 A 
ATOM     21  C   UNL     1       2.874   7.808  17.506  0.00  0.00    +0.000 A 
ATOM     22  C   UNL     1       2.122   8.744  18.203  0.00  0.00    +0.000 A 
ATOM     23  N   UNL     1       1.662   9.972  17.830  0.00  0.00    +0.000 N 
ATOM     24  N   UNL     1       0.955  10.601  18.775  0.00  0.00    +0.000 NA
ATOM     25  C   UNL     1       0.941   9.745  19.815  0.00  0.00    +0.000 A 
ATOM     26  C   UNL     1       1.675   8.554  19.505  0.00  0.00    +0.000 A 
ATOM     27  C   UNL     1       2.004   7.342  20.160  0.00  0.00    +0.000 A 
ATOM     28  H   UNL     1       1.808  10.441  16.943  0.00  0.00    +0.000 HD
BRANCH  19  29
ATOM     29  O   UNL     1       2.978   5.199  20.172  0.00  0.00    +0.000 OA
BRANCH  29  30
ATOM     30  C   UNL     1       2.983   3.971  19.418  0.00  0.00    +0.000 C 
ATOM     31  C   UNL     1       3.784   2.924  20.189  0.00  0.00    +0.000 C 
BRANCH  30  32
ATOM     32  C   UNL     1       1.552   3.462  19.187  0.00  0.00    +0.000 C 
BRANCH  32  34
ATOM     33  C   UNL     1       2.434   3.257  17.009  0.00  0.00    +0.000 C 
ATOM     34  O   UNL     1       1.259   3.437  17.787  0.00  0.00    +0.000 OA
ENDBRANCH  32  34
ENDBRANCH  30  32
ENDBRANCH  29  30
ENDBRANCH  19  29
ENDBRANCH   1  25
TORSDOF 6
ENDMDL
MODEL 8
REMARK VINA RESULT:      -8.2      2.660      3.770
REMARK  Name = 
REMARK  8 active torsions:
REMARK  status: ('A' for Active; 'I' for Inactive)
REMARK    1  A    between atoms: C_1  and  O_2
REMARK    2  A    between atoms: O_2  and  C_3
REMARK    3  A    between atoms: C_3  and  C_4
REMARK    4  A    between atoms: C_4  and  C_5
REMARK    5  A    between atoms: C_4  and  O_6
REMARK    6  A    between atoms: O_6  and  C_7
REMARK    7  A    between atoms: C_13  and  C_14
REMARK    8  A    between atoms: C_16  and  N_17
REMARK                            x       y       z     vdW  Elec       q    Type
REMARK                         _______ _______ _______ _____ _____    ______ ____
ROOT
ATOM      1  C   UNL     1       1.381   8.225  20.351  0.00  0.00    +0.000 A 
ATOM      2  C   UNL     1       2.079   7.948  19.193  0.00  0.00    +0.000 A 
ATOM      3  C   UNL     1       2.545   6.666  19.003  0.00  0.00    +0.000 A 
ATOM      4  N   UNL     1       2.310   5.714  19.921  0.00  0.00    +0.000 NA
ATOM      5  C   UNL     1       1.650   6.084  21.032  0.00  0.00    +0.000 A 
ATOM      6  N   UNL     1       1.163   7.299  21.301  0.00  0.00    +0.000 NA
ENDROOT
BRANCH   3   7
ATOM      7  N   UNL     1       3.216   6.350  17.833  0.00  0.00    +0.000 N 
ATOM      8  C   UNL     1       3.378   4.951  17.462  0.00  0.00    +0.000 C 
ATOM      9  C   UNL     1       4.841   4.523  17.524  0.00  0.00    +0.000 C 
ATOM     10  C   UNL     1       5.762   5.509  16.781  0.00  0.00    +0.000 C 
ATOM     11  C   UNL     1       5.608   5.433  15.244  0.00  0.00    +0.000 C 
ATOM     12  C   UNL     1       6.581   4.348  14.823  0.00  0.00    +0.000 C 
ATOM     13  N   UNL     1       7.607   4.420  15.815  0.00  0.00    +0.000 N 
ATOM     14  C   UNL     1       7.208   5.075  16.960  0.00  0.00    +0.000 C 
ATOM     15  O   UNL     1       7.906   5.224  17.947  0.00  0.00    +0.000 OA
ATOM     16  C   UNL     1       5.545   6.924  17.322  0.00  0.00    +0.000 C 
ATOM     17  C   UNL     1       4.085   7.346  17.211  0.00  0.00    +0.000 C 
ATOM     18  H   UNL     1       8.523   3.991  15.760  0.00  0.00    +0.000 HD
ENDBRANCH   3   7
BRANCH   1  25
ATOM     19  C   UNL     1      -2.180  10.796  18.503  0.00  0.00    +0.000 A 
ATOM     20  C   UNL     1      -2.215  12.048  19.129  0.00  0.00    +0.000 A 
ATOM     21  C   UNL     1      -1.304  12.408  20.124  0.00  0.00    +0.000 A 
ATOM     22  C   UNL     1      -0.351  11.463  20.478  0.00  0.00    +0.000 A 
ATOM     23  N   UNL     1       0.642  11.508  21.410  0.00  0.00    +0.000 N 
ATOM     24  N   UNL     1       1.377  10.393  21.480  0.00  0.00    +0.000 NA
ATOM     25  C   UNL     1       0.838   9.573  20.557  0.00  0.00    +0.000 A 
ATOM     26  C   UNL     1      -0.259  10.209  19.888  0.00  0.00    +0.000 A 
ATOM     27  C   UNL     1      -1.183   9.874  18.868  0.00  0.00    +0.000 A 
ATOM     28  H   UNL     1       0.876  12.280  22.025  0.00  0.00    +0.000 HD
BRANCH  19  29
ATOM     29  O   UNL     1      -3.060  10.371  17.538  0.00  0.00    +0.000 OA
BRANCH  29  30
ATOM     30  C   UNL     1      -3.445  11.330  16.534  0.00  0.00    +0.000 C 
ATOM     31  C   UNL     1      -3.226  10.713  15.154  0.00  0.00    +0.000 C 
BRANCH  30  32
ATOM     32  C   UNL     1      -4.919  11.731  16.694  0.00  0.00    +0.000 C 
BRANCH  32  34
ATOM     33  C   UNL     1      -6.681  11.518  18.247  0.00  0.00    +0.000 C 
ATOM     34  O   UNL     1      -5.558  10.883  17.653  0.00  0.00    +0.000 OA
ENDBRANCH  32  34
ENDBRANCH  30  32
ENDBRANCH  29  30
ENDBRANCH  19  29
ENDBRANCH   1  25
TORSDOF 6
ENDMDL
MODEL 9
REMARK VINA RESULT:      -8.1      2.578      3.431
REMARK  Name = 
REMARK  8 active torsions:
REMARK  status: ('A' for Active; 'I' for Inactive)
REMARK    1  A    between atoms: C_1  and  O_2
REMARK    2  A    between atoms: O_2  and  C_3
REMARK    3  A    between atoms: C_3  and  C_4
REMARK    4  A    between atoms: C_4  and  C_5
REMARK    5  A    between atoms: C_4  and  O_6
REMARK    6  A    between atoms: O_6  and  C_7
REMARK    7  A    between atoms: C_13  and  C_14
REMARK    8  A    between atoms: C_16  and  N_17
REMARK                            x       y       z     vdW  Elec       q    Type
REMARK                         _______ _______ _______ _____ _____    ______ ____
ROOT
ATOM      1  C   UNL     1       0.782   9.459  20.280  0.00  0.00    +0.000 A 
ATOM      2  C   UNL     1       1.354   8.207  20.384  0.00  0.00    +0.000 A 
ATOM      3  C   UNL     1       2.090   7.736  19.319  0.00  0.00    +0.000 A 
ATOM      4  N   UNL     1       2.252   8.488  18.219  0.00  0.00    +0.000 NA
ATOM      5  C   UNL     1       1.632   9.680  18.194  0.00  0.00    +0.000 A 
ATOM      6  N   UNL     1       0.900  10.217  19.175  0.00  0.00    +0.000 NA
ENDROOT
BRANCH   3   7
ATOM      7  N   UNL     1       2.707   6.498  19.411  0.00  0.00    +0.000 N 
ATOM      8  C   UNL     1       3.229   5.875  18.204  0.00  0.00    +0.000 C 
ATOM      9  C   UNL     1       2.448   4.614  17.844  0.00  0.00    +0.000 C 
ATOM     10  C   UNL     1       2.286   3.672  19.052  0.00  0.00    +0.000 C 
ATOM     11  C   UNL     1       3.605   2.970  19.447  0.00  0.00    +0.000 C 
ATOM     12  C   UNL     1       3.634   1.718  18.590  0.00  0.00    +0.000 C 
ATOM     13  N   UNL     1       2.251   1.414  18.399  0.00  0.00    +0.000 N 
ATOM     14  C   UNL     1       1.422   2.486  18.650  0.00  0.00    +0.000 C 
ATOM     15  O   UNL     1       0.211   2.466  18.518  0.00  0.00    +0.000 OA
ATOM     16  C   UNL     1       1.656   4.435  20.219  0.00  0.00    +0.000 C 
ATOM     17  C   UNL     1       2.476   5.665  20.589  0.00  0.00    +0.000 C 
ATOM     18  H   UNL     1       1.873   0.542  18.050  0.00  0.00    +0.000 HD
ENDBRANCH   3   7
BRANCH   1  25
ATOM     19  C   UNL     1      -1.371  13.586  21.300  0.00  0.00    +0.000 A 
ATOM     20  C   UNL     1      -1.949  13.500  22.572  0.00  0.00    +0.000 A 
ATOM     21  C   UNL     1      -1.853  12.349  23.357  0.00  0.00    +0.000 A 
ATOM     22  C   UNL     1      -1.157  11.276  22.819  0.00  0.00    +0.000 A 
ATOM     23  N   UNL     1      -0.911  10.033  23.321  0.00  0.00    +0.000 N 
ATOM     24  N   UNL     1      -0.199   9.245  22.509  0.00  0.00    +0.000 NA
ATOM     25  C   UNL     1       0.028  10.001  21.417  0.00  0.00    +0.000 A 
ATOM     26  C   UNL     1      -0.553  11.303  21.567  0.00  0.00    +0.000 A 
ATOM     27  C   UNL     1      -0.649  12.488  20.798  0.00  0.00    +0.000 A 
ATOM     28  H   UNL     1      -1.196   9.665  24.222  0.00  0.00    +0.000 HD
BRANCH  19  29
ATOM     29  O   UNL     1      -1.449  14.677  20.469  0.00  0.00    +0.000 OA
BRANCH  29  30
ATOM     30  C   UNL     1      -0.209  15.312  20.103  0.00  0.00    +0.000 C 
ATOM     31  C   UNL     1      -0.456  16.214  18.895  0.00  0.00    +0.000 C 
BRANCH  30  32
ATOM     32  C   UNL     1       0.347  16.146  21.267  0.00  0.00    +0.000 C 
BRANCH  32  34
ATOM     33  C   UNL     1       2.235  14.782  20.897  0.00  0.00    +0.000 C 
ATOM     34  O   UNL     1       1.460  15.475  21.865  0.00  0.00    +0.000 OA
ENDBRANCH  32  34
ENDBRANCH  30  32
ENDBRANCH  29  30
ENDBRANCH  19  29
ENDBRANCH   1  25
TORSDOF 6
ENDMDL
