MODEL 1
REMARK VINA RESULT:      -7.3      0.000      0.000
REMARK  Name = 
REMARK  6 active torsions:
REMARK  status: ('A' for Active; 'I' for Inactive)
REMARK    1  A    between atoms: N_5  and  C_6
REMARK    2  A    between atoms: C_6  and  C_7
REMARK    3  A    between atoms: C_8  and  C_9
REMARK    4  A    between atoms: N_17  and  C_18
REMARK    5  A    between atoms: C_18  and  C_19
REMARK    6  A    between atoms: C_20  and  C_21
REMARK                            x       y       z     vdW  Elec       q    Type
REMARK                         _______ _______ _______ _____ _____    ______ ____
ROOT
ATOM      1  O   UNL     1      -0.653  10.515  23.437  0.00  0.00    +0.000 OA
ATOM      2  C   UNL     1      -0.142  10.391  22.326  0.00  0.00    +0.000 A 
ATOM      3  C   UNL     1       0.464   9.101  21.992  0.00  0.00    +0.000 A 
ATOM      4  C   UNL     1       0.994   8.918  20.787  0.00  0.00    +0.000 A 
ATOM      5  N   UNL     1       1.066   9.921  19.841  0.00  0.00    +0.000 N 
ATOM      6  C   UNL     1       0.568  11.225  20.099  0.00  0.00    +0.000 A 
ATOM      7  S   UNL     1       0.783  12.513  19.018  0.00  0.00    +0.000 S 
ATOM      8  N   UNL     1      -0.130  11.359  21.326  0.00  0.00    +0.000 N 
ENDROOT
BRANCH   5   9
ATOM      9  C   UNL     1       1.559   9.506  18.507  0.00  0.00    +0.000 C 
BRANCH   9  10
ATOM     10  C   UNL     1       2.064   8.096  18.431  0.00  0.00    +0.000 C 
ATOM     11  C   UNL     1       3.102   7.587  17.752  0.00  0.00    +0.000 C 
BRANCH  11  12
ATOM     12  C   UNL     1       3.245   6.124  17.696  0.00  0.00    +0.000 A 
ATOM     13  C   UNL     1       4.451   5.594  17.224  0.00  0.00    +0.000 A 
ATOM     14  C   UNL     1       4.592   4.220  17.026  0.00  0.00    +0.000 A 
ATOM     15  C   UNL     1       3.528   3.365  17.305  0.00  0.00    +0.000 A 
ATOM     16  C   UNL     1       2.327   3.884  17.791  0.00  0.00    +0.000 A 
ATOM     17  C   UNL     1       2.183   5.262  17.986  0.00  0.00    +0.000 A 
ENDBRANCH  11  12
ENDBRANCH   9  10
ENDBRANCH   5   9
BRANCH   8  18
ATOM     18  C   UNL     1      -1.050  12.475  21.571  0.00  0.00    +0.000 C 
BRANCH  18  19
ATOM     19  C   UNL     1      -2.398  12.267  20.949  0.00  0.00    +0.000 C 
ATOM     20  C   UNL     1      -3.427  13.121  21.081  0.00  0.00    +0.000 C 
BRANCH  20  21
ATOM     21  C   UNL     1      -4.766  12.724  20.655  0.00  0.00    +0.000 A 
ATOM     22  C   UNL     1      -5.793  12.663  21.606  0.00  0.00    +0.000 A 
ATOM     23  C   UNL     1      -7.056  12.192  21.247  0.00  0.00    +0.000 A 
ATOM     24  C   UNL     1      -7.300  11.788  19.936  0.00  0.00    +0.000 A 
ATOM     25  C   UNL     1      -6.287  11.866  18.979  0.00  0.00    +0.000 A 
ATOM     26  C   UNL     1      -5.020  12.332  19.338  0.00  0.00    +0.000 A 
ENDBRANCH  20  21
ENDBRANCH  18  19
ENDBRANCH   8  18
TORSDOF 6
ENDMDL
MODEL 2
REMARK VINA RESULT:      -7.3      0.720      1.312
REMARK  Name = 
REMARK  6 active torsions:
REMARK  status: ('A' for Active; 'I' for Inactive)
REMARK    1  A    between atoms: N_5  and  C_6
REMARK    2  A    between atoms: C_6  and  C_7
REMARK    3  A    between atoms: C_8  and  C_9
REMARK    4  A    between atoms: N_17  and  C_18
REMARK    5  A    between atoms: C_18  and  C_19
REMARK    6  A    between atoms: C_20  and  C_21
REMARK                            x       y       z     vdW  Elec       q    Type
REMARK                         _______ _______ _______ _____ _____    ______ ____
ROOT
ATOM      1  O   UNL     1      -0.845  10.574  23.503  0.00  0.00    +0.000 OA
ATOM      2  C   UNL     1      -0.307  10.466  22.403  0.00  0.00    +0.000 A 
ATOM      3  C   UNL     1       0.046   9.122  21.943  0.00  0.00    +0.000 A 
ATOM      4  C   UNL     1       0.595   8.963  20.745  0.00  0.00    +0.000 A 
ATOM      5  N   UNL     1       0.919  10.024  19.923  0.00  0.00    +0.000 N 
ATOM      6  C   UNL     1       0.679  11.367  20.312  0.00  0.00    +0.000 A 
ATOM      7  S   UNL     1       1.208  12.690  19.393  0.00  0.00    +0.000 S 
ATOM      8  N   UNL     1      -0.046  11.511  21.522  0.00  0.00    +0.000 N 
ENDROOT
BRANCH   5   9
ATOM      9  C   UNL     1       1.393   9.659  18.567  0.00  0.00    +0.000 C 
BRANCH   9  10
ATOM     10  C   UNL     1       1.955   8.275  18.445  0.00  0.00    +0.000 C 
ATOM     11  C   UNL     1       3.079   7.849  17.852  0.00  0.00    +0.000 C 
BRANCH  11  12
ATOM     12  C   UNL     1       3.282   6.399  17.706  0.00  0.00    +0.000 A 
ATOM     13  C   UNL     1       4.442   5.953  17.061  0.00  0.00    +0.000 A 
ATOM     14  C   UNL     1       4.619   4.599  16.779  0.00  0.00    +0.000 A 
ATOM     15  C   UNL     1       3.640   3.678  17.145  0.00  0.00    +0.000 A 
ATOM     16  C   UNL     1       2.487   4.113  17.802  0.00  0.00    +0.000 A 
ATOM     17  C   UNL     1       2.305   5.471  18.081  0.00  0.00    +0.000 A 
ENDBRANCH  11  12
ENDBRANCH   9  10
ENDBRANCH   5   9
BRANCH   8  18
ATOM     18  C   UNL     1      -0.736  12.760  21.863  0.00  0.00    +0.000 C 
BRANCH  18  19
ATOM     19  C   UNL     1      -2.208  12.709  21.581  0.00  0.00    +0.000 C 
ATOM     20  C   UNL     1      -3.150  13.176  22.417  0.00  0.00    +0.000 C 
BRANCH  20  21
ATOM     21  C   UNL     1      -4.557  12.863  22.181  0.00  0.00    +0.000 A 
ATOM     22  C   UNL     1      -4.966  12.496  20.893  0.00  0.00    +0.000 A 
ATOM     23  C   UNL     1      -6.317  12.289  20.616  0.00  0.00    +0.000 A 
ATOM     24  C   UNL     1      -7.264  12.440  21.627  0.00  0.00    +0.000 A 
ATOM     25  C   UNL     1      -6.861  12.785  22.918  0.00  0.00    +0.000 A 
ATOM     26  C   UNL     1      -5.508  12.998  23.196  0.00  0.00    +0.000 A 
ENDBRANCH  20  21
ENDBRANCH  18  19
ENDBRANCH   8  18
TORSDOF 6
ENDMDL
MODEL 3
REMARK VINA RESULT:      -7.2      1.202      1.869
REMARK  Name = 
REMARK  6 active torsions:
REMARK  status: ('A' for Active; 'I' for Inactive)
REMARK    1  A    between atoms: N_5  and  C_6
REMARK    2  A    between atoms: C_6  and  C_7
REMARK    3  A    between atoms: C_8  and  C_9
REMARK    4  A    between atoms: N_17  and  C_18
REMARK    5  A    between atoms: C_18  and  C_19
REMARK    6  A    between atoms: C_20  and  C_21
REMARK                            x       y       z     vdW  Elec       q    Type
REMARK                         _______ _______ _______ _____ _____    ______ ____
ROOT
ATOM      1  O   UNL     1      -1.059  10.653  22.932  0.00  0.00    +0.000 OA
ATOM      2  C   UNL     1      -0.337  10.294  22.005  0.00  0.00    +0.000 A 
ATOM      3  C   UNL     1       0.183   8.926  22.033  0.00  0.00    +0.000 A 
ATOM      4  C   UNL     1       0.938   8.492  21.030  0.00  0.00    +0.000 A 
ATOM      5  N   UNL     1       1.319   9.298  19.976  0.00  0.00    +0.000 N 
ATOM      6  C   UNL     1       0.922  10.658  19.897  0.00  0.00    +0.000 A 
ATOM      7  S   UNL     1       1.503  11.709  18.701  0.00  0.00    +0.000 S 
ATOM      8  N   UNL     1      -0.005  11.061  20.892  0.00  0.00    +0.000 N 
ENDROOT
BRANCH   5   9
ATOM      9  C   UNL     1       2.041   8.614  18.877  0.00  0.00    +0.000 C 
BRANCH   9  10
ATOM     10  C   UNL     1       2.157   7.127  19.028  0.00  0.00    +0.000 C 
ATOM     11  C   UNL     1       2.022   6.154  18.116  0.00  0.00    +0.000 C 
BRANCH  11  12
ATOM     12  C   UNL     1       1.986   4.760  18.586  0.00  0.00    +0.000 A 
ATOM     13  C   UNL     1       2.590   3.778  17.793  0.00  0.00    +0.000 A 
ATOM     14  C   UNL     1       2.471   2.428  18.125  0.00  0.00    +0.000 A 
ATOM     15  C   UNL     1       1.752   2.051  19.257  0.00  0.00    +0.000 A 
ATOM     16  C   UNL     1       1.159   3.026  20.061  0.00  0.00    +0.000 A 
ATOM     17  C   UNL     1       1.274   4.379  19.728  0.00  0.00    +0.000 A 
ENDBRANCH  11  12
ENDBRANCH   9  10
ENDBRANCH   5   9
BRANCH   8  18
ATOM     18  C   UNL     1      -0.831  12.263  20.734  0.00  0.00    +0.000 C 
BRANCH  18  19
ATOM     19  C   UNL     1      -2.084  12.013  19.951  0.00  0.00    +0.000 C 
ATOM     20  C   UNL     1      -3.245  12.654  20.164  0.00  0.00    +0.000 C 
BRANCH  20  21
ATOM     21  C   UNL     1      -4.472  12.176  19.531  0.00  0.00    +0.000 A 
ATOM     22  C   UNL     1      -4.439  11.795  18.184  0.00  0.00    +0.000 A 
ATOM     23  C   UNL     1      -5.614  11.430  17.527  0.00  0.00    +0.000 A 
ATOM     24  C   UNL     1      -6.825  11.435  18.217  0.00  0.00    +0.000 A 
ATOM     25  C   UNL     1      -6.861  11.794  19.566  0.00  0.00    +0.000 A 
ATOM     26  C   UNL     1      -5.686  12.166  20.223  0.00  0.00    +0.000 A 
ENDBRANCH  20  21
ENDBRANCH  18  19
ENDBRANCH   8  18
TORSDOF 6
ENDMDL
MODEL 4
REMARK VINA RESULT:      -7.2      2.079      2.823
REMARK  Name = 
REMARK  6 active torsions:
REMARK  status: ('A' for Active; 'I' for Inactive)
REMARK    1  A    between atoms: N_5  and  C_6
REMARK    2  A    between atoms: C_6  and  C_7
REMARK    3  A    between atoms: C_8  and  C_9
REMARK    4  A    between atoms: N_17  and  C_18
REMARK    5  A    between atoms: C_18  and  C_19
REMARK    6  A    between atoms: C_20  and  C_21
REMARK                            x       y       z     vdW  Elec       q    Type
REMARK                         _______ _______ _______ _____ _____    ______ ____
ROOT
ATOM      1  O   UNL     1      -1.141  12.468  18.422  0.00  0.00    +0.000 OA
ATOM      2  C   UNL     1      -0.624  11.606  19.130  0.00  0.00    +0.000 A 
ATOM      3  C   UNL     1       0.305  10.669  18.497  0.00  0.00    +0.000 A 
ATOM      4  C   UNL     1       0.911   9.747  19.238  0.00  0.00    +0.000 A 
ATOM      5  N   UNL     1       0.654   9.580  20.584  0.00  0.00    +0.000 N 
ATOM      6  C   UNL     1      -0.283  10.396  21.269  0.00  0.00    +0.000 A 
ATOM      7  S   UNL     1      -0.733  10.112  22.879  0.00  0.00    +0.000 S 
ATOM      8  N   UNL     1      -0.804  11.470  20.503  0.00  0.00    +0.000 N 
ENDROOT
BRANCH   5   9
ATOM      9  C   UNL     1       1.519   8.601  21.283  0.00  0.00    +0.000 C 
BRANCH   9  10
ATOM     10  C   UNL     1       1.407   7.192  20.786  0.00  0.00    +0.000 C 
ATOM     11  C   UNL     1       2.297   6.435  20.128  0.00  0.00    +0.000 C 
BRANCH  11  12
ATOM     12  C   UNL     1       1.844   5.148  19.578  0.00  0.00    +0.000 A 
ATOM     13  C   UNL     1       1.212   4.245  20.441  0.00  0.00    +0.000 A 
ATOM     14  C   UNL     1       0.882   2.962  20.005  0.00  0.00    +0.000 A 
ATOM     15  C   UNL     1       1.176   2.573  18.700  0.00  0.00    +0.000 A 
ATOM     16  C   UNL     1       1.792   3.473  17.829  0.00  0.00    +0.000 A 
ATOM     17  C   UNL     1       2.128   4.759  18.265  0.00  0.00    +0.000 A 
ENDBRANCH  11  12
ENDBRANCH   9  10
ENDBRANCH   5   9
BRANCH   8  18
ATOM     18  C   UNL     1      -1.439  12.632  21.136  0.00  0.00    +0.000 C 
BRANCH  18  19
ATOM     19  C   UNL     1      -2.924  12.483  21.273  0.00  0.00    +0.000 C 
ATOM     20  C   UNL     1      -3.725  13.410  21.824  0.00  0.00    +0.000 C 
BRANCH  20  21
ATOM     21  C   UNL     1      -5.112  13.083  22.143  0.00  0.00    +0.000 A 
ATOM     22  C   UNL     1      -5.524  13.095  23.481  0.00  0.00    +0.000 A 
ATOM     23  C   UNL     1      -6.815  12.690  23.823  0.00  0.00    +0.000 A 
ATOM     24  C   UNL     1      -7.700  12.280  22.828  0.00  0.00    +0.000 A 
ATOM     25  C   UNL     1      -7.302  12.286  21.490  0.00  0.00    +0.000 A 
ATOM     26  C   UNL     1      -6.008  12.685  21.147  0.00  0.00    +0.000 A 
ENDBRANCH  20  21
ENDBRANCH  18  19
ENDBRANCH   8  18
TORSDOF 6
ENDMDL
MODEL 5
REMARK VINA RESULT:      -7.2      5.184     10.245
REMARK  Name = 
REMARK  6 active torsions:
REMARK  status: ('A' for Active; 'I' for Inactive)
REMARK    1  A    between atoms: N_5  and  C_6
REMARK    2  A    between atoms: C_6  and  C_7
REMARK    3  A    between atoms: C_8  and  C_9
REMARK    4  A    between atoms: N_17  and  C_18
REMARK    5  A    between atoms: C_18  and  C_19
REMARK    6  A    between atoms: C_20  and  C_21
REMARK                            x       y       z     vdW  Elec       q    Type
REMARK                         _______ _______ _______ _____ _____    ______ ____
ROOT
ATOM      1  O   UNL     1       7.889   5.176  19.374  0.00  0.00    +0.000 OA
ATOM      2  C   UNL     1       6.770   5.453  18.946  0.00  0.00    +0.000 A 
ATOM      3  C   UNL     1       5.612   5.010  19.724  0.00  0.00    +0.000 A 
ATOM      4  C   UNL     1       4.388   5.322  19.312  0.00  0.00    +0.000 A 
ATOM      5  N   UNL     1       4.145   5.995  18.131  0.00  0.00    +0.000 N 
ATOM      6  C   UNL     1       5.201   6.403  17.275  0.00  0.00    +0.000 A 
ATOM      7  S   UNL     1       4.924   7.088  15.750  0.00  0.00    +0.000 S 
ATOM      8  N   UNL     1       6.501   6.199  17.803  0.00  0.00    +0.000 N 
ENDROOT
BRANCH   5   9
ATOM      9  C   UNL     1       2.734   6.383  17.896  0.00  0.00    +0.000 C 
BRANCH   9  10
ATOM     10  C   UNL     1       2.367   7.754  18.378  0.00  0.00    +0.000 C 
ATOM     11  C   UNL     1       1.428   8.602  17.934  0.00  0.00    +0.000 C 
BRANCH  11  12
ATOM     12  C   UNL     1       1.425   9.974  18.465  0.00  0.00    +0.000 A 
ATOM     13  C   UNL     1       2.218  10.934  17.825  0.00  0.00    +0.000 A 
ATOM     14  C   UNL     1       2.354  12.213  18.363  0.00  0.00    +0.000 A 
ATOM     15  C   UNL     1       1.693  12.545  19.543  0.00  0.00    +0.000 A 
ATOM     16  C   UNL     1       0.887  11.599  20.180  0.00  0.00    +0.000 A 
ATOM     17  C   UNL     1       0.753  10.314  19.643  0.00  0.00    +0.000 A 
ENDBRANCH  11  12
ENDBRANCH   9  10
ENDBRANCH   5   9
BRANCH   8  18
ATOM     18  C   UNL     1       7.668   6.915  17.275  0.00  0.00    +0.000 C 
BRANCH  18  19
ATOM     19  C   UNL     1       8.022   8.129  18.080  0.00  0.00    +0.000 C 
ATOM     20  C   UNL     1       8.180   9.357  17.559  0.00  0.00    +0.000 C 
BRANCH  20  21
ATOM     21  C   UNL     1       8.764  10.425  18.366  0.00  0.00    +0.000 A 
ATOM     22  C   UNL     1       8.857  11.714  17.827  0.00  0.00    +0.000 A 
ATOM     23  C   UNL     1       9.501  12.728  18.536  0.00  0.00    +0.000 A 
ATOM     24  C   UNL     1      10.045  12.461  19.791  0.00  0.00    +0.000 A 
ATOM     25  C   UNL     1       9.936  11.183  20.344  0.00  0.00    +0.000 A 
ATOM     26  C   UNL     1       9.298  10.165  19.631  0.00  0.00    +0.000 A 
ENDBRANCH  20  21
ENDBRANCH  18  19
ENDBRANCH   8  18
TORSDOF 6
ENDMDL
MODEL 6
REMARK VINA RESULT:      -7.2      3.057      8.251
REMARK  Name = 
REMARK  6 active torsions:
REMARK  status: ('A' for Active; 'I' for Inactive)
REMARK    1  A    between atoms: N_5  and  C_6
REMARK    2  A    between atoms: C_6  and  C_7
REMARK    3  A    between atoms: C_8  and  C_9
REMARK    4  A    between atoms: N_17  and  C_18
REMARK    5  A    between atoms: C_18  and  C_19
REMARK    6  A    between atoms: C_20  and  C_21
REMARK                            x       y       z     vdW  Elec       q    Type
REMARK                         _______ _______ _______ _____ _____    ______ ____
ROOT
ATOM      1  O   UNL     1       0.375   9.505  23.584  0.00  0.00    +0.000 OA
ATOM      2  C   UNL     1      -0.021  10.084  22.575  0.00  0.00    +0.000 A 
ATOM      3  C   UNL     1      -0.977  11.179  22.745  0.00  0.00    +0.000 A 
ATOM      4  C   UNL     1      -1.399  11.852  21.681  0.00  0.00    +0.000 A 
ATOM      5  N   UNL     1      -1.029  11.523  20.392  0.00  0.00    +0.000 N 
ATOM      6  C   UNL     1      -0.161  10.433  20.122  0.00  0.00    +0.000 A 
ATOM      7  S   UNL     1       0.183   9.911  18.546  0.00  0.00    +0.000 S 
ATOM      8  N   UNL     1       0.399   9.825  21.274  0.00  0.00    +0.000 N 
ENDROOT
BRANCH   5   9
ATOM      9  C   UNL     1      -1.479  12.463  19.338  0.00  0.00    +0.000 C 
BRANCH   9  10
ATOM     10  C   UNL     1      -0.411  13.366  18.800  0.00  0.00    +0.000 C 
ATOM     11  C   UNL     1       0.809  13.644  19.283  0.00  0.00    +0.000 C 
BRANCH  11  12
ATOM     12  C   UNL     1       1.574  14.732  18.654  0.00  0.00    +0.000 A 
ATOM     13  C   UNL     1       2.814  14.425  18.083  0.00  0.00    +0.000 A 
ATOM     14  C   UNL     1       3.638  15.438  17.592  0.00  0.00    +0.000 A 
ATOM     15  C   UNL     1       3.224  16.766  17.664  0.00  0.00    +0.000 A 
ATOM     16  C   UNL     1       1.982  17.079  18.218  0.00  0.00    +0.000 A 
ATOM     17  C   UNL     1       1.156  16.065  18.714  0.00  0.00    +0.000 A 
ENDBRANCH  11  12
ENDBRANCH   9  10
ENDBRANCH   5   9
BRANCH   8  18
ATOM     18  C   UNL     1       1.603   8.989  21.196  0.00  0.00    +0.000 C 
BRANCH  18  19
ATOM     19  C   UNL     1       1.305   7.571  20.814  0.00  0.00    +0.000 C 
ATOM     20  C   UNL     1       2.222   6.711  20.340  0.00  0.00    +0.000 C 
BRANCH  20  21
ATOM     21  C   UNL     1       1.801   5.438  19.762  0.00  0.00    +0.000 A 
ATOM     22  C   UNL     1       1.252   4.458  20.600  0.00  0.00    +0.000 A 
ATOM     23  C   UNL     1       0.934   3.198  20.093  0.00  0.00    +0.000 A 
ATOM     24  C   UNL     1       1.154   2.915  18.747  0.00  0.00    +0.000 A 
ATOM     25  C   UNL     1       1.681   3.893  17.902  0.00  0.00    +0.000 A 
ATOM     26  C   UNL     1       2.007   5.154  18.409  0.00  0.00    +0.000 A 
ENDBRANCH  20  21
ENDBRANCH  18  19
ENDBRANCH   8  18
TORSDOF 6
ENDMDL
MODEL 7
REMARK VINA RESULT:      -7.2      5.431     10.422
REMARK  Name = 
REMARK  6 active torsions:
REMARK  status: ('A' for Active; 'I' for Inactive)
REMARK    1  A    between atoms: N_5  and  C_6
REMARK    2  A    between atoms: C_6  and  C_7
REMARK    3  A    between atoms: C_8  and  C_9
REMARK    4  A    between atoms: N_17  and  C_18
REMARK    5  A    between atoms: C_18  and  C_19
REMARK    6  A    between atoms: C_20  and  C_21
REMARK                            x       y       z     vdW  Elec       q    Type
REMARK                         _______ _______ _______ _____ _____    ______ ____
ROOT
ATOM      1  O   UNL     1       8.387   6.037  19.262  0.00  0.00    +0.000 OA
ATOM      2  C   UNL     1       7.240   5.926  18.834  0.00  0.00    +0.000 A 
ATOM      3  C   UNL     1       6.261   5.233  19.674  0.00  0.00    +0.000 A 
ATOM      4  C   UNL     1       5.004   5.125  19.260  0.00  0.00    +0.000 A 
ATOM      5  N   UNL     1       4.579   5.581  18.028  0.00  0.00    +0.000 N 
ATOM      6  C   UNL     1       5.471   6.203  17.117  0.00  0.00    +0.000 A 
ATOM      7  S   UNL     1       5.013   6.629  15.541  0.00  0.00    +0.000 S 
ATOM      8  N   UNL     1       6.769   6.448  17.634  0.00  0.00    +0.000 N 
ENDROOT
BRANCH   5   9
ATOM      9  C   UNL     1       3.119   5.506  17.788  0.00  0.00    +0.000 C 
BRANCH   9  10
ATOM     10  C   UNL     1       2.329   6.655  18.339  0.00  0.00    +0.000 C 
ATOM     11  C   UNL     1       2.406   7.965  18.066  0.00  0.00    +0.000 C 
BRANCH  11  12
ATOM     12  C   UNL     1       1.644   8.897  18.911  0.00  0.00    +0.000 A 
ATOM     13  C   UNL     1       1.305  10.147  18.380  0.00  0.00    +0.000 A 
ATOM     14  C   UNL     1       0.700  11.116  19.180  0.00  0.00    +0.000 A 
ATOM     15  C   UNL     1       0.424  10.841  20.518  0.00  0.00    +0.000 A 
ATOM     16  C   UNL     1       0.745   9.591  21.051  0.00  0.00    +0.000 A 
ATOM     17  C   UNL     1       1.356   8.620  20.251  0.00  0.00    +0.000 A 
ENDBRANCH  11  12
ENDBRANCH   9  10
ENDBRANCH   5   9
BRANCH   8  18
ATOM     18  C   UNL     1       7.672   7.426  17.018  0.00  0.00    +0.000 C 
BRANCH  18  19
ATOM     19  C   UNL     1       8.215   8.419  18.000  0.00  0.00    +0.000 C 
ATOM     20  C   UNL     1       8.440   9.713  17.717  0.00  0.00    +0.000 C 
BRANCH  20  21
ATOM     21  C   UNL     1       9.198  10.545  18.647  0.00  0.00    +0.000 A 
ATOM     22  C   UNL     1      10.191  11.396  18.147  0.00  0.00    +0.000 A 
ATOM     23  C   UNL     1      10.996  12.127  19.020  0.00  0.00    +0.000 A 
ATOM     24  C   UNL     1      10.807  12.017  20.396  0.00  0.00    +0.000 A 
ATOM     25  C   UNL     1       9.804  11.187  20.901  0.00  0.00    +0.000 A 
ATOM     26  C   UNL     1       9.001  10.449  20.028  0.00  0.00    +0.000 A 
ENDBRANCH  20  21
ENDBRANCH  18  19
ENDBRANCH   8  18
TORSDOF 6
ENDMDL
MODEL 8
REMARK VINA RESULT:      -7.2      2.285      3.152
REMARK  Name = 
REMARK  6 active torsions:
REMARK  status: ('A' for Active; 'I' for Inactive)
REMARK    1  A    between atoms: N_5  and  C_6
REMARK    2  A    between atoms: C_6  and  C_7
REMARK    3  A    between atoms: C_8  and  C_9
REMARK    4  A    between atoms: N_17  and  C_18
REMARK    5  A    between atoms: C_18  and  C_19
REMARK    6  A    between atoms: C_20  and  C_21
REMARK                            x       y       z     vdW  Elec       q    Type
REMARK                         _______ _______ _______ _____ _____    ______ ____
ROOT
ATOM      1  O   UNL     1      -0.177  10.234  22.629  0.00  0.00    +0.000 OA
ATOM      2  C   UNL     1       0.440   9.842  21.641  0.00  0.00    +0.000 A 
ATOM      3  C   UNL     1       0.905   8.454  21.632  0.00  0.00    +0.000 A 
ATOM      4  C   UNL     1       1.544   7.983  20.566  0.00  0.00    +0.000 A 
ATOM      5  N   UNL     1       1.856   8.768  19.474  0.00  0.00    +0.000 N 
ATOM      6  C   UNL     1       1.508  10.143  19.421  0.00  0.00    +0.000 A 
ATOM      7  S   UNL     1       2.016  11.164  18.166  0.00  0.00    +0.000 S 
ATOM      8  N   UNL     1       0.696  10.588  20.495  0.00  0.00    +0.000 N 
ENDROOT
BRANCH   5   9
ATOM      9  C   UNL     1       2.443   8.050  18.318  0.00  0.00    +0.000 C 
BRANCH   9  10
ATOM     10  C   UNL     1       2.471   6.557  18.451  0.00  0.00    +0.000 C 
ATOM     11  C   UNL     1       1.874   5.613  17.709  0.00  0.00    +0.000 C 
BRANCH  11  12
ATOM     12  C   UNL     1       1.908   4.224  18.193  0.00  0.00    +0.000 A 
ATOM     13  C   UNL     1       1.317   3.939  19.430  0.00  0.00    +0.000 A 
ATOM     14  C   UNL     1       1.436   2.670  19.995  0.00  0.00    +0.000 A 
ATOM     15  C   UNL     1       2.142   1.673  19.326  0.00  0.00    +0.000 A 
ATOM     16  C   UNL     1       2.721   1.945  18.085  0.00  0.00    +0.000 A 
ATOM     17  C   UNL     1       2.606   3.218  17.518  0.00  0.00    +0.000 A 
ENDBRANCH  11  12
ENDBRANCH   9  10
ENDBRANCH   5   9
BRANCH   8  18
ATOM     18  C   UNL     1      -0.092  11.823  20.404  0.00  0.00    +0.000 C 
BRANCH  18  19
ATOM     19  C   UNL     1      -1.030  11.833  19.235  0.00  0.00    +0.000 C 
ATOM     20  C   UNL     1      -1.912  10.855  18.970  0.00  0.00    +0.000 C 
BRANCH  20  21
ATOM     21  C   UNL     1      -2.606  10.825  17.686  0.00  0.00    +0.000 A 
ATOM     22  C   UNL     1      -3.865  11.429  17.577  0.00  0.00    +0.000 A 
ATOM     23  C   UNL     1      -4.593  11.329  16.391  0.00  0.00    +0.000 A 
ATOM     24  C   UNL     1      -4.062  10.632  15.307  0.00  0.00    +0.000 A 
ATOM     25  C   UNL     1      -2.799  10.046  15.402  0.00  0.00    +0.000 A 
ATOM     26  C   UNL     1      -2.071  10.140  16.591  0.00  0.00    +0.000 A 
ENDBRANCH  20  21
ENDBRANCH  18  19
ENDBRANCH   8  18
TORSDOF 6
ENDMDL
MODEL 9
REMARK VINA RESULT:      -7.0      1.176      1.678
REMARK  Name = 
REMARK  6 active torsions:
REMARK  status: ('A' for Active; 'I' for Inactive)
REMARK    1  A    between atoms: N_5  and  C_6
REMARK    2  A    between atoms: C_6  and  C_7
REMARK    3  A    between atoms: C_8  and  C_9
REMARK    4  A    between atoms: N_17  and  C_18
REMARK    5  A    between atoms: C_18  and  C_19
REMARK    6  A    between atoms: C_20  and  C_21
REMARK                            x       y       z     vdW  Elec       q    Type
REMARK                         _______ _______ _______ _____ _____    ______ ____
ROOT
ATOM      1  O   UNL     1      -0.076  10.228  23.465  0.00  0.00    +0.000 OA
ATOM      2  C   UNL     1       0.278  10.102  22.294  0.00  0.00    +0.000 A 
ATOM      3  C   UNL     1       0.674   8.769  21.839  0.00  0.00    +0.000 A 
ATOM      4  C   UNL     1       1.027   8.587  20.571  0.00  0.00    +0.000 A 
ATOM      5  N   UNL     1       1.107   9.623  19.661  0.00  0.00    +0.000 N 
ATOM      6  C   UNL     1       0.809  10.960  20.028  0.00  0.00    +0.000 A 
ATOM      7  S   UNL     1       1.048  12.268  18.976  0.00  0.00    +0.000 S 
ATOM      8  N   UNL     1       0.287  11.112  21.338  0.00  0.00    +0.000 N 
ENDROOT
BRANCH   5   9
ATOM      9  C   UNL     1       1.379   9.221  18.261  0.00  0.00    +0.000 C 
BRANCH   9  10
ATOM     10  C   UNL     1       2.582   8.347  18.077  0.00  0.00    +0.000 C 
ATOM     11  C   UNL     1       2.673   7.012  17.991  0.00  0.00    +0.000 C 
BRANCH  11  12
ATOM     12  C   UNL     1       4.012   6.403  18.018  0.00  0.00    +0.000 A 
ATOM     13  C   UNL     1       4.892   6.692  16.968  0.00  0.00    +0.000 A 
ATOM     14  C   UNL     1       6.121   6.040  16.875  0.00  0.00    +0.000 A 
ATOM     15  C   UNL     1       6.484   5.099  17.836  0.00  0.00    +0.000 A 
ATOM     16  C   UNL     1       5.619   4.817  18.895  0.00  0.00    +0.000 A 
ATOM     17  C   UNL     1       4.384   5.466  18.987  0.00  0.00    +0.000 A 
ENDBRANCH  11  12
ENDBRANCH   9  10
ENDBRANCH   5   9
BRANCH   8  18
ATOM     18  C   UNL     1      -0.451  12.315  21.738  0.00  0.00    +0.000 C 
BRANCH  18  19
ATOM     19  C   UNL     1      -1.879  12.303  21.282  0.00  0.00    +0.000 C 
ATOM     20  C   UNL     1      -2.841  13.085  21.799  0.00  0.00    +0.000 C 
BRANCH  20  21
ATOM     21  C   UNL     1      -4.242  12.833  21.471  0.00  0.00    +0.000 A 
ATOM     22  C   UNL     1      -4.594  12.569  20.142  0.00  0.00    +0.000 A 
ATOM     23  C   UNL     1      -5.935  12.424  19.785  0.00  0.00    +0.000 A 
ATOM     24  C   UNL     1      -6.928  12.534  20.757  0.00  0.00    +0.000 A 
ATOM     25  C   UNL     1      -6.582  12.776  22.087  0.00  0.00    +0.000 A 
ATOM     26  C   UNL     1      -5.240  12.927  22.445  0.00  0.00    +0.000 A 
ENDBRANCH  20  21
ENDBRANCH  18  19
ENDBRANCH   8  18
TORSDOF 6
ENDMDL
