MODEL 1
REMARK VINA RESULT:      -7.1      0.000      0.000
REMARK  Name = 
REMARK  7 active torsions:
REMARK  status: ('A' for Active; 'I' for Inactive)
REMARK    1  A    between atoms: C_1  and  S_2
REMARK    2  A    between atoms: S_2  and  C_3
REMARK    3  A    between atoms: C_7  and  N_8
REMARK    4  A    between atoms: N_8  and  C_9
REMARK    5  A    between atoms: C_9  and  N_11
REMARK    6  A    between atoms: N_15  and  C_16
REMARK    7  A    between atoms: C_16  and  C_17
REMARK                            x       y       z     vdW  Elec       q    Type
REMARK                         _______ _______ _______ _____ _____    ______ ____
ROOT
ATOM      1  N   UNL     1       6.690   5.785  17.229  0.00  0.00    +0.000 N 
ATOM      2  C   UNL     1       6.763   5.199  15.883  0.00  0.00    +0.000 C 
ATOM      3  C   UNL     1       5.452   5.399  15.127  0.00  0.00    +0.000 C 
ATOM      4  C   UNL     1       4.974   6.844  15.242  0.00  0.00    +0.000 C 
ATOM      5  N   UNL     1       4.946   7.337  16.622  0.00  0.00    +0.000 NA
ATOM      6  C   UNL     1       6.277   7.194  17.228  0.00  0.00    +0.000 C 
ENDROOT
BRANCH   1   7
ATOM      7  C   UNL     1       6.863   5.037  18.413  0.00  0.00    +0.000 C 
ATOM      8  S   UNL     1       7.869   5.494  19.689  0.00  0.00    +0.000 S 
BRANCH   7   9
ATOM      9  N   UNL     1       6.185   3.822  18.401  0.00  0.00    +0.000 N 
ATOM     10  H   UNL     1       6.747   3.048  18.735  0.00  0.00    +0.000 HD
BRANCH   9  15
ATOM     11  C   UNL     1       2.695   3.719  19.684  0.00  0.00    +0.000 A 
ATOM     12  C   UNL     1       2.016   3.185  18.583  0.00  0.00    +0.000 A 
ATOM     13  C   UNL     1       2.716   2.863  17.420  0.00  0.00    +0.000 A 
ATOM     14  C   UNL     1       4.092   3.085  17.348  0.00  0.00    +0.000 A 
ATOM     15  C   UNL     1       4.783   3.619  18.438  0.00  0.00    +0.000 A 
ATOM     16  C   UNL     1       4.083   3.901  19.616  0.00  0.00    +0.000 A 
BRANCH  11  18
ATOM     17  C   UNL     1       1.461   2.475  21.831  0.00  0.00    +0.000 C 
ATOM     18  S   UNL     1       1.833   4.135  21.193  0.00  0.00    +0.000 S 
ENDBRANCH  11  18
ENDBRANCH   9  15
ENDBRANCH   7   9
ENDBRANCH   1   7
BRANCH   5  19
ATOM     19  C   UNL     1       3.936   6.699  17.483  0.00  0.00    +0.000 C 
BRANCH  19  20
ATOM     20  C   UNL     1       2.889   7.613  18.084  0.00  0.00    +0.000 A 
ATOM     21  C   UNL     1       2.444   8.760  17.410  0.00  0.00    +0.000 A 
ATOM     22  C   UNL     1       1.570   9.653  18.034  0.00  0.00    +0.000 A 
ATOM     23  C   UNL     1       1.130   9.409  19.336  0.00  0.00    +0.000 A 
ATOM     24  C   UNL     1       1.558   8.268  20.007  0.00  0.00    +0.000 A 
ATOM     25 CL   UNL     1       1.035   7.972  21.619  0.00  0.00    +0.000 Cl
ATOM     26  C   UNL     1       2.431   7.373  19.390  0.00  0.00    +0.000 A 
ENDBRANCH  19  20
ENDBRANCH   5  19
TORSDOF 6
ENDMDL
MODEL 2
REMARK VINA RESULT:      -7.0      3.453      6.341
REMARK  Name = 
REMARK  7 active torsions:
REMARK  status: ('A' for Active; 'I' for Inactive)
REMARK    1  A    between atoms: C_1  and  S_2
REMARK    2  A    between atoms: S_2  and  C_3
REMARK    3  A    between atoms: C_7  and  N_8
REMARK    4  A    between atoms: N_8  and  C_9
REMARK    5  A    between atoms: C_9  and  N_11
REMARK    6  A    between atoms: N_15  and  C_16
REMARK    7  A    between atoms: C_16  and  C_17
REMARK                            x       y       z     vdW  Elec       q    Type
REMARK                         _______ _______ _______ _____ _____    ______ ____
ROOT
ATOM      1  N   UNL     1       4.934   5.937  18.448  0.00  0.00    +0.000 N 
ATOM      2  C   UNL     1       6.031   5.373  19.248  0.00  0.00    +0.000 C 
ATOM      3  C   UNL     1       7.091   4.739  18.351  0.00  0.00    +0.000 C 
ATOM      4  C   UNL     1       7.464   5.675  17.205  0.00  0.00    +0.000 C 
ATOM      5  N   UNL     1       6.302   6.191  16.478  0.00  0.00    +0.000 NA
ATOM      6  C   UNL     1       5.392   6.870  17.411  0.00  0.00    +0.000 C 
ENDROOT
BRANCH   1   7
ATOM      7  C   UNL     1       3.590   5.523  18.570  0.00  0.00    +0.000 C 
ATOM      8  S   UNL     1       2.884   4.300  17.644  0.00  0.00    +0.000 S 
BRANCH   7   9
ATOM      9  N   UNL     1       2.859   6.283  19.478  0.00  0.00    +0.000 N 
ATOM     10  H   UNL     1       3.093   6.083  20.443  0.00  0.00    +0.000 HD
BRANCH   9  15
ATOM     11  C   UNL     1       0.992   9.436  20.121  0.00  0.00    +0.000 A 
ATOM     12  C   UNL     1       0.932   9.984  18.835  0.00  0.00    +0.000 A 
ATOM     13  C   UNL     1       1.512   9.308  17.760  0.00  0.00    +0.000 A 
ATOM     14  C   UNL     1       2.163   8.092  17.969  0.00  0.00    +0.000 A 
ATOM     15  C   UNL     1       2.233   7.532  19.247  0.00  0.00    +0.000 A 
ATOM     16  C   UNL     1       1.614   8.194  20.314  0.00  0.00    +0.000 A 
BRANCH  11  18
ATOM     17  C   UNL     1      -0.385   8.846  22.452  0.00  0.00    +0.000 C 
ATOM     18  S   UNL     1       0.253  10.268  21.519  0.00  0.00    +0.000 S 
ENDBRANCH  11  18
ENDBRANCH   9  15
ENDBRANCH   7   9
ENDBRANCH   1   7
BRANCH   5  19
ATOM     19  C   UNL     1       5.559   5.180  15.706  0.00  0.00    +0.000 C 
BRANCH  19  20
ATOM     20  C   UNL     1       6.188   4.730  14.403  0.00  0.00    +0.000 A 
ATOM     21  C   UNL     1       7.322   5.367  13.880  0.00  0.00    +0.000 A 
ATOM     22  C   UNL     1       7.812   5.017  12.620  0.00  0.00    +0.000 A 
ATOM     23  C   UNL     1       7.176   4.026  11.871  0.00  0.00    +0.000 A 
ATOM     24  C   UNL     1       6.056   3.382  12.389  0.00  0.00    +0.000 A 
ATOM     25 CL   UNL     1       5.255   2.173  11.462  0.00  0.00    +0.000 Cl
ATOM     26  C   UNL     1       5.562   3.728  13.645  0.00  0.00    +0.000 A 
ENDBRANCH  19  20
ENDBRANCH   5  19
TORSDOF 6
ENDMDL
MODEL 3
REMARK VINA RESULT:      -6.7      3.377      6.853
REMARK  Name = 
REMARK  7 active torsions:
REMARK  status: ('A' for Active; 'I' for Inactive)
REMARK    1  A    between atoms: C_1  and  S_2
REMARK    2  A    between atoms: S_2  and  C_3
REMARK    3  A    between atoms: C_7  and  N_8
REMARK    4  A    between atoms: N_8  and  C_9
REMARK    5  A    between atoms: C_9  and  N_11
REMARK    6  A    between atoms: N_15  and  C_16
REMARK    7  A    between atoms: C_16  and  C_17
REMARK                            x       y       z     vdW  Elec       q    Type
REMARK                         _______ _______ _______ _____ _____    ______ ____
ROOT
ATOM      1  N   UNL     1       2.233   5.585  20.205  0.00  0.00    +0.000 N 
ATOM      2  C   UNL     1       1.075   4.725  20.487  0.00  0.00    +0.000 C 
ATOM      3  C   UNL     1       0.960   3.607  19.453  0.00  0.00    +0.000 C 
ATOM      4  C   UNL     1       2.307   2.925  19.237  0.00  0.00    +0.000 C 
ATOM      5  N   UNL     1       3.397   3.869  18.973  0.00  0.00    +0.000 NA
ATOM      6  C   UNL     1       3.491   4.840  20.071  0.00  0.00    +0.000 C 
ENDROOT
BRANCH   1   7
ATOM      7  C   UNL     1       2.129   6.969  19.950  0.00  0.00    +0.000 C 
ATOM      8  S   UNL     1       2.291   7.670  18.423  0.00  0.00    +0.000 S 
BRANCH   7   9
ATOM      9  N   UNL     1       1.962   7.731  21.103  0.00  0.00    +0.000 N 
ATOM     10  H   UNL     1       2.786   7.746  21.692  0.00  0.00    +0.000 HD
BRANCH   9  15
ATOM     11  C   UNL     1      -0.071  10.778  20.457  0.00  0.00    +0.000 A 
ATOM     12  C   UNL     1      -0.725  10.934  21.683  0.00  0.00    +0.000 A 
ATOM     13  C   UNL     1      -0.492  10.028  22.719  0.00  0.00    +0.000 A 
ATOM     14  C   UNL     1       0.384   8.959  22.529  0.00  0.00    +0.000 A 
ATOM     15  C   UNL     1       1.043   8.789  21.309  0.00  0.00    +0.000 A 
ATOM     16  C   UNL     1       0.838   9.724  20.288  0.00  0.00    +0.000 A 
BRANCH  11  18
ATOM     17  C   UNL     1       1.373  12.412  18.746  0.00  0.00    +0.000 C 
ATOM     18  S   UNL     1      -0.338  11.923  19.111  0.00  0.00    +0.000 S 
ENDBRANCH  11  18
ENDBRANCH   9  15
ENDBRANCH   7   9
ENDBRANCH   1   7
BRANCH   5  19
ATOM     19  C   UNL     1       3.298   4.580  17.687  0.00  0.00    +0.000 C 
BRANCH  19  20
ATOM     20  C   UNL     1       4.602   4.855  16.967  0.00  0.00    +0.000 A 
ATOM     21  C   UNL     1       5.071   4.008  15.953  0.00  0.00    +0.000 A 
ATOM     22  C   UNL     1       6.332   4.212  15.387  0.00  0.00    +0.000 A 
ATOM     23  C   UNL     1       7.136   5.265  15.827  0.00  0.00    +0.000 A 
ATOM     24  C   UNL     1       6.672   6.116  16.826  0.00  0.00    +0.000 A 
ATOM     25 CL   UNL     1       7.667   7.404  17.387  0.00  0.00    +0.000 Cl
ATOM     26  C   UNL     1       5.415   5.917  17.394  0.00  0.00    +0.000 A 
ENDBRANCH  19  20
ENDBRANCH   5  19
TORSDOF 6
ENDMDL
MODEL 4
REMARK VINA RESULT:      -6.7      3.524      6.389
REMARK  Name = 
REMARK  7 active torsions:
REMARK  status: ('A' for Active; 'I' for Inactive)
REMARK    1  A    between atoms: C_1  and  S_2
REMARK    2  A    between atoms: S_2  and  C_3
REMARK    3  A    between atoms: C_7  and  N_8
REMARK    4  A    between atoms: N_8  and  C_9
REMARK    5  A    between atoms: C_9  and  N_11
REMARK    6  A    between atoms: N_15  and  C_16
REMARK    7  A    between atoms: C_16  and  C_17
REMARK                            x       y       z     vdW  Elec       q    Type
REMARK                         _______ _______ _______ _____ _____    ______ ____
ROOT
ATOM      1  N   UNL     1       4.851   5.616  18.042  0.00  0.00    +0.000 N 
ATOM      2  C   UNL     1       5.713   5.762  19.224  0.00  0.00    +0.000 C 
ATOM      3  C   UNL     1       7.171   5.470  18.877  0.00  0.00    +0.000 C 
ATOM      4  C   UNL     1       7.586   6.207  17.608  0.00  0.00    +0.000 C 
ATOM      5  N   UNL     1       6.657   6.006  16.492  0.00  0.00    +0.000 NA
ATOM      6  C   UNL     1       5.303   6.410  16.892  0.00  0.00    +0.000 C 
ENDROOT
BRANCH   1   7
ATOM      7  C   UNL     1       3.778   4.702  17.971  0.00  0.00    +0.000 C 
ATOM      8  S   UNL     1       3.960   3.038  17.752  0.00  0.00    +0.000 S 
BRANCH   7   9
ATOM      9  N   UNL     1       2.529   5.314  18.012  0.00  0.00    +0.000 N 
ATOM     10  H   UNL     1       1.779   4.709  17.700  0.00  0.00    +0.000 HD
BRANCH   9  15
ATOM     11  C   UNL     1       1.687   8.796  19.014  0.00  0.00    +0.000 A 
ATOM     12  C   UNL     1       1.412   8.628  20.376  0.00  0.00    +0.000 A 
ATOM     13  C   UNL     1       1.505   7.363  20.956  0.00  0.00    +0.000 A 
ATOM     14  C   UNL     1       1.859   6.261  20.177  0.00  0.00    +0.000 A 
ATOM     15  C   UNL     1       2.135   6.411  18.816  0.00  0.00    +0.000 A 
ATOM     16  C   UNL     1       2.081   7.689  18.248  0.00  0.00    +0.000 A 
BRANCH  11  18
ATOM     17  C   UNL     1       0.802  11.364  19.564  0.00  0.00    +0.000 C 
ATOM     18  S   UNL     1       1.588  10.403  18.238  0.00  0.00    +0.000 S 
ENDBRANCH  11  18
ENDBRANCH   9  15
ENDBRANCH   7   9
ENDBRANCH   1   7
BRANCH   5  19
ATOM     19  C   UNL     1       6.629   4.635  15.954  0.00  0.00    +0.000 C 
BRANCH  19  20
ATOM     20  C   UNL     1       6.859   4.490  14.464  0.00  0.00    +0.000 A 
ATOM     21  C   UNL     1       7.720   5.353  13.770  0.00  0.00    +0.000 A 
ATOM     22  C   UNL     1       7.824   5.280  12.379  0.00  0.00    +0.000 A 
ATOM     23  C   UNL     1       7.072   4.343  11.667  0.00  0.00    +0.000 A 
ATOM     24  C   UNL     1       6.224   3.476  12.351  0.00  0.00    +0.000 A 
ATOM     25 CL   UNL     1       5.279   2.333  11.479  0.00  0.00    +0.000 Cl
ATOM     26  C   UNL     1       6.115   3.545  13.739  0.00  0.00    +0.000 A 
ENDBRANCH  19  20
ENDBRANCH   5  19
TORSDOF 6
ENDMDL
MODEL 5
REMARK VINA RESULT:      -6.6      2.907      5.166
REMARK  Name = 
REMARK  7 active torsions:
REMARK  status: ('A' for Active; 'I' for Inactive)
REMARK    1  A    between atoms: C_1  and  S_2
REMARK    2  A    between atoms: S_2  and  C_3
REMARK    3  A    between atoms: C_7  and  N_8
REMARK    4  A    between atoms: N_8  and  C_9
REMARK    5  A    between atoms: C_9  and  N_11
REMARK    6  A    between atoms: N_15  and  C_16
REMARK    7  A    between atoms: C_16  and  C_17
REMARK                            x       y       z     vdW  Elec       q    Type
REMARK                         _______ _______ _______ _____ _____    ______ ____
ROOT
ATOM      1  N   UNL     1       4.166   4.312  17.421  0.00  0.00    +0.000 N 
ATOM      2  C   UNL     1       4.547   3.108  18.175  0.00  0.00    +0.000 C 
ATOM      3  C   UNL     1       4.121   3.221  19.637  0.00  0.00    +0.000 C 
ATOM      4  C   UNL     1       2.675   3.693  19.747  0.00  0.00    +0.000 C 
ATOM      5  N   UNL     1       2.395   4.892  18.952  0.00  0.00    +0.000 NA
ATOM      6  C   UNL     1       2.743   4.649  17.546  0.00  0.00    +0.000 C 
ENDROOT
BRANCH   1   7
ATOM      7  C   UNL     1       5.097   5.140  16.758  0.00  0.00    +0.000 C 
ATOM      8  S   UNL     1       4.934   6.812  16.595  0.00  0.00    +0.000 S 
BRANCH   7   9
ATOM      9  N   UNL     1       6.139   4.434  16.165  0.00  0.00    +0.000 N 
ATOM     10  H   UNL     1       6.414   3.614  16.691  0.00  0.00    +0.000 HD
BRANCH   9  15
ATOM     11  C   UNL     1       6.242   3.506  12.564  0.00  0.00    +0.000 A 
ATOM     12  C   UNL     1       7.245   4.359  12.091  0.00  0.00    +0.000 A 
ATOM     13  C   UNL     1       7.882   5.240  12.967  0.00  0.00    +0.000 A 
ATOM     14  C   UNL     1       7.510   5.280  14.311  0.00  0.00    +0.000 A 
ATOM     15  C   UNL     1       6.510   4.436  14.798  0.00  0.00    +0.000 A 
ATOM     16  C   UNL     1       5.904   3.525  13.924  0.00  0.00    +0.000 A 
BRANCH  11  18
ATOM     17  C   UNL     1       3.884   3.278  11.127  0.00  0.00    +0.000 C 
ATOM     18  S   UNL     1       5.411   2.358  11.475  0.00  0.00    +0.000 S 
ENDBRANCH  11  18
ENDBRANCH   9  15
ENDBRANCH   7   9
ENDBRANCH   1   7
BRANCH   5  19
ATOM     19  C   UNL     1       3.065   6.115  19.426  0.00  0.00    +0.000 C 
BRANCH  19  20
ATOM     20  C   UNL     1       2.204   7.357  19.532  0.00  0.00    +0.000 A 
ATOM     21  C   UNL     1       2.100   8.268  18.471  0.00  0.00    +0.000 A 
ATOM     22  C   UNL     1       1.399   9.466  18.634  0.00  0.00    +0.000 A 
ATOM     23  C   UNL     1       0.796   9.765  19.856  0.00  0.00    +0.000 A 
ATOM     24  C   UNL     1       0.886   8.860  20.910  0.00  0.00    +0.000 A 
ATOM     25 CL   UNL     1       0.162   9.233  22.426  0.00  0.00    +0.000 Cl
ATOM     26  C   UNL     1       1.584   7.664  20.755  0.00  0.00    +0.000 A 
ENDBRANCH  19  20
ENDBRANCH   5  19
TORSDOF 6
ENDMDL
MODEL 6
REMARK VINA RESULT:      -6.5      3.424      6.784
REMARK  Name = 
REMARK  7 active torsions:
REMARK  status: ('A' for Active; 'I' for Inactive)
REMARK    1  A    between atoms: C_1  and  S_2
REMARK    2  A    between atoms: S_2  and  C_3
REMARK    3  A    between atoms: C_7  and  N_8
REMARK    4  A    between atoms: N_8  and  C_9
REMARK    5  A    between atoms: C_9  and  N_11
REMARK    6  A    between atoms: N_15  and  C_16
REMARK    7  A    between atoms: C_16  and  C_17
REMARK                            x       y       z     vdW  Elec       q    Type
REMARK                         _______ _______ _______ _____ _____    ______ ____
ROOT
ATOM      1  N   UNL     1       2.396   5.009  19.897  0.00  0.00    +0.000 N 
ATOM      2  C   UNL     1       1.129   4.318  20.176  0.00  0.00    +0.000 C 
ATOM      3  C   UNL     1       0.940   3.123  19.244  0.00  0.00    +0.000 C 
ATOM      4  C   UNL     1       2.207   2.274  19.187  0.00  0.00    +0.000 C 
ATOM      5  N   UNL     1       3.416   3.056  18.913  0.00  0.00    +0.000 NA
ATOM      6  C   UNL     1       3.562   4.115  19.921  0.00  0.00    +0.000 C 
ENDROOT
BRANCH   1   7
ATOM      7  C   UNL     1       2.475   6.363  19.509  0.00  0.00    +0.000 C 
ATOM      8  S   UNL     1       2.940   6.887  17.973  0.00  0.00    +0.000 S 
BRANCH   7   9
ATOM      9  N   UNL     1       2.212   7.251  20.548  0.00  0.00    +0.000 N 
ATOM     10  H   UNL     1       2.925   7.244  21.267  0.00  0.00    +0.000 HD
BRANCH   9  15
ATOM     11  C   UNL     1      -0.111   9.940  21.645  0.00  0.00    +0.000 A 
ATOM     12  C   UNL     1      -0.269  10.665  20.459  0.00  0.00    +0.000 A 
ATOM     13  C   UNL     1       0.397  10.262  19.301  0.00  0.00    +0.000 A 
ATOM     14  C   UNL     1       1.230   9.142  19.327  0.00  0.00    +0.000 A 
ATOM     15  C   UNL     1       1.399   8.409  20.504  0.00  0.00    +0.000 A 
ATOM     16  C   UNL     1       0.696   8.794  21.652  0.00  0.00    +0.000 A 
BRANCH  11  18
ATOM     17  C   UNL     1      -1.619  12.038  22.649  0.00  0.00    +0.000 C 
ATOM     18  S   UNL     1      -0.955  10.422  23.145  0.00  0.00    +0.000 S 
ENDBRANCH  11  18
ENDBRANCH   9  15
ENDBRANCH   7   9
ENDBRANCH   1   7
BRANCH   5  19
ATOM     19  C   UNL     1       3.479   3.642  17.563  0.00  0.00    +0.000 C 
BRANCH  19  20
ATOM     20  C   UNL     1       4.861   3.946  17.025  0.00  0.00    +0.000 A 
ATOM     21  C   UNL     1       5.877   4.441  17.854  0.00  0.00    +0.000 A 
ATOM     22  C   UNL     1       7.105   4.830  17.314  0.00  0.00    +0.000 A 
ATOM     23  C   UNL     1       7.331   4.727  15.941  0.00  0.00    +0.000 A 
ATOM     24  C   UNL     1       6.331   4.226  15.112  0.00  0.00    +0.000 A 
ATOM     25 CL   UNL     1       6.597   4.114  13.416  0.00  0.00    +0.000 Cl
ATOM     26  C   UNL     1       5.103   3.837  15.646  0.00  0.00    +0.000 A 
ENDBRANCH  19  20
ENDBRANCH   5  19
TORSDOF 6
ENDMDL
MODEL 7
REMARK VINA RESULT:      -6.5      0.988      1.377
REMARK  Name = 
REMARK  7 active torsions:
REMARK  status: ('A' for Active; 'I' for Inactive)
REMARK    1  A    between atoms: C_1  and  S_2
REMARK    2  A    between atoms: S_2  and  C_3
REMARK    3  A    between atoms: C_7  and  N_8
REMARK    4  A    between atoms: N_8  and  C_9
REMARK    5  A    between atoms: C_9  and  N_11
REMARK    6  A    between atoms: N_15  and  C_16
REMARK    7  A    between atoms: C_16  and  C_17
REMARK                            x       y       z     vdW  Elec       q    Type
REMARK                         _______ _______ _______ _____ _____    ______ ____
ROOT
ATOM      1  N   UNL     1       6.564   5.745  17.299  0.00  0.00    +0.000 N 
ATOM      2  C   UNL     1       6.769   5.177  15.959  0.00  0.00    +0.000 C 
ATOM      3  C   UNL     1       5.515   5.331  15.102  0.00  0.00    +0.000 C 
ATOM      4  C   UNL     1       4.969   6.753  15.188  0.00  0.00    +0.000 C 
ATOM      5  N   UNL     1       4.810   7.229  16.565  0.00  0.00    +0.000 NA
ATOM      6  C   UNL     1       6.092   7.136  17.275  0.00  0.00    +0.000 C 
ENDROOT
BRANCH   1   7
ATOM      7  C   UNL     1       6.673   4.992  18.488  0.00  0.00    +0.000 C 
ATOM      8  S   UNL     1       7.589   5.456  19.828  0.00  0.00    +0.000 S 
BRANCH   7   9
ATOM      9  N   UNL     1       6.016   3.767  18.426  0.00  0.00    +0.000 N 
ATOM     10  H   UNL     1       6.568   3.000  18.789  0.00  0.00    +0.000 HD
BRANCH   9  15
ATOM     11  C   UNL     1       2.466   3.533  19.512  0.00  0.00    +0.000 A 
ATOM     12  C   UNL     1       1.854   3.062  18.345  0.00  0.00    +0.000 A 
ATOM     13  C   UNL     1       2.619   2.825  17.203  0.00  0.00    +0.000 A 
ATOM     14  C   UNL     1       3.993   3.070  17.218  0.00  0.00    +0.000 A 
ATOM     15  C   UNL     1       4.618   3.543  18.375  0.00  0.00    +0.000 A 
ATOM     16  C   UNL     1       3.852   3.738  19.530  0.00  0.00    +0.000 A 
BRANCH  11  18
ATOM     17  C   UNL     1       1.926   2.355  21.961  0.00  0.00    +0.000 C 
ATOM     18  S   UNL     1       1.519   3.839  20.997  0.00  0.00    +0.000 S 
ENDBRANCH  11  18
ENDBRANCH   9  15
ENDBRANCH   7   9
ENDBRANCH   1   7
BRANCH   5  19
ATOM     19  C   UNL     1       3.762   6.541  17.338  0.00  0.00    +0.000 C 
BRANCH  19  20
ATOM     20  C   UNL     1       2.936   7.403  18.270  0.00  0.00    +0.000 A 
ATOM     21  C   UNL     1       2.644   6.992  19.579  0.00  0.00    +0.000 A 
ATOM     22  C   UNL     1       1.781   7.744  20.380  0.00  0.00    +0.000 A 
ATOM     23  C   UNL     1       1.203   8.914  19.883  0.00  0.00    +0.000 A 
ATOM     24  C   UNL     1       1.498   9.333  18.589  0.00  0.00    +0.000 A 
ATOM     25 CL   UNL     1       0.774  10.763  17.963  0.00  0.00    +0.000 Cl
ATOM     26  C   UNL     1       2.358   8.586  17.784  0.00  0.00    +0.000 A 
ENDBRANCH  19  20
ENDBRANCH   5  19
TORSDOF 6
ENDMDL
MODEL 8
REMARK VINA RESULT:      -6.4      2.882      5.222
REMARK  Name = 
REMARK  7 active torsions:
REMARK  status: ('A' for Active; 'I' for Inactive)
REMARK    1  A    between atoms: C_1  and  S_2
REMARK    2  A    between atoms: S_2  and  C_3
REMARK    3  A    between atoms: C_7  and  N_8
REMARK    4  A    between atoms: N_8  and  C_9
REMARK    5  A    between atoms: C_9  and  N_11
REMARK    6  A    between atoms: N_15  and  C_16
REMARK    7  A    between atoms: C_16  and  C_17
REMARK                            x       y       z     vdW  Elec       q    Type
REMARK                         _______ _______ _______ _____ _____    ______ ____
ROOT
ATOM      1  N   UNL     1       4.103   3.835  17.540  0.00  0.00    +0.000 N 
ATOM      2  C   UNL     1       4.163   2.596  18.329  0.00  0.00    +0.000 C 
ATOM      3  C   UNL     1       3.485   2.778  19.685  0.00  0.00    +0.000 C 
ATOM      4  C   UNL     1       2.123   3.447  19.527  0.00  0.00    +0.000 C 
ATOM      5  N   UNL     1       2.168   4.667  18.717  0.00  0.00    +0.000 NA
ATOM      6  C   UNL     1       2.742   4.368  17.398  0.00  0.00    +0.000 C 
ENDROOT
BRANCH   1   7
ATOM      7  C   UNL     1       5.248   4.521  17.083  0.00  0.00    +0.000 C 
ATOM      8  S   UNL     1       6.653   4.739  17.993  0.00  0.00    +0.000 S 
BRANCH   7   9
ATOM      9  N   UNL     1       5.084   5.088  15.822  0.00  0.00    +0.000 N 
ATOM     10  H   UNL     1       4.665   6.010  15.852  0.00  0.00    +0.000 HD
BRANCH   9  15
ATOM     11  C   UNL     1       5.969   3.504  12.576  0.00  0.00    +0.000 A 
ATOM     12  C   UNL     1       7.210   4.094  12.313  0.00  0.00    +0.000 A 
ATOM     13  C   UNL     1       7.748   5.017  13.211  0.00  0.00    +0.000 A 
ATOM     14  C   UNL     1       7.043   5.361  14.366  0.00  0.00    +0.000 A 
ATOM     15  C   UNL     1       5.803   4.781  14.641  0.00  0.00    +0.000 A 
ATOM     16  C   UNL     1       5.287   3.825  13.758  0.00  0.00    +0.000 A 
BRANCH  11  18
ATOM     17  C   UNL     1       6.734   1.376  10.973  0.00  0.00    +0.000 C 
ATOM     18  S   UNL     1       5.253   2.311  11.453  0.00  0.00    +0.000 S 
ENDBRANCH  11  18
ENDBRANCH   9  15
ENDBRANCH   7   9
ENDBRANCH   1   7
BRANCH   5  19
ATOM     19  C   UNL     1       2.897   5.789  19.333  0.00  0.00    +0.000 C 
BRANCH  19  20
ATOM     20  C   UNL     1       2.279   7.163  19.174  0.00  0.00    +0.000 A 
ATOM     21  C   UNL     1       2.397   7.884  17.977  0.00  0.00    +0.000 A 
ATOM     22  C   UNL     1       1.926   9.197  17.893  0.00  0.00    +0.000 A 
ATOM     23  C   UNL     1       1.331   9.800  19.001  0.00  0.00    +0.000 A 
ATOM     24  C   UNL     1       1.200   9.086  20.189  0.00  0.00    +0.000 A 
ATOM     25 CL   UNL     1       0.484   9.832  21.565  0.00  0.00    +0.000 Cl
ATOM     26  C   UNL     1       1.669   7.777  20.279  0.00  0.00    +0.000 A 
ENDBRANCH  19  20
ENDBRANCH   5  19
TORSDOF 6
ENDMDL
MODEL 9
REMARK VINA RESULT:      -6.4      3.385      6.792
REMARK  Name = 
REMARK  7 active torsions:
REMARK  status: ('A' for Active; 'I' for Inactive)
REMARK    1  A    between atoms: C_1  and  S_2
REMARK    2  A    between atoms: S_2  and  C_3
REMARK    3  A    between atoms: C_7  and  N_8
REMARK    4  A    between atoms: N_8  and  C_9
REMARK    5  A    between atoms: C_9  and  N_11
REMARK    6  A    between atoms: N_15  and  C_16
REMARK    7  A    between atoms: C_16  and  C_17
REMARK                            x       y       z     vdW  Elec       q    Type
REMARK                         _______ _______ _______ _____ _____    ______ ____
ROOT
ATOM      1  N   UNL     1       2.357   5.703  20.093  0.00  0.00    +0.000 N 
ATOM      2  C   UNL     1       1.222   4.868  20.512  0.00  0.00    +0.000 C 
ATOM      3  C   UNL     1       1.098   3.630  19.628  0.00  0.00    +0.000 C 
ATOM      4  C   UNL     1       2.450   2.945  19.458  0.00  0.00    +0.000 C 
ATOM      5  N   UNL     1       3.517   3.863  19.049  0.00  0.00    +0.000 NA
ATOM      6  C   UNL     1       3.624   4.964  20.016  0.00  0.00    +0.000 C 
ENDROOT
BRANCH   1   7
ATOM      7  C   UNL     1       2.223   7.043  19.673  0.00  0.00    +0.000 C 
ATOM      8  S   UNL     1       2.615   7.599  18.127  0.00  0.00    +0.000 S 
BRANCH   7   9
ATOM      9  N   UNL     1       1.812   7.901  20.688  0.00  0.00    +0.000 N 
ATOM     10  H   UNL     1       2.442   7.909  21.481  0.00  0.00    +0.000 HD
BRANCH   9  15
ATOM     11  C   UNL     1      -0.562  10.608  21.623  0.00  0.00    +0.000 A 
ATOM     12  C   UNL     1      -0.775  11.223  20.385  0.00  0.00    +0.000 A 
ATOM     13  C   UNL     1      -0.131  10.740  19.245  0.00  0.00    +0.000 A 
ATOM     14  C   UNL     1       0.737   9.651  19.342  0.00  0.00    +0.000 A 
ATOM     15  C   UNL     1       0.962   9.028  20.571  0.00  0.00    +0.000 A 
ATOM     16  C   UNL     1       0.281   9.490  21.703  0.00  0.00    +0.000 A 
BRANCH  11  18
ATOM     17  C   UNL     1      -1.096  12.981  22.952  0.00  0.00    +0.000 C 
ATOM     18  S   UNL     1      -1.377  11.192  23.102  0.00  0.00    +0.000 S 
ENDBRANCH  11  18
ENDBRANCH   9  15
ENDBRANCH   7   9
ENDBRANCH   1   7
BRANCH   5  19
ATOM     19  C   UNL     1       3.371   4.408  17.688  0.00  0.00    +0.000 C 
BRANCH  19  20
ATOM     20  C   UNL     1       4.654   4.714  16.944  0.00  0.00    +0.000 A 
ATOM     21  C   UNL     1       5.127   3.874  15.925  0.00  0.00    +0.000 A 
ATOM     22  C   UNL     1       6.372   4.108  15.336  0.00  0.00    +0.000 A 
ATOM     23  C   UNL     1       7.156   5.183  15.758  0.00  0.00    +0.000 A 
ATOM     24  C   UNL     1       6.688   6.027  16.761  0.00  0.00    +0.000 A 
ATOM     25 CL   UNL     1       7.659   7.342  17.299  0.00  0.00    +0.000 Cl
ATOM     26  C   UNL     1       5.447   5.798  17.353  0.00  0.00    +0.000 A 
ENDBRANCH  19  20
ENDBRANCH   5  19
TORSDOF 6
ENDMDL
