MODEL 1
REMARK VINA RESULT:      -7.1      0.000      0.000
REMARK  Name = 
REMARK  5 active torsions:
REMARK  status: ('A' for Active; 'I' for Inactive)
REMARK    1  A    between atoms: C_1  and  C_2
REMARK    2  A    between atoms: C_6  and  C_7
REMARK    3  A    between atoms: N_9  and  C_10
REMARK    4  A    between atoms: N_9  and  C_23
REMARK    5  A    between atoms: C_10  and  C_11
REMARK                            x       y       z     vdW  Elec       q    Type
REMARK                         _______ _______ _______ _____ _____    ______ ____
ROOT
ATOM      1  C   UNL     1       0.113  13.667  20.912  0.00  0.00    +0.000 C 
ATOM      2  O   UNL     1       1.049  13.465  21.691  0.00  0.00    +0.000 OA
ATOM      3  N   UNL     1      -0.870  12.659  20.690  0.00  0.00    +0.000 N 
ENDROOT
BRANCH   3   4
ATOM      4  C   UNL     1      -0.602  11.355  21.276  0.00  0.00    +0.000 A 
ATOM      5  C   UNL     1      -0.920  11.133  22.632  0.00  0.00    +0.000 A 
ATOM      6  C   UNL     1      -0.691   9.890  23.233  0.00  0.00    +0.000 A 
ATOM      7  C   UNL     1      -0.118   8.853  22.506  0.00  0.00    +0.000 A 
ATOM      8  C   UNL     1       0.220   9.051  21.169  0.00  0.00    +0.000 A 
ATOM      9  C   UNL     1      -0.019  10.287  20.551  0.00  0.00    +0.000 A 
ATOM     10 CL   UNL     1       0.577  10.451  18.929  0.00  0.00    +0.000 Cl
ENDBRANCH   3   4
BRANCH   1  16
ATOM     11  C   UNL     1       1.921  14.496  18.405  0.00  0.00    +0.000 C 
ATOM     12  C   UNL     1       0.852  15.294  19.077  0.00  0.00    +0.000 A 
ATOM     13  N   UNL     1       0.526  16.523  18.512  0.00  0.00    +0.000 NA
ATOM     14  C   UNL     1      -0.523  17.023  19.114  0.00  0.00    +0.000 A 
ATOM     15  S   UNL     1      -1.151  16.106  20.411  0.00  0.00    +0.000 S 
ATOM     16  C   UNL     1       0.099  14.939  20.201  0.00  0.00    +0.000 A 
ENDBRANCH   1  16
BRANCH   3  17
ATOM     17  C   UNL     1      -1.996  12.742  19.715  0.00  0.00    +0.000 C 
BRANCH  17  18
ATOM     18  C   UNL     1      -3.376  12.780  20.358  0.00  0.00    +0.000 A 
ATOM     19  C   UNL     1      -3.596  13.289  21.585  0.00  0.00    +0.000 A 
ATOM     20  C   UNL     1      -4.857  13.096  22.331  0.00  0.00    +0.000 A 
ATOM     21  O   UNL     1      -4.992  13.534  23.467  0.00  0.00    +0.000 OA
ATOM     22  N   UNL     1      -5.821  12.368  21.705  0.00  0.00    +0.000 N 
ATOM     23  C   UNL     1      -5.719  11.939  20.376  0.00  0.00    +0.000 A 
ATOM     24  C   UNL     1      -6.812  11.303  19.787  0.00  0.00    +0.000 A 
ATOM     25  F   UNL     1      -7.904  11.028  20.519  0.00  0.00    +0.000 F 
ATOM     26  C   UNL     1      -6.788  10.953  18.446  0.00  0.00    +0.000 A 
ATOM     27  C   UNL     1      -5.669  11.279  17.680  0.00  0.00    +0.000 A 
ATOM     28  C   UNL     1      -4.557  11.897  18.273  0.00  0.00    +0.000 A 
ATOM     29  C   UNL     1      -4.545  12.194  19.645  0.00  0.00    +0.000 A 
ATOM     30  H   UNL     1      -6.681  12.209  22.217  0.00  0.00    +0.000 HD
ENDBRANCH  17  18
ENDBRANCH   3  17
TORSDOF 4
ENDMDL
MODEL 2
REMARK VINA RESULT:      -7.1      0.879      1.211
REMARK  Name = 
REMARK  5 active torsions:
REMARK  status: ('A' for Active; 'I' for Inactive)
REMARK    1  A    between atoms: C_1  and  C_2
REMARK    2  A    between atoms: C_6  and  C_7
REMARK    3  A    between atoms: N_9  and  C_10
REMARK    4  A    between atoms: N_9  and  C_23
REMARK    5  A    between atoms: C_10  and  C_11
REMARK                            x       y       z     vdW  Elec       q    Type
REMARK                         _______ _______ _______ _____ _____    ______ ____
ROOT
ATOM      1  C   UNL     1       0.227  13.590  20.824  0.00  0.00    +0.000 C 
ATOM      2  O   UNL     1       1.171  13.326  21.575  0.00  0.00    +0.000 OA
ATOM      3  N   UNL     1      -0.840  12.660  20.652  0.00  0.00    +0.000 N 
ENDROOT
BRANCH   3   4
ATOM      4  C   UNL     1      -0.656  11.347  21.250  0.00  0.00    +0.000 A 
ATOM      5  C   UNL     1      -0.871  11.187  22.635  0.00  0.00    +0.000 A 
ATOM      6  C   UNL     1      -0.718   9.940  23.250  0.00  0.00    +0.000 A 
ATOM      7  C   UNL     1      -0.321   8.833  22.506  0.00  0.00    +0.000 A 
ATOM      8  C   UNL     1      -0.086   8.968  21.140  0.00  0.00    +0.000 A 
ATOM      9  C   UNL     1      -0.252  10.209  20.509  0.00  0.00    +0.000 A 
ATOM     10 CL   UNL     1       0.209  10.277  18.837  0.00  0.00    +0.000 Cl
ENDBRANCH   3   4
BRANCH   1  16
ATOM     11  C   UNL     1      -1.347  16.293  21.500  0.00  0.00    +0.000 C 
ATOM     12  C   UNL     1      -0.361  16.048  20.407  0.00  0.00    +0.000 A 
ATOM     13  N   UNL     1      -0.002  17.137  19.619  0.00  0.00    +0.000 NA
ATOM     14  C   UNL     1       0.976  16.801  18.817  0.00  0.00    +0.000 A 
ATOM     15  S   UNL     1       1.493  15.175  18.906  0.00  0.00    +0.000 S 
ATOM     16  C   UNL     1       0.288  14.849  20.093  0.00  0.00    +0.000 A 
ENDBRANCH   1  16
BRANCH   3  17
ATOM     17  C   UNL     1      -1.989  12.818  19.714  0.00  0.00    +0.000 C 
BRANCH  17  18
ATOM     18  C   UNL     1      -3.351  12.852  20.396  0.00  0.00    +0.000 A 
ATOM     19  C   UNL     1      -3.545  13.398  21.612  0.00  0.00    +0.000 A 
ATOM     20  C   UNL     1      -4.780  13.206  22.401  0.00  0.00    +0.000 A 
ATOM     21  O   UNL     1      -4.891  13.680  23.525  0.00  0.00    +0.000 OA
ATOM     22  N   UNL     1      -5.747  12.439  21.828  0.00  0.00    +0.000 N 
ATOM     23  C   UNL     1      -5.675  11.966  20.513  0.00  0.00    +0.000 A 
ATOM     24  C   UNL     1      -6.771  11.289  19.978  0.00  0.00    +0.000 A 
ATOM     25  F   UNL     1      -7.835  11.018  20.751  0.00  0.00    +0.000 F 
ATOM     26  C   UNL     1      -6.778  10.894  18.649  0.00  0.00    +0.000 A 
ATOM     27  C   UNL     1      -5.689  11.216  17.840  0.00  0.00    +0.000 A 
ATOM     28  C   UNL     1      -4.573  11.875  18.378  0.00  0.00    +0.000 A 
ATOM     29  C   UNL     1      -4.528  12.219  19.738  0.00  0.00    +0.000 A 
ATOM     30  H   UNL     1      -6.588  12.281  22.371  0.00  0.00    +0.000 HD
ENDBRANCH  17  18
ENDBRANCH   3  17
TORSDOF 4
ENDMDL
MODEL 3
REMARK VINA RESULT:      -6.9      1.354      1.884
REMARK  Name = 
REMARK  5 active torsions:
REMARK  status: ('A' for Active; 'I' for Inactive)
REMARK    1  A    between atoms: C_1  and  C_2
REMARK    2  A    between atoms: C_6  and  C_7
REMARK    3  A    between atoms: N_9  and  C_10
REMARK    4  A    between atoms: N_9  and  C_23
REMARK    5  A    between atoms: C_10  and  C_11
REMARK                            x       y       z     vdW  Elec       q    Type
REMARK                         _______ _______ _______ _____ _____    ______ ____
ROOT
ATOM      1  C   UNL     1       0.196  13.396  20.925  0.00  0.00    +0.000 C 
ATOM      2  O   UNL     1       1.160  13.169  21.662  0.00  0.00    +0.000 OA
ATOM      3  N   UNL     1      -0.650  12.333  20.496  0.00  0.00    +0.000 N 
ENDROOT
BRANCH   3   4
ATOM      4  C   UNL     1      -0.209  10.985  20.818  0.00  0.00    +0.000 A 
ATOM      5  C   UNL     1       0.543  10.263  19.866  0.00  0.00    +0.000 A 
ATOM      6  C   UNL     1       0.998   8.968  20.137  0.00  0.00    +0.000 A 
ATOM      7  C   UNL     1       0.694   8.355  21.349  0.00  0.00    +0.000 A 
ATOM      8  C   UNL     1      -0.060   9.041  22.298  0.00  0.00    +0.000 A 
ATOM      9  C   UNL     1      -0.510  10.344  22.045  0.00  0.00    +0.000 A 
ATOM     10 CL   UNL     1      -1.557  11.032  23.245  0.00  0.00    +0.000 Cl
ENDBRANCH   3   4
BRANCH   1  16
ATOM     11  C   UNL     1      -1.091  15.809  22.587  0.00  0.00    +0.000 C 
ATOM     12  C   UNL     1      -0.511  15.841  21.212  0.00  0.00    +0.000 A 
ATOM     13  N   UNL     1      -0.435  17.080  20.583  0.00  0.00    +0.000 NA
ATOM     14  C   UNL     1       0.232  16.969  19.463  0.00  0.00    +0.000 A 
ATOM     15  S   UNL     1       0.761  15.395  19.059  0.00  0.00    +0.000 S 
ATOM     16  C   UNL     1       0.008  14.770  20.477  0.00  0.00    +0.000 A 
ENDBRANCH   1  16
BRANCH   3  17
ATOM     17  C   UNL     1      -1.789  12.458  19.540  0.00  0.00    +0.000 C 
BRANCH  17  18
ATOM     18  C   UNL     1      -3.151  12.592  20.207  0.00  0.00    +0.000 A 
ATOM     19  C   UNL     1      -3.306  13.046  21.466  0.00  0.00    +0.000 A 
ATOM     20  C   UNL     1      -4.572  12.933  22.220  0.00  0.00    +0.000 A 
ATOM     21  O   UNL     1      -4.651  13.313  23.382  0.00  0.00    +0.000 OA
ATOM     22  N   UNL     1      -5.610  12.341  21.569  0.00  0.00    +0.000 N 
ATOM     23  C   UNL     1      -5.565  11.983  20.217  0.00  0.00    +0.000 A 
ATOM     24  C   UNL     1      -6.722  11.493  19.610  0.00  0.00    +0.000 A 
ATOM     25  F   UNL     1      -7.827  11.282  20.343  0.00  0.00    +0.000 F 
ATOM     26  C   UNL     1      -6.747  11.223  18.250  0.00  0.00    +0.000 A 
ATOM     27  C   UNL     1      -5.610  11.484  17.486  0.00  0.00    +0.000 A 
ATOM     28  C   UNL     1      -4.436  11.954  18.095  0.00  0.00    +0.000 A 
ATOM     29  C   UNL     1      -4.380  12.167  19.481  0.00  0.00    +0.000 A 
ATOM     30  H   UNL     1      -6.475  12.236  22.086  0.00  0.00    +0.000 HD
ENDBRANCH  17  18
ENDBRANCH   3  17
TORSDOF 4
ENDMDL
MODEL 4
REMARK VINA RESULT:      -6.9      1.068      1.400
REMARK  Name = 
REMARK  5 active torsions:
REMARK  status: ('A' for Active; 'I' for Inactive)
REMARK    1  A    between atoms: C_1  and  C_2
REMARK    2  A    between atoms: C_6  and  C_7
REMARK    3  A    between atoms: N_9  and  C_10
REMARK    4  A    between atoms: N_9  and  C_23
REMARK    5  A    between atoms: C_10  and  C_11
REMARK                            x       y       z     vdW  Elec       q    Type
REMARK                         _______ _______ _______ _____ _____    ______ ____
ROOT
ATOM      1  C   UNL     1       0.058  13.709  21.082  0.00  0.00    +0.000 C 
ATOM      2  O   UNL     1       1.006  13.458  21.831  0.00  0.00    +0.000 OA
ATOM      3  N   UNL     1      -0.816  12.668  20.651  0.00  0.00    +0.000 N 
ENDROOT
BRANCH   3   4
ATOM      4  C   UNL     1      -0.419  11.310  20.987  0.00  0.00    +0.000 A 
ATOM      5  C   UNL     1       0.294  10.548  20.038  0.00  0.00    +0.000 A 
ATOM      6  C   UNL     1       0.706   9.242  20.322  0.00  0.00    +0.000 A 
ATOM      7  C   UNL     1       0.396   8.658  21.546  0.00  0.00    +0.000 A 
ATOM      8  C   UNL     1      -0.321   9.383  22.495  0.00  0.00    +0.000 A 
ATOM      9  C   UNL     1      -0.727  10.699  22.228  0.00  0.00    +0.000 A 
ATOM     10 CL   UNL     1      -1.733  11.441  23.431  0.00  0.00    +0.000 Cl
ENDBRANCH   3   4
BRANCH   1  16
ATOM     11  C   UNL     1       1.542  15.075  18.597  0.00  0.00    +0.000 C 
ATOM     12  C   UNL     1       0.526  15.677  19.511  0.00  0.00    +0.000 A 
ATOM     13  N   UNL     1       0.093  16.966  19.218  0.00  0.00    +0.000 NA
ATOM     14  C   UNL     1      -0.900  17.290  20.007  0.00  0.00    +0.000 A 
ATOM     15  S   UNL     1      -1.344  16.122  21.171  0.00  0.00    +0.000 S 
ATOM     16  C   UNL     1      -0.083  15.084  20.622  0.00  0.00    +0.000 A 
ENDBRANCH   1  16
BRANCH   3  17
ATOM     17  C   UNL     1      -1.939  12.821  19.682  0.00  0.00    +0.000 C 
BRANCH  17  18
ATOM     18  C   UNL     1      -3.321  12.811  20.323  0.00  0.00    +0.000 A 
ATOM     19  C   UNL     1      -3.557  13.294  21.558  0.00  0.00    +0.000 A 
ATOM     20  C   UNL     1      -4.813  13.053  22.298  0.00  0.00    +0.000 A 
ATOM     21  O   UNL     1      -4.962  13.469  23.442  0.00  0.00    +0.000 OA
ATOM     22  N   UNL     1      -5.756  12.309  21.659  0.00  0.00    +0.000 N 
ATOM     23  C   UNL     1      -5.640  11.904  20.324  0.00  0.00    +0.000 A 
ATOM     24  C   UNL     1      -6.714  11.248  19.723  0.00  0.00    +0.000 A 
ATOM     25  F   UNL     1      -7.798  10.930  20.449  0.00  0.00    +0.000 F 
ATOM     26  C   UNL     1      -6.678  10.920  18.376  0.00  0.00    +0.000 A 
ATOM     27  C   UNL     1      -5.568  11.290  17.617  0.00  0.00    +0.000 A 
ATOM     28  C   UNL     1      -4.474  11.929  18.222  0.00  0.00    +0.000 A 
ATOM     29  C   UNL     1      -4.472  12.204  19.599  0.00  0.00    +0.000 A 
ATOM     30  H   UNL     1      -6.611  12.118  22.167  0.00  0.00    +0.000 HD
ENDBRANCH  17  18
ENDBRANCH   3  17
TORSDOF 4
ENDMDL
MODEL 5
REMARK VINA RESULT:      -6.8      2.064      2.719
REMARK  Name = 
REMARK  5 active torsions:
REMARK  status: ('A' for Active; 'I' for Inactive)
REMARK    1  A    between atoms: C_1  and  C_2
REMARK    2  A    between atoms: C_6  and  C_7
REMARK    3  A    between atoms: N_9  and  C_10
REMARK    4  A    between atoms: N_9  and  C_23
REMARK    5  A    between atoms: C_10  and  C_11
REMARK                            x       y       z     vdW  Elec       q    Type
REMARK                         _______ _______ _______ _____ _____    ______ ____
ROOT
ATOM      1  C   UNL     1       1.412  13.570  20.822  0.00  0.00    +0.000 C 
ATOM      2  O   UNL     1       2.316  12.919  21.353  0.00  0.00    +0.000 OA
ATOM      3  N   UNL     1       0.066  13.104  20.867  0.00  0.00    +0.000 N 
ENDROOT
BRANCH   3   4
ATOM      4  C   UNL     1      -0.138  11.764  21.396  0.00  0.00    +0.000 A 
ATOM      5  C   UNL     1      -0.760  11.611  22.653  0.00  0.00    +0.000 A 
ATOM      6  C   UNL     1      -0.986  10.341  23.196  0.00  0.00    +0.000 A 
ATOM      7  C   UNL     1      -0.576   9.201  22.512  0.00  0.00    +0.000 A 
ATOM      8  C   UNL     1       0.055   9.327  21.277  0.00  0.00    +0.000 A 
ATOM      9  C   UNL     1       0.274  10.593  20.715  0.00  0.00    +0.000 A 
ATOM     10 CL   UNL     1       1.194  10.621  19.244  0.00  0.00    +0.000 Cl
ENDBRANCH   3   4
BRANCH   1  16
ATOM     11  C   UNL     1       2.540  13.779  17.834  0.00  0.00    +0.000 C 
ATOM     12  C   UNL     1       2.243  14.888  18.789  0.00  0.00    +0.000 A 
ATOM     13  N   UNL     1       2.390  16.189  18.318  0.00  0.00    +0.000 NA
ATOM     14  C   UNL     1       1.948  17.037  19.211  0.00  0.00    +0.000 A 
ATOM     15  S   UNL     1       1.384  16.358  20.674  0.00  0.00    +0.000 S 
ATOM     16  C   UNL     1       1.793  14.782  20.109  0.00  0.00    +0.000 A 
ENDBRANCH   1  16
BRANCH   3  17
ATOM     17  C   UNL     1      -1.100  13.746  20.193  0.00  0.00    +0.000 C 
BRANCH  17  18
ATOM     18  C   UNL     1      -2.000  12.773  19.442  0.00  0.00    +0.000 A 
ATOM     19  C   UNL     1      -1.613  12.141  18.317  0.00  0.00    +0.000 A 
ATOM     20  C   UNL     1      -2.546  11.412  17.433  0.00  0.00    +0.000 A 
ATOM     21  O   UNL     1      -2.157  10.897  16.391  0.00  0.00    +0.000 OA
ATOM     22  N   UNL     1      -3.851  11.397  17.817  0.00  0.00    +0.000 N 
ATOM     23  C   UNL     1      -4.297  11.900  19.045  0.00  0.00    +0.000 A 
ATOM     24  C   UNL     1      -5.636  11.729  19.398  0.00  0.00    +0.000 A 
ATOM     25  F   UNL     1      -6.494  11.173  18.528  0.00  0.00    +0.000 F 
ATOM     26  C   UNL     1      -6.094  12.123  20.646  0.00  0.00    +0.000 A 
ATOM     27  C   UNL     1      -5.190  12.661  21.561  0.00  0.00    +0.000 A 
ATOM     28  C   UNL     1      -3.847  12.859  21.203  0.00  0.00    +0.000 A 
ATOM     29  C   UNL     1      -3.389  12.525  19.919  0.00  0.00    +0.000 A 
ATOM     30  H   UNL     1      -4.504  10.920  17.206  0.00  0.00    +0.000 HD
ENDBRANCH  17  18
ENDBRANCH   3  17
TORSDOF 4
ENDMDL
MODEL 6
REMARK VINA RESULT:      -6.8      1.567      1.970
REMARK  Name = 
REMARK  5 active torsions:
REMARK  status: ('A' for Active; 'I' for Inactive)
REMARK    1  A    between atoms: C_1  and  C_2
REMARK    2  A    between atoms: C_6  and  C_7
REMARK    3  A    between atoms: N_9  and  C_10
REMARK    4  A    between atoms: N_9  and  C_23
REMARK    5  A    between atoms: C_10  and  C_11
REMARK                            x       y       z     vdW  Elec       q    Type
REMARK                         _______ _______ _______ _____ _____    ______ ____
ROOT
ATOM      1  C   UNL     1       0.893  13.370  20.529  0.00  0.00    +0.000 C 
ATOM      2  O   UNL     1       1.735  13.068  21.380  0.00  0.00    +0.000 OA
ATOM      3  N   UNL     1      -0.295  12.596  20.384  0.00  0.00    +0.000 N 
ENDROOT
BRANCH   3   4
ATOM      4  C   UNL     1      -0.359  11.359  21.147  0.00  0.00    +0.000 A 
ATOM      5  C   UNL     1      -0.035  10.143  20.510  0.00  0.00    +0.000 A 
ATOM      6  C   UNL     1      -0.071   8.931  21.208  0.00  0.00    +0.000 A 
ATOM      7  C   UNL     1      -0.454   8.901  22.545  0.00  0.00    +0.000 A 
ATOM      8  C   UNL     1      -0.795  10.086  23.192  0.00  0.00    +0.000 A 
ATOM      9  C   UNL     1      -0.748  11.309  22.508  0.00  0.00    +0.000 A 
ATOM     10 CL   UNL     1      -1.332  12.690  23.382  0.00  0.00    +0.000 Cl
ENDBRANCH   3   4
BRANCH   1  16
ATOM     11  C   UNL     1      -0.192  16.368  20.809  0.00  0.00    +0.000 C 
ATOM     12  C   UNL     1       0.765  15.823  19.800  0.00  0.00    +0.000 A 
ATOM     13  N   UNL     1       1.333  16.727  18.910  0.00  0.00    +0.000 NA
ATOM     14  C   UNL     1       2.257  16.130  18.201  0.00  0.00    +0.000 A 
ATOM     15  S   UNL     1       2.473  14.463  18.503  0.00  0.00    +0.000 S 
ATOM     16  C   UNL     1       1.197  14.500  19.660  0.00  0.00    +0.000 A 
ENDBRANCH   1  16
BRANCH   3  17
ATOM     17  C   UNL     1      -1.345  12.800  19.343  0.00  0.00    +0.000 C 
BRANCH  17  18
ATOM     18  C   UNL     1      -2.732  13.082  19.905  0.00  0.00    +0.000 A 
ATOM     19  C   UNL     1      -2.955  13.978  20.885  0.00  0.00    +0.000 A 
ATOM     20  C   UNL     1      -4.232  14.074  21.624  0.00  0.00    +0.000 A 
ATOM     21  O   UNL     1      -4.370  14.871  22.545  0.00  0.00    +0.000 OA
ATOM     22  N   UNL     1      -5.207  13.199  21.257  0.00  0.00    +0.000 N 
ATOM     23  C   UNL     1      -5.098  12.347  20.152  0.00  0.00    +0.000 A 
ATOM     24  C   UNL     1      -6.201  11.574  19.786  0.00  0.00    +0.000 A 
ATOM     25  F   UNL     1      -7.309  11.584  20.543  0.00  0.00    +0.000 F 
ATOM     26  C   UNL     1      -6.167  10.793  18.640  0.00  0.00    +0.000 A 
ATOM     27  C   UNL     1      -5.029  10.819  17.835  0.00  0.00    +0.000 A 
ATOM     28  C   UNL     1      -3.908  11.576  18.211  0.00  0.00    +0.000 A 
ATOM     29  C   UNL     1      -3.907  12.316  19.404  0.00  0.00    +0.000 A 
ATOM     30  H   UNL     1      -6.077  13.240  21.773  0.00  0.00    +0.000 HD
ENDBRANCH  17  18
ENDBRANCH   3  17
TORSDOF 4
ENDMDL
MODEL 7
REMARK VINA RESULT:      -6.8      3.036      5.191
REMARK  Name = 
REMARK  5 active torsions:
REMARK  status: ('A' for Active; 'I' for Inactive)
REMARK    1  A    between atoms: C_1  and  C_2
REMARK    2  A    between atoms: C_6  and  C_7
REMARK    3  A    between atoms: N_9  and  C_10
REMARK    4  A    between atoms: N_9  and  C_23
REMARK    5  A    between atoms: C_10  and  C_11
REMARK                            x       y       z     vdW  Elec       q    Type
REMARK                         _______ _______ _______ _____ _____    ______ ____
ROOT
ATOM      1  C   UNL     1       0.742  11.844  19.924  0.00  0.00    +0.000 C 
ATOM      2  O   UNL     1       1.792  12.464  19.731  0.00  0.00    +0.000 OA
ATOM      3  N   UNL     1      -0.508  12.529  19.933  0.00  0.00    +0.000 N 
ENDROOT
BRANCH   3   4
ATOM      4  C   UNL     1      -0.450  13.982  19.891  0.00  0.00    +0.000 A 
ATOM      5  C   UNL     1      -0.348  14.629  18.642  0.00  0.00    +0.000 A 
ATOM      6  C   UNL     1      -0.301  16.025  18.554  0.00  0.00    +0.000 A 
ATOM      7  C   UNL     1      -0.329  16.803  19.706  0.00  0.00    +0.000 A 
ATOM      8  C   UNL     1      -0.413  16.188  20.953  0.00  0.00    +0.000 A 
ATOM      9  C   UNL     1      -0.477  14.790  21.054  0.00  0.00    +0.000 A 
ATOM     10 CL   UNL     1      -0.435  14.144  22.664  0.00  0.00    +0.000 Cl
ENDBRANCH   3   4
BRANCH   1  16
ATOM     11  C   UNL     1       1.678   9.558  17.889  0.00  0.00    +0.000 C 
ATOM     12  C   UNL     1       1.301   9.417  19.327  0.00  0.00    +0.000 A 
ATOM     13  N   UNL     1       1.444   8.157  19.900  0.00  0.00    +0.000 NA
ATOM     14  C   UNL     1       1.226   8.229  21.188  0.00  0.00    +0.000 A 
ATOM     15  S   UNL     1       0.790   9.768  21.790  0.00  0.00    +0.000 S 
ATOM     16  C   UNL     1       0.850  10.417  20.195  0.00  0.00    +0.000 A 
ENDBRANCH   1  16
BRANCH   3  17
ATOM     17  C   UNL     1      -1.834  11.916  20.239  0.00  0.00    +0.000 C 
BRANCH  17  18
ATOM     18  C   UNL     1      -2.717  11.700  19.017  0.00  0.00    +0.000 A 
ATOM     19  C   UNL     1      -2.245  11.224  17.849  0.00  0.00    +0.000 A 
ATOM     20  C   UNL     1      -3.013  11.259  16.587  0.00  0.00    +0.000 A 
ATOM     21  O   UNL     1      -2.521  10.863  15.537  0.00  0.00    +0.000 OA
ATOM     22  N   UNL     1      -4.260  11.800  16.656  0.00  0.00    +0.000 N 
ATOM     23  C   UNL     1      -4.870  12.173  17.859  0.00  0.00    +0.000 A 
ATOM     24  C   UNL     1      -6.196  12.605  17.837  0.00  0.00    +0.000 A 
ATOM     25  F   UNL     1      -6.837  12.747  16.665  0.00  0.00    +0.000 F 
ATOM     26  C   UNL     1      -6.867  12.888  19.017  0.00  0.00    +0.000 A 
ATOM     27  C   UNL     1      -6.211  12.699  20.233  0.00  0.00    +0.000 A 
ATOM     28  C   UNL     1      -4.869  12.288  20.261  0.00  0.00    +0.000 A 
ATOM     29  C   UNL     1      -4.160  12.064  19.069  0.00  0.00    +0.000 A 
ATOM     30  H   UNL     1      -4.785  11.851  15.792  0.00  0.00    +0.000 HD
ENDBRANCH  17  18
ENDBRANCH   3  17
TORSDOF 4
ENDMDL
MODEL 8
REMARK VINA RESULT:      -6.7      2.616      3.642
REMARK  Name = 
REMARK  5 active torsions:
REMARK  status: ('A' for Active; 'I' for Inactive)
REMARK    1  A    between atoms: C_1  and  C_2
REMARK    2  A    between atoms: C_6  and  C_7
REMARK    3  A    between atoms: N_9  and  C_10
REMARK    4  A    between atoms: N_9  and  C_23
REMARK    5  A    between atoms: C_10  and  C_11
REMARK                            x       y       z     vdW  Elec       q    Type
REMARK                         _______ _______ _______ _____ _____    ______ ____
ROOT
ATOM      1  C   UNL     1       1.029  13.125  20.408  0.00  0.00    +0.000 C 
ATOM      2  O   UNL     1       1.851  12.628  21.184  0.00  0.00    +0.000 OA
ATOM      3  N   UNL     1       0.396  12.321  19.416  0.00  0.00    +0.000 N 
ENDROOT
BRANCH   3   4
ATOM      4  C   UNL     1       0.905  10.967  19.260  0.00  0.00    +0.000 A 
ATOM      5  C   UNL     1       1.699  10.657  18.136  0.00  0.00    +0.000 A 
ATOM      6  C   UNL     1       2.219   9.371  17.951  0.00  0.00    +0.000 A 
ATOM      7  C   UNL     1       1.939   8.362  18.867  0.00  0.00    +0.000 A 
ATOM      8  C   UNL     1       1.144   8.638  19.977  0.00  0.00    +0.000 A 
ATOM      9  C   UNL     1       0.629   9.926  20.181  0.00  0.00    +0.000 A 
ATOM     10 CL   UNL     1      -0.460  10.104  21.520  0.00  0.00    +0.000 Cl
ENDBRANCH   3   4
BRANCH   1  16
ATOM     11  C   UNL     1      -0.657  14.633  22.672  0.00  0.00    +0.000 C 
ATOM     12  C   UNL     1       0.093  15.230  21.527  0.00  0.00    +0.000 A 
ATOM     13  N   UNL     1       0.149  16.619  21.460  0.00  0.00    +0.000 NA
ATOM     14  C   UNL     1       0.963  16.983  20.503  0.00  0.00    +0.000 A 
ATOM     15  S   UNL     1       1.667  15.719  19.595  0.00  0.00    +0.000 S 
ATOM     16  C   UNL     1       0.789  14.558  20.517  0.00  0.00    +0.000 A 
ENDBRANCH   1  16
BRANCH   3  17
ATOM     17  C   UNL     1      -0.544  12.812  18.367  0.00  0.00    +0.000 C 
BRANCH  17  18
ATOM     18  C   UNL     1      -1.789  11.953  18.194  0.00  0.00    +0.000 A 
ATOM     19  C   UNL     1      -1.910  11.029  17.221  0.00  0.00    +0.000 A 
ATOM     20  C   UNL     1      -3.192  10.382  16.870  0.00  0.00    +0.000 A 
ATOM     21  O   UNL     1      -3.263   9.585  15.942  0.00  0.00    +0.000 OA
ATOM     22  N   UNL     1      -4.277  10.762  17.597  0.00  0.00    +0.000 N 
ATOM     23  C   UNL     1      -4.198  11.600  18.715  0.00  0.00    +0.000 A 
ATOM     24  C   UNL     1      -5.351  11.834  19.465  0.00  0.00    +0.000 A 
ATOM     25  F   UNL     1      -6.530  11.335  19.058  0.00  0.00    +0.000 F 
ATOM     26  C   UNL     1      -5.295  12.575  20.636  0.00  0.00    +0.000 A 
ATOM     27  C   UNL     1      -4.061  13.054  21.076  0.00  0.00    +0.000 A 
ATOM     28  C   UNL     1      -2.902  12.843  20.313  0.00  0.00    +0.000 A 
ATOM     29  C   UNL     1      -2.960  12.151  19.093  0.00  0.00    +0.000 A 
ATOM     30  H   UNL     1      -5.165  10.342  17.348  0.00  0.00    +0.000 HD
ENDBRANCH  17  18
ENDBRANCH   3  17
TORSDOF 4
ENDMDL
MODEL 9
REMARK VINA RESULT:      -6.7      1.861      2.266
REMARK  Name = 
REMARK  5 active torsions:
REMARK  status: ('A' for Active; 'I' for Inactive)
REMARK    1  A    between atoms: C_1  and  C_2
REMARK    2  A    between atoms: C_6  and  C_7
REMARK    3  A    between atoms: N_9  and  C_10
REMARK    4  A    between atoms: N_9  and  C_23
REMARK    5  A    between atoms: C_10  and  C_11
REMARK                            x       y       z     vdW  Elec       q    Type
REMARK                         _______ _______ _______ _____ _____    ______ ____
ROOT
ATOM      1  C   UNL     1       0.294  13.771  21.392  0.00  0.00    +0.000 C 
ATOM      2  O   UNL     1       1.399  13.295  21.667  0.00  0.00    +0.000 OA
ATOM      3  N   UNL     1      -0.871  12.949  21.414  0.00  0.00    +0.000 N 
ENDROOT
BRANCH   3   4
ATOM      4  C   UNL     1      -0.652  11.521  21.589  0.00  0.00    +0.000 A 
ATOM      5  C   UNL     1      -0.752  10.965  22.881  0.00  0.00    +0.000 A 
ATOM      6  C   UNL     1      -0.561   9.595  23.095  0.00  0.00    +0.000 A 
ATOM      7  C   UNL     1      -0.241   8.757  22.033  0.00  0.00    +0.000 A 
ATOM      8  C   UNL     1      -0.120   9.284  20.749  0.00  0.00    +0.000 A 
ATOM      9  C   UNL     1      -0.324  10.652  20.519  0.00  0.00    +0.000 A 
ATOM     10 CL   UNL     1      -0.004  11.207  18.907  0.00  0.00    +0.000 Cl
ENDBRANCH   3   4
BRANCH   1  16
ATOM     11  C   UNL     1      -0.047  14.926  18.427  0.00  0.00    +0.000 C 
ATOM     12  C   UNL     1       0.056  15.686  19.708  0.00  0.00    +0.000 A 
ATOM     13  N   UNL     1      -0.093  17.068  19.641  0.00  0.00    +0.000 NA
ATOM     14  C   UNL     1      -0.134  17.568  20.850  0.00  0.00    +0.000 A 
ATOM     15  S   UNL     1       0.053  16.453  22.130  0.00  0.00    +0.000 S 
ATOM     16  C   UNL     1       0.250  15.172  20.995  0.00  0.00    +0.000 A 
ENDBRANCH   1  16
BRANCH   3  17
ATOM     17  C   UNL     1      -2.245  13.376  21.020  0.00  0.00    +0.000 C 
BRANCH  17  18
ATOM     18  C   UNL     1      -3.168  13.667  22.196  0.00  0.00    +0.000 A 
ATOM     19  C   UNL     1      -2.740  14.246  23.334  0.00  0.00    +0.000 A 
ATOM     20  C   UNL     1      -3.544  14.293  24.574  0.00  0.00    +0.000 A 
ATOM     21  O   UNL     1      -3.091  14.784  25.601  0.00  0.00    +0.000 OA
ATOM     22  N   UNL     1      -4.775  13.718  24.515  0.00  0.00    +0.000 N 
ATOM     23  C   UNL     1      -5.342  13.234  23.330  0.00  0.00    +0.000 A 
ATOM     24  C   UNL     1      -6.658  12.773  23.351  0.00  0.00    +0.000 A 
ATOM     25  F   UNL     1      -7.329  12.709  24.513  0.00  0.00    +0.000 F 
ATOM     26  C   UNL     1      -7.288  12.380  22.180  0.00  0.00    +0.000 A 
ATOM     27  C   UNL     1      -6.602  12.487  20.971  0.00  0.00    +0.000 A 
ATOM     28  C   UNL     1      -5.269  12.928  20.947  0.00  0.00    +0.000 A 
ATOM     29  C   UNL     1      -4.601  13.264  22.135  0.00  0.00    +0.000 A 
ATOM     30  H   UNL     1      -5.324  13.723  25.366  0.00  0.00    +0.000 HD
ENDBRANCH  17  18
ENDBRANCH   3  17
TORSDOF 4
ENDMDL
