MODEL 1
REMARK VINA RESULT:      -8.3      0.000      0.000
REMARK  Name = 
REMARK  6 active torsions:
REMARK  status: ('A' for Active; 'I' for Inactive)
REMARK    1  A    between atoms: C_1  and  S_2
REMARK    2  A    between atoms: S_2  and  N_5
REMARK    3  A    between atoms: N_5  and  C_6
REMARK    4  A    between atoms: C_11  and  C_12
REMARK    5  A    between atoms: C_15  and  C_16
REMARK    6  A    between atoms: C_19  and  N_20
REMARK                            x       y       z     vdW  Elec       q    Type
REMARK                         _______ _______ _______ _____ _____    ______ ____
ROOT
ATOM      1  C   UNL     1       2.820   7.061  18.412  0.00  0.00    +0.000 A 
ATOM      2  C   UNL     1       2.431   6.737  19.716  0.00  0.00    +0.000 A 
ATOM      3  C   UNL     1       1.716   7.638  20.510  0.00  0.00    +0.000 A 
ATOM      4  C   UNL     1       1.270   8.864  20.000  0.00  0.00    +0.000 A 
ATOM      5  C   UNL     1       1.503   9.118  18.641  0.00  0.00    +0.000 A 
ATOM      6  C   UNL     1       2.282   8.245  17.870  0.00  0.00    +0.000 A 
ENDROOT
BRANCH   1  12
ATOM      7  C   UNL     1       3.944   4.831  17.823  0.00  0.00    +0.000 A 
ATOM      8  C   UNL     1       4.938   4.133  17.124  0.00  0.00    +0.000 A 
ATOM      9  C   UNL     1       5.762   4.785  16.214  0.00  0.00    +0.000 A 
ATOM     10  C   UNL     1       5.607   6.149  16.000  0.00  0.00    +0.000 A 
ATOM     11  C   UNL     1       4.625   6.857  16.696  0.00  0.00    +0.000 A 
ATOM     12  C   UNL     1       3.773   6.232  17.637  0.00  0.00    +0.000 A 
BRANCH   7  13
ATOM     13  N   UNL     1       3.194   4.053  18.771  0.00  0.00    +0.000 N 
ATOM     14  H   UNL     1       3.744   3.386  19.307  0.00  0.00    +0.000 HD
BRANCH  13  16
ATOM     15  C   UNL     1       0.929   3.055  19.720  0.00  0.00    +0.000 C 
ATOM     16  S   UNL     1       1.821   3.243  18.193  0.00  0.00    +0.000 S 
ATOM     17  O   UNL     1       2.265   1.925  17.788  0.00  0.00    +0.000 OA
ATOM     18  O   UNL     1       1.052   4.101  17.322  0.00  0.00    +0.000 OA
ENDBRANCH  13  16
ENDBRANCH   7  13
ENDBRANCH   1  12
BRANCH   4  19
ATOM     19  C   UNL     1       0.597   9.850  20.852  0.00  0.00    +0.000 A 
ATOM     20  C   UNL     1       0.446   9.678  22.230  0.00  0.00    +0.000 A 
ATOM     21  N   UNL     1      -0.209  10.556  23.035  0.00  0.00    +0.000 NA
ATOM     22  C   UNL     1      -0.706  11.641  22.421  0.00  0.00    +0.000 A 
ATOM     23  C   UNL     1      -0.541  11.834  21.051  0.00  0.00    +0.000 A 
ATOM     24  N   UNL     1       0.114  10.962  20.244  0.00  0.00    +0.000 NA
BRANCH  22  25
ATOM     25  N   UNL     1      -1.433  12.524  23.214  0.00  0.00    +0.000 N 
ATOM     26  H   UNL     1      -2.225  12.003  23.584  0.00  0.00    +0.000 HD
ATOM     27  H   UNL     1      -0.868  12.931  23.950  0.00  0.00    +0.000 HD
ENDBRANCH  22  25
ENDBRANCH   4  19
TORSDOF 5
ENDMDL
MODEL 2
REMARK VINA RESULT:      -8.3      1.041      1.178
REMARK  Name = 
REMARK  6 active torsions:
REMARK  status: ('A' for Active; 'I' for Inactive)
REMARK    1  A    between atoms: C_1  and  S_2
REMARK    2  A    between atoms: S_2  and  N_5
REMARK    3  A    between atoms: N_5  and  C_6
REMARK    4  A    between atoms: C_11  and  C_12
REMARK    5  A    between atoms: C_15  and  C_16
REMARK    6  A    between atoms: C_19  and  N_20
REMARK                            x       y       z     vdW  Elec       q    Type
REMARK                         _______ _______ _______ _____ _____    ______ ____
ROOT
ATOM      1  C   UNL     1       3.116   6.821  18.278  0.00  0.00    +0.000 A 
ATOM      2  C   UNL     1       2.692   6.425  19.551  0.00  0.00    +0.000 A 
ATOM      3  C   UNL     1       1.923   7.267  20.360  0.00  0.00    +0.000 A 
ATOM      4  C   UNL     1       1.460   8.503  19.891  0.00  0.00    +0.000 A 
ATOM      5  C   UNL     1       1.732   8.827  18.555  0.00  0.00    +0.000 A 
ATOM      6  C   UNL     1       2.563   8.015  17.774  0.00  0.00    +0.000 A 
ENDROOT
BRANCH   1  12
ATOM      7  C   UNL     1       4.011   4.668  17.206  0.00  0.00    +0.000 A 
ATOM      8  C   UNL     1       5.049   3.991  16.554  0.00  0.00    +0.000 A 
ATOM      9  C   UNL     1       6.199   4.664  16.154  0.00  0.00    +0.000 A 
ATOM     10  C   UNL     1       6.325   6.023  16.413  0.00  0.00    +0.000 A 
ATOM     11  C   UNL     1       5.300   6.706  17.070  0.00  0.00    +0.000 A 
ATOM     12  C   UNL     1       4.120   6.057  17.501  0.00  0.00    +0.000 A 
BRANCH   7  13
ATOM     13  N   UNL     1       2.900   3.850  17.613  0.00  0.00    +0.000 N 
ATOM     14  H   UNL     1       2.068   4.366  17.889  0.00  0.00    +0.000 HD
BRANCH  13  16
ATOM     15  C   UNL     1       1.609   2.665  19.601  0.00  0.00    +0.000 C 
ATOM     16  S   UNL     1       3.197   2.678  18.802  0.00  0.00    +0.000 S 
ATOM     17  O   UNL     1       4.142   3.267  19.729  0.00  0.00    +0.000 OA
ATOM     18  O   UNL     1       3.411   1.383  18.198  0.00  0.00    +0.000 OA
ENDBRANCH  13  16
ENDBRANCH   7  13
ENDBRANCH   1  12
BRANCH   4  19
ATOM     19  C   UNL     1       0.728   9.428  20.764  0.00  0.00    +0.000 A 
ATOM     20  C   UNL     1       0.839   9.398  22.156  0.00  0.00    +0.000 A 
ATOM     21  N   UNL     1       0.141  10.217  22.987  0.00  0.00    +0.000 NA
ATOM     22  C   UNL     1      -0.673  11.095  22.383  0.00  0.00    +0.000 A 
ATOM     23  C   UNL     1      -0.773  11.150  20.994  0.00  0.00    +0.000 A 
ATOM     24  N   UNL     1      -0.077  10.336  20.160  0.00  0.00    +0.000 NA
BRANCH  22  25
ATOM     25  N   UNL     1      -1.443  11.902  23.216  0.00  0.00    +0.000 N 
ATOM     26  H   UNL     1      -1.771  11.311  23.976  0.00  0.00    +0.000 HD
ATOM     27  H   UNL     1      -0.927  12.705  23.554  0.00  0.00    +0.000 HD
ENDBRANCH  22  25
ENDBRANCH   4  19
TORSDOF 5
ENDMDL
MODEL 3
REMARK VINA RESULT:      -8.2      2.799      3.670
REMARK  Name = 
REMARK  6 active torsions:
REMARK  status: ('A' for Active; 'I' for Inactive)
REMARK    1  A    between atoms: C_1  and  S_2
REMARK    2  A    between atoms: S_2  and  N_5
REMARK    3  A    between atoms: N_5  and  C_6
REMARK    4  A    between atoms: C_11  and  C_12
REMARK    5  A    between atoms: C_15  and  C_16
REMARK    6  A    between atoms: C_19  and  N_20
REMARK                            x       y       z     vdW  Elec       q    Type
REMARK                         _______ _______ _______ _____ _____    ______ ____
ROOT
ATOM      1  C   UNL     1       2.608   6.876  18.503  0.00  0.00    +0.000 A 
ATOM      2  C   UNL     1       2.632   7.893  17.542  0.00  0.00    +0.000 A 
ATOM      3  C   UNL     1       2.012   9.126  17.768  0.00  0.00    +0.000 A 
ATOM      4  C   UNL     1       1.428   9.432  19.004  0.00  0.00    +0.000 A 
ATOM      5  C   UNL     1       1.557   8.484  20.028  0.00  0.00    +0.000 A 
ATOM      6  C   UNL     1       2.114   7.224  19.776  0.00  0.00    +0.000 A 
ENDROOT
BRANCH   1  12
ATOM      7  C   UNL     1       4.407   5.090  18.103  0.00  0.00    +0.000 A 
ATOM      8  C   UNL     1       4.740   3.785  17.718  0.00  0.00    +0.000 A 
ATOM      9  C   UNL     1       3.751   2.843  17.454  0.00  0.00    +0.000 A 
ATOM     10  C   UNL     1       2.413   3.203  17.564  0.00  0.00    +0.000 A 
ATOM     11  C   UNL     1       2.069   4.503  17.939  0.00  0.00    +0.000 A 
ATOM     12  C   UNL     1       3.044   5.492  18.206  0.00  0.00    +0.000 A 
BRANCH   7  13
ATOM     13  N   UNL     1       5.519   5.981  18.296  0.00  0.00    +0.000 N 
ATOM     14  H   UNL     1       5.280   6.878  18.711  0.00  0.00    +0.000 HD
BRANCH  13  16
ATOM     15  C   UNL     1       7.357   7.732  17.537  0.00  0.00    +0.000 C 
ATOM     16  S   UNL     1       6.512   6.280  16.955  0.00  0.00    +0.000 S 
ATOM     17  O   UNL     1       5.633   6.694  15.881  0.00  0.00    +0.000 OA
ATOM     18  O   UNL     1       7.484   5.224  16.795  0.00  0.00    +0.000 OA
ENDBRANCH  13  16
ENDBRANCH   7  13
ENDBRANCH   1  12
BRANCH   4  19
ATOM     19  C   UNL     1       0.700  10.687  19.217  0.00  0.00    +0.000 A 
ATOM     20  C   UNL     1      -0.627  10.726  19.654  0.00  0.00    +0.000 A 
ATOM     21  N   UNL     1      -1.334  11.874  19.820  0.00  0.00    +0.000 NA
ATOM     22  C   UNL     1      -0.669  13.007  19.549  0.00  0.00    +0.000 A 
ATOM     23  C   UNL     1       0.662  12.982  19.135  0.00  0.00    +0.000 A 
ATOM     24  N   UNL     1       1.374  11.838  18.971  0.00  0.00    +0.000 NA
BRANCH  22  25
ATOM     25  N   UNL     1      -1.392  14.192  19.653  0.00  0.00    +0.000 N 
ATOM     26  H   UNL     1      -2.202  13.992  20.235  0.00  0.00    +0.000 HD
ATOM     27  H   UNL     1      -0.833  14.949  20.028  0.00  0.00    +0.000 HD
ENDBRANCH  22  25
ENDBRANCH   4  19
TORSDOF 5
ENDMDL
MODEL 4
REMARK VINA RESULT:      -8.1      1.030      1.405
REMARK  Name = 
REMARK  6 active torsions:
REMARK  status: ('A' for Active; 'I' for Inactive)
REMARK    1  A    between atoms: C_1  and  S_2
REMARK    2  A    between atoms: S_2  and  N_5
REMARK    3  A    between atoms: N_5  and  C_6
REMARK    4  A    between atoms: C_11  and  C_12
REMARK    5  A    between atoms: C_15  and  C_16
REMARK    6  A    between atoms: C_19  and  N_20
REMARK                            x       y       z     vdW  Elec       q    Type
REMARK                         _______ _______ _______ _____ _____    ______ ____
ROOT
ATOM      1  C   UNL     1       2.621   7.224  18.482  0.00  0.00    +0.000 A 
ATOM      2  C   UNL     1       2.279   6.978  19.817  0.00  0.00    +0.000 A 
ATOM      3  C   UNL     1       1.586   7.923  20.579  0.00  0.00    +0.000 A 
ATOM      4  C   UNL     1       1.115   9.114  20.011  0.00  0.00    +0.000 A 
ATOM      5  C   UNL     1       1.300   9.286  18.632  0.00  0.00    +0.000 A 
ATOM      6  C   UNL     1       2.057   8.371  17.889  0.00  0.00    +0.000 A 
ENDROOT
BRANCH   1  12
ATOM      7  C   UNL     1       3.340   4.962  17.506  0.00  0.00    +0.000 A 
ATOM      8  C   UNL     1       4.315   4.183  16.870  0.00  0.00    +0.000 A 
ATOM      9  C   UNL     1       5.499   4.752  16.415  0.00  0.00    +0.000 A 
ATOM     10  C   UNL     1       5.724   6.111  16.600  0.00  0.00    +0.000 A 
ATOM     11  C   UNL     1       4.763   6.896  17.240  0.00  0.00    +0.000 A 
ATOM     12  C   UNL     1       3.551   6.353  17.727  0.00  0.00    +0.000 A 
BRANCH   7  13
ATOM     13  N   UNL     1       2.185   4.246  17.976  0.00  0.00    +0.000 N 
ATOM     14  H   UNL     1       1.388   4.830  18.214  0.00  0.00    +0.000 HD
BRANCH  13  16
ATOM     15  C   UNL     1       0.903   3.410  20.139  0.00  0.00    +0.000 C 
ATOM     16  S   UNL     1       2.420   3.150  19.248  0.00  0.00    +0.000 S 
ATOM     17  O   UNL     1       3.493   3.688  20.058  0.00  0.00    +0.000 OA
ATOM     18  O   UNL     1       2.428   1.792  18.756  0.00  0.00    +0.000 OA
ENDBRANCH  13  16
ENDBRANCH   7  13
ENDBRANCH   1  12
BRANCH   4  19
ATOM     19  C   UNL     1       0.466  10.147  20.825  0.00  0.00    +0.000 A 
ATOM     20  C   UNL     1       0.464  11.498  20.469  0.00  0.00    +0.000 A 
ATOM     21  N   UNL     1      -0.096  12.478  21.227  0.00  0.00    +0.000 NA
ATOM     22  C   UNL     1      -0.679  12.068  22.363  0.00  0.00    +0.000 A 
ATOM     23  C   UNL     1      -0.703  10.720  22.716  0.00  0.00    +0.000 A 
ATOM     24  N   UNL     1      -0.149   9.737  21.962  0.00  0.00    +0.000 NA
BRANCH  22  25
ATOM     25  N   UNL     1      -1.205  13.060  23.185  0.00  0.00    +0.000 N 
ATOM     26  H   UNL     1      -0.445  13.383  23.780  0.00  0.00    +0.000 HD
ATOM     27  H   UNL     1      -1.618  13.817  22.654  0.00  0.00    +0.000 HD
ENDBRANCH  22  25
ENDBRANCH   4  19
TORSDOF 5
ENDMDL
MODEL 5
REMARK VINA RESULT:      -8.0      2.694      3.883
REMARK  Name = 
REMARK  6 active torsions:
REMARK  status: ('A' for Active; 'I' for Inactive)
REMARK    1  A    between atoms: C_1  and  S_2
REMARK    2  A    between atoms: S_2  and  N_5
REMARK    3  A    between atoms: N_5  and  C_6
REMARK    4  A    between atoms: C_11  and  C_12
REMARK    5  A    between atoms: C_15  and  C_16
REMARK    6  A    between atoms: C_19  and  N_20
REMARK                            x       y       z     vdW  Elec       q    Type
REMARK                         _______ _______ _______ _____ _____    ______ ____
ROOT
ATOM      1  C   UNL     1       2.538   6.408  19.093  0.00  0.00    +0.000 A 
ATOM      2  C   UNL     1       2.752   7.173  17.941  0.00  0.00    +0.000 A 
ATOM      3  C   UNL     1       2.260   8.476  17.829  0.00  0.00    +0.000 A 
ATOM      4  C   UNL     1       1.621   9.109  18.903  0.00  0.00    +0.000 A 
ATOM      5  C   UNL     1       1.562   8.411  20.117  0.00  0.00    +0.000 A 
ATOM      6  C   UNL     1       1.990   7.080  20.203  0.00  0.00    +0.000 A 
ENDROOT
BRANCH   1  12
ATOM      7  C   UNL     1       4.152   4.415  19.197  0.00  0.00    +0.000 A 
ATOM      8  C   UNL     1       4.356   3.030  19.147  0.00  0.00    +0.000 A 
ATOM      9  C   UNL     1       3.281   2.151  19.077  0.00  0.00    +0.000 A 
ATOM     10  C   UNL     1       1.985   2.652  19.048  0.00  0.00    +0.000 A 
ATOM     11  C   UNL     1       1.769   4.030  19.090  0.00  0.00    +0.000 A 
ATOM     12  C   UNL     1       2.835   4.957  19.151  0.00  0.00    +0.000 A 
BRANCH   7  13
ATOM     13  N   UNL     1       5.346   5.216  19.216  0.00  0.00    +0.000 N 
ATOM     14  H   UNL     1       5.197   6.199  19.428  0.00  0.00    +0.000 HD
BRANCH  13  16
ATOM     15  C   UNL     1       6.736   6.854  17.665  0.00  0.00    +0.000 C 
ATOM     16  S   UNL     1       6.356   5.128  17.857  0.00  0.00    +0.000 S 
ATOM     17  O   UNL     1       5.512   4.746  16.744  0.00  0.00    +0.000 OA
ATOM     18  O   UNL     1       7.579   4.428  18.176  0.00  0.00    +0.000 OA
ENDBRANCH  13  16
ENDBRANCH   7  13
ENDBRANCH   1  12
BRANCH   4  19
ATOM     19  C   UNL     1       1.026  10.443  18.763  0.00  0.00    +0.000 A 
ATOM     20  C   UNL     1       1.792  11.592  18.555  0.00  0.00    +0.000 A 
ATOM     21  N   UNL     1       1.268  12.843  18.462  0.00  0.00    +0.000 NA
ATOM     22  C   UNL     1      -0.068  12.918  18.568  0.00  0.00    +0.000 A 
ATOM     23  C   UNL     1      -0.843  11.776  18.753  0.00  0.00    +0.000 A 
ATOM     24  N   UNL     1      -0.325  10.524  18.843  0.00  0.00    +0.000 NA
BRANCH  22  25
ATOM     25  N   UNL     1      -0.621  14.195  18.538  0.00  0.00    +0.000 N 
ATOM     26  H   UNL     1      -0.796  14.463  19.504  0.00  0.00    +0.000 HD
ATOM     27  H   UNL     1      -0.024  14.860  18.061  0.00  0.00    +0.000 HD
ENDBRANCH  22  25
ENDBRANCH   4  19
TORSDOF 5
ENDMDL
MODEL 6
REMARK VINA RESULT:      -7.9      2.567      3.721
REMARK  Name = 
REMARK  6 active torsions:
REMARK  status: ('A' for Active; 'I' for Inactive)
REMARK    1  A    between atoms: C_1  and  S_2
REMARK    2  A    between atoms: S_2  and  N_5
REMARK    3  A    between atoms: N_5  and  C_6
REMARK    4  A    between atoms: C_11  and  C_12
REMARK    5  A    between atoms: C_15  and  C_16
REMARK    6  A    between atoms: C_19  and  N_20
REMARK                            x       y       z     vdW  Elec       q    Type
REMARK                         _______ _______ _______ _____ _____    ______ ____
ROOT
ATOM      1  C   UNL     1       2.379   6.378  18.937  0.00  0.00    +0.000 A 
ATOM      2  C   UNL     1       2.520   7.198  17.813  0.00  0.00    +0.000 A 
ATOM      3  C   UNL     1       2.061   8.518  17.810  0.00  0.00    +0.000 A 
ATOM      4  C   UNL     1       1.531   9.108  18.965  0.00  0.00    +0.000 A 
ATOM      5  C   UNL     1       1.551   8.347  20.142  0.00  0.00    +0.000 A 
ATOM      6  C   UNL     1       1.944   7.003  20.123  0.00  0.00    +0.000 A 
ENDROOT
BRANCH   1  12
ATOM      7  C   UNL     1       3.937   4.339  18.885  0.00  0.00    +0.000 A 
ATOM      8  C   UNL     1       4.103   2.956  18.741  0.00  0.00    +0.000 A 
ATOM      9  C   UNL     1       3.002   2.113  18.630  0.00  0.00    +0.000 A 
ATOM     10  C   UNL     1       1.721   2.649  18.653  0.00  0.00    +0.000 A 
ATOM     11  C   UNL     1       1.544   4.028  18.789  0.00  0.00    +0.000 A 
ATOM     12  C   UNL     1       2.637   4.919  18.895  0.00  0.00    +0.000 A 
BRANCH   7  13
ATOM     13  N   UNL     1       5.154   5.105  18.938  0.00  0.00    +0.000 N 
ATOM     14  H   UNL     1       5.104   5.947  19.505  0.00  0.00    +0.000 HD
BRANCH  13  16
ATOM     15  C   UNL     1       7.420   4.668  17.635  0.00  0.00    +0.000 C 
ATOM     16  S   UNL     1       5.870   5.521  17.458  0.00  0.00    +0.000 S 
ATOM     17  O   UNL     1       6.149   6.941  17.525  0.00  0.00    +0.000 OA
ATOM     18  O   UNL     1       5.148   4.926  16.358  0.00  0.00    +0.000 OA
ENDBRANCH  13  16
ENDBRANCH   7  13
ENDBRANCH   1  12
BRANCH   4  19
ATOM     19  C   UNL     1       0.967  10.462  18.944  0.00  0.00    +0.000 A 
ATOM     20  C   UNL     1      -0.359  10.732  19.291  0.00  0.00    +0.000 A 
ATOM     21  N   UNL     1      -0.916  11.971  19.240  0.00  0.00    +0.000 NA
ATOM     22  C   UNL     1      -0.096  12.957  18.844  0.00  0.00    +0.000 A 
ATOM     23  C   UNL     1       1.235  12.702  18.519  0.00  0.00    +0.000 A 
ATOM     24  N   UNL     1       1.796  11.468  18.570  0.00  0.00    +0.000 NA
BRANCH  22  25
ATOM     25  N   UNL     1      -0.660  14.224  18.727  0.00  0.00    +0.000 N 
ATOM     26  H   UNL     1      -1.463  14.132  18.108  0.00  0.00    +0.000 HD
ATOM     27  H   UNL     1      -0.917  14.613  19.626  0.00  0.00    +0.000 HD
ENDBRANCH  22  25
ENDBRANCH   4  19
TORSDOF 5
ENDMDL
MODEL 7
REMARK VINA RESULT:      -7.9      1.159      1.809
REMARK  Name = 
REMARK  6 active torsions:
REMARK  status: ('A' for Active; 'I' for Inactive)
REMARK    1  A    between atoms: C_1  and  S_2
REMARK    2  A    between atoms: S_2  and  N_5
REMARK    3  A    between atoms: N_5  and  C_6
REMARK    4  A    between atoms: C_11  and  C_12
REMARK    5  A    between atoms: C_15  and  C_16
REMARK    6  A    between atoms: C_19  and  N_20
REMARK                            x       y       z     vdW  Elec       q    Type
REMARK                         _______ _______ _______ _____ _____    ______ ____
ROOT
ATOM      1  C   UNL     1       2.696   7.175  18.601  0.00  0.00    +0.000 A 
ATOM      2  C   UNL     1       2.254   8.414  18.124  0.00  0.00    +0.000 A 
ATOM      3  C   UNL     1       1.439   9.246  18.897  0.00  0.00    +0.000 A 
ATOM      4  C   UNL     1       1.113   8.921  20.220  0.00  0.00    +0.000 A 
ATOM      5  C   UNL     1       1.699   7.768  20.762  0.00  0.00    +0.000 A 
ATOM      6  C   UNL     1       2.454   6.902  19.962  0.00  0.00    +0.000 A 
ENDROOT
BRANCH   1  12
ATOM      7  C   UNL     1       2.983   4.803  17.665  0.00  0.00    +0.000 A 
ATOM      8  C   UNL     1       3.720   3.897  16.892  0.00  0.00    +0.000 A 
ATOM      9  C   UNL     1       4.815   4.320  16.146  0.00  0.00    +0.000 A 
ATOM     10  C   UNL     1       5.191   5.657  16.175  0.00  0.00    +0.000 A 
ATOM     11  C   UNL     1       4.469   6.568  16.948  0.00  0.00    +0.000 A 
ATOM     12  C   UNL     1       3.356   6.176  17.728  0.00  0.00    +0.000 A 
BRANCH   7  13
ATOM     13  N   UNL     1       1.907   4.231  18.428  0.00  0.00    +0.000 N 
ATOM     14  H   UNL     1       1.298   4.909  18.882  0.00  0.00    +0.000 HD
BRANCH  13  16
ATOM     15  C   UNL     1       1.104   3.432  20.824  0.00  0.00    +0.000 C 
ATOM     16  S   UNL     1       2.315   3.054  19.578  0.00  0.00    +0.000 S 
ATOM     17  O   UNL     1       3.610   3.431  20.107  0.00  0.00    +0.000 OA
ATOM     18  O   UNL     1       2.044   1.729  19.069  0.00  0.00    +0.000 OA
ENDBRANCH  13  16
ENDBRANCH   7  13
ENDBRANCH   1  12
BRANCH   4  19
ATOM     19  C   UNL     1       0.188   9.744  21.006  0.00  0.00    +0.000 A 
ATOM     20  C   UNL     1      -0.500  10.833  20.463  0.00  0.00    +0.000 A 
ATOM     21  N   UNL     1      -1.331  11.635  21.180  0.00  0.00    +0.000 NA
ATOM     22  C   UNL     1      -1.474  11.309  22.474  0.00  0.00    +0.000 A 
ATOM     23  C   UNL     1      -0.812  10.211  23.019  0.00  0.00    +0.000 A 
ATOM     24  N   UNL     1       0.017   9.406  22.308  0.00  0.00    +0.000 NA
BRANCH  22  25
ATOM     25  N   UNL     1      -2.272  12.152  23.242  0.00  0.00    +0.000 N 
ATOM     26  H   UNL     1      -2.337  11.733  24.167  0.00  0.00    +0.000 HD
ATOM     27  H   UNL     1      -1.907  13.096  23.277  0.00  0.00    +0.000 HD
ENDBRANCH  22  25
ENDBRANCH   4  19
TORSDOF 5
ENDMDL
MODEL 8
REMARK VINA RESULT:      -7.9      2.734      3.616
REMARK  Name = 
REMARK  6 active torsions:
REMARK  status: ('A' for Active; 'I' for Inactive)
REMARK    1  A    between atoms: C_1  and  S_2
REMARK    2  A    between atoms: S_2  and  N_5
REMARK    3  A    between atoms: N_5  and  C_6
REMARK    4  A    between atoms: C_11  and  C_12
REMARK    5  A    between atoms: C_15  and  C_16
REMARK    6  A    between atoms: C_19  and  N_20
REMARK                            x       y       z     vdW  Elec       q    Type
REMARK                         _______ _______ _______ _____ _____    ______ ____
ROOT
ATOM      1  C   UNL     1       2.590   7.113  18.557  0.00  0.00    +0.000 A 
ATOM      2  C   UNL     1       2.305   8.254  17.798  0.00  0.00    +0.000 A 
ATOM      3  C   UNL     1       1.550   9.308  18.320  0.00  0.00    +0.000 A 
ATOM      4  C   UNL     1       1.134   9.314  19.658  0.00  0.00    +0.000 A 
ATOM      5  C   UNL     1       1.568   8.258  20.471  0.00  0.00    +0.000 A 
ATOM      6  C   UNL     1       2.261   7.170  19.926  0.00  0.00    +0.000 A 
ENDROOT
BRANCH   1  12
ATOM      7  C   UNL     1       4.469   5.832  17.369  0.00  0.00    +0.000 A 
ATOM      8  C   UNL     1       4.914   4.664  16.736  0.00  0.00    +0.000 A 
ATOM      9  C   UNL     1       4.117   3.525  16.697  0.00  0.00    +0.000 A 
ATOM     10  C   UNL     1       2.858   3.547  17.284  0.00  0.00    +0.000 A 
ATOM     11  C   UNL     1       2.400   4.707  17.910  0.00  0.00    +0.000 A 
ATOM     12  C   UNL     1       3.176   5.889  17.963  0.00  0.00    +0.000 A 
BRANCH   7  13
ATOM     13  N   UNL     1       5.365   6.954  17.296  0.00  0.00    +0.000 N 
ATOM     14  H   UNL     1       5.250   7.539  16.472  0.00  0.00    +0.000 HD
BRANCH  13  16
ATOM     15  C   UNL     1       7.621   8.299  17.644  0.00  0.00    +0.000 C 
ATOM     16  S   UNL     1       7.020   6.634  17.475  0.00  0.00    +0.000 S 
ATOM     17  O   UNL     1       7.481   6.138  16.195  0.00  0.00    +0.000 OA
ATOM     18  O   UNL     1       7.273   5.934  18.713  0.00  0.00    +0.000 OA
ENDBRANCH  13  16
ENDBRANCH   7  13
ENDBRANCH   1  12
BRANCH   4  19
ATOM     19  C   UNL     1       0.269  10.375  20.186  0.00  0.00    +0.000 A 
ATOM     20  C   UNL     1      -0.809  10.897  19.468  0.00  0.00    +0.000 A 
ATOM     21  N   UNL     1      -1.600  11.907  19.918  0.00  0.00    +0.000 NA
ATOM     22  C   UNL     1      -1.293  12.381  21.135  0.00  0.00    +0.000 A 
ATOM     23  C   UNL     1      -0.234  11.851  21.871  0.00  0.00    +0.000 A 
ATOM     24  N   UNL     1       0.556  10.842  21.426  0.00  0.00    +0.000 NA
BRANCH  22  25
ATOM     25  N   UNL     1      -2.050  13.456  21.592  0.00  0.00    +0.000 N 
ATOM     26  H   UNL     1      -2.658  13.734  20.825  0.00  0.00    +0.000 HD
ATOM     27  H   UNL     1      -2.574  13.227  22.428  0.00  0.00    +0.000 HD
ENDBRANCH  22  25
ENDBRANCH   4  19
TORSDOF 5
ENDMDL
MODEL 9
REMARK VINA RESULT:      -7.9      2.763      3.641
REMARK  Name = 
REMARK  6 active torsions:
REMARK  status: ('A' for Active; 'I' for Inactive)
REMARK    1  A    between atoms: C_1  and  S_2
REMARK    2  A    between atoms: S_2  and  N_5
REMARK    3  A    between atoms: N_5  and  C_6
REMARK    4  A    between atoms: C_11  and  C_12
REMARK    5  A    between atoms: C_15  and  C_16
REMARK    6  A    between atoms: C_19  and  N_20
REMARK                            x       y       z     vdW  Elec       q    Type
REMARK                         _______ _______ _______ _____ _____    ______ ____
ROOT
ATOM      1  C   UNL     1       2.572   6.613  18.616  0.00  0.00    +0.000 A 
ATOM      2  C   UNL     1       2.594   7.580  17.604  0.00  0.00    +0.000 A 
ATOM      3  C   UNL     1       2.022   8.841  17.787  0.00  0.00    +0.000 A 
ATOM      4  C   UNL     1       1.492   9.229  19.025  0.00  0.00    +0.000 A 
ATOM      5  C   UNL     1       1.628   8.330  20.092  0.00  0.00    +0.000 A 
ATOM      6  C   UNL     1       2.136   7.041  19.885  0.00  0.00    +0.000 A 
ENDROOT
BRANCH   1  12
ATOM      7  C   UNL     1       4.220   4.793  17.869  0.00  0.00    +0.000 A 
ATOM      8  C   UNL     1       4.472   3.448  17.571  0.00  0.00    +0.000 A 
ATOM      9  C   UNL     1       3.501   2.475  17.787  0.00  0.00    +0.000 A 
ATOM     10  C   UNL     1       2.262   2.843  18.297  0.00  0.00    +0.000 A 
ATOM     11  C   UNL     1       1.997   4.182  18.590  0.00  0.00    +0.000 A 
ATOM     12  C   UNL     1       2.953   5.202  18.375  0.00  0.00    +0.000 A 
BRANCH   7  13
ATOM     13  N   UNL     1       5.286   5.706  17.552  0.00  0.00    +0.000 N 
ATOM     14  H   UNL     1       5.472   5.816  16.558  0.00  0.00    +0.000 HD
BRANCH  13  16
ATOM     15  C   UNL     1       7.527   7.039  18.023  0.00  0.00    +0.000 C 
ATOM     16  S   UNL     1       6.772   5.459  18.331  0.00  0.00    +0.000 S 
ATOM     17  O   UNL     1       7.488   4.478  17.542  0.00  0.00    +0.000 OA
ATOM     18  O   UNL     1       6.583   5.317  19.756  0.00  0.00    +0.000 OA
ENDBRANCH  13  16
ENDBRANCH   7  13
ENDBRANCH   1  12
BRANCH   4  19
ATOM     19  C   UNL     1       0.812  10.517  19.198  0.00  0.00    +0.000 A 
ATOM     20  C   UNL     1      -0.431  10.636  19.823  0.00  0.00    +0.000 A 
ATOM     21  N   UNL     1      -1.099  11.812  19.960  0.00  0.00    +0.000 NA
ATOM     22  C   UNL     1      -0.476  12.891  19.462  0.00  0.00    +0.000 A 
ATOM     23  C   UNL     1       0.775  12.787  18.858  0.00  0.00    +0.000 A 
ATOM     24  N   UNL     1       1.448  11.616  18.722  0.00  0.00    +0.000 NA
BRANCH  22  25
ATOM     25  N   UNL     1      -1.168  14.096  19.536  0.00  0.00    +0.000 N 
ATOM     26  H   UNL     1      -1.805  14.022  20.326  0.00  0.00    +0.000 HD
ATOM     27  H   UNL     1      -0.545  14.890  19.624  0.00  0.00    +0.000 HD
ENDBRANCH  22  25
ENDBRANCH   4  19
TORSDOF 5
ENDMDL
