MODEL 1
REMARK VINA RESULT:      -9.3      0.000      0.000
REMARK  Name = 
REMARK  4 active torsions:
REMARK  status: ('A' for Active; 'I' for Inactive)
REMARK    1  A    between atoms: C_1  and  C_2
REMARK    2  A    between atoms: C_9  and  N_10
REMARK    3  A    between atoms: N_10  and  C_11
REMARK    4  A    between atoms: C_14  and  O_15
REMARK                            x       y       z     vdW  Elec       q    Type
REMARK                         _______ _______ _______ _____ _____    ______ ____
ROOT
ATOM      1  C   UNL     1       5.539   2.448  11.558  0.00  0.00    +0.000 C 
ATOM      2  C   UNL     1       6.047   3.396  12.615  0.00  0.00    +0.000 A 
ATOM      3  C   UNL     1       6.990   4.374  12.325  0.00  0.00    +0.000 A 
ATOM      4  C   UNL     1       7.475   5.196  13.339  0.00  0.00    +0.000 A 
ATOM      5  C   UNL     1       7.063   5.018  14.667  0.00  0.00    +0.000 A 
ATOM      6  N   UNL     1       7.580   5.834  15.622  0.00  0.00    +0.000 NA
ATOM      7  C   UNL     1       7.221   5.689  16.916  0.00  0.00    +0.000 A 
ATOM      8  C   UNL     1       6.314   4.733  17.321  0.00  0.00    +0.000 A 
ATOM      9  C   UNL     1       5.733   3.838  16.396  0.00  0.00    +0.000 A 
ATOM     10  C   UNL     1       6.112   4.010  15.002  0.00  0.00    +0.000 A 
ATOM     11  C   UNL     1       5.575   3.258  13.925  0.00  0.00    +0.000 A 
ATOM     12  C   UNL     1       6.050   4.881  18.789  0.00  0.00    +0.000 C 
ATOM     13  C   UNL     1       7.194   5.805  19.242  0.00  0.00    +0.000 C 
ATOM     14  C   UNL     1       7.650   6.586  18.011  0.00  0.00    +0.000 C 
ENDROOT
BRANCH   9  15
ATOM     15  N   UNL     1       4.810   2.832  16.874  0.00  0.00    +0.000 N 
ATOM     16  H   UNL     1       4.987   1.852  16.605  0.00  0.00    +0.000 HD
BRANCH  15  17
ATOM     17  C   UNL     1       3.738   3.094  17.785  0.00  0.00    +0.000 A 
ATOM     18  C   UNL     1       3.650   2.404  19.013  0.00  0.00    +0.000 A 
ATOM     19  C   UNL     1       2.497   2.493  19.793  0.00  0.00    +0.000 A 
ATOM     20  C   UNL     1       1.433   3.307  19.383  0.00  0.00    +0.000 A 
ATOM     21  C   UNL     1       1.559   4.077  18.221  0.00  0.00    +0.000 A 
ATOM     22  C   UNL     1       2.710   3.979  17.425  0.00  0.00    +0.000 A 
BRANCH  20  23
ATOM     23  O   UNL     1       0.282   3.334  20.083  0.00  0.00    +0.000 OA
ATOM     24  H   UNL     1       0.273   3.332  21.052  0.00  0.00    +0.000 HD
ENDBRANCH  20  23
ENDBRANCH  15  17
ENDBRANCH   9  15
TORSDOF 3
ENDMDL
MODEL 2
REMARK VINA RESULT:      -9.3      3.415      5.603
REMARK  Name = 
REMARK  4 active torsions:
REMARK  status: ('A' for Active; 'I' for Inactive)
REMARK    1  A    between atoms: C_1  and  C_2
REMARK    2  A    between atoms: C_9  and  N_10
REMARK    3  A    between atoms: N_10  and  C_11
REMARK    4  A    between atoms: C_14  and  O_15
REMARK                            x       y       z     vdW  Elec       q    Type
REMARK                         _______ _______ _______ _____ _____    ______ ____
ROOT
ATOM      1  C   UNL     1       7.658   7.663  17.445  0.00  0.00    +0.000 C 
ATOM      2  C   UNL     1       6.773   6.442  17.434  0.00  0.00    +0.000 A 
ATOM      3  C   UNL     1       7.025   5.366  16.593  0.00  0.00    +0.000 A 
ATOM      4  C   UNL     1       6.154   4.279  16.573  0.00  0.00    +0.000 A 
ATOM      5  C   UNL     1       4.992   4.275  17.357  0.00  0.00    +0.000 A 
ATOM      6  N   UNL     1       4.167   3.199  17.288  0.00  0.00    +0.000 NA
ATOM      7  C   UNL     1       3.030   3.159  18.016  0.00  0.00    +0.000 A 
ATOM      8  C   UNL     1       2.667   4.184  18.863  0.00  0.00    +0.000 A 
ATOM      9  C   UNL     1       3.463   5.343  18.991  0.00  0.00    +0.000 A 
ATOM     10  C   UNL     1       4.694   5.372  18.216  0.00  0.00    +0.000 A 
ATOM     11  C   UNL     1       5.654   6.415  18.274  0.00  0.00    +0.000 A 
ATOM     12  C   UNL     1       1.415   3.810  19.598  0.00  0.00    +0.000 C 
ATOM     13  C   UNL     1       0.908   2.598  18.796  0.00  0.00    +0.000 C 
ATOM     14  C   UNL     1       2.119   1.995  18.085  0.00  0.00    +0.000 C 
ENDROOT
BRANCH   9  15
ATOM     15  N   UNL     1       3.024   6.404  19.870  0.00  0.00    +0.000 N 
ATOM     16  H   UNL     1       3.373   6.398  20.841  0.00  0.00    +0.000 HD
BRANCH  15  17
ATOM     17  C   UNL     1       2.231   7.519  19.451  0.00  0.00    +0.000 A 
ATOM     18  C   UNL     1       2.251   7.955  18.108  0.00  0.00    +0.000 A 
ATOM     19  C   UNL     1       1.658   9.165  17.749  0.00  0.00    +0.000 A 
ATOM     20  C   UNL     1       0.998   9.937  18.713  0.00  0.00    +0.000 A 
ATOM     21  C   UNL     1       0.882   9.457  20.023  0.00  0.00    +0.000 A 
ATOM     22  C   UNL     1       1.490   8.249  20.393  0.00  0.00    +0.000 A 
BRANCH  20  23
ATOM     23  O   UNL     1       0.497  11.148  18.396  0.00  0.00    +0.000 OA
ATOM     24  H   UNL     1       0.537  11.497  17.493  0.00  0.00    +0.000 HD
ENDBRANCH  20  23
ENDBRANCH  15  17
ENDBRANCH   9  15
TORSDOF 3
ENDMDL
MODEL 3
REMARK VINA RESULT:      -9.2      0.272      1.058
REMARK  Name = 
REMARK  4 active torsions:
REMARK  status: ('A' for Active; 'I' for Inactive)
REMARK    1  A    between atoms: C_1  and  C_2
REMARK    2  A    between atoms: C_9  and  N_10
REMARK    3  A    between atoms: N_10  and  C_11
REMARK    4  A    between atoms: C_14  and  O_15
REMARK                            x       y       z     vdW  Elec       q    Type
REMARK                         _______ _______ _______ _____ _____    ______ ____
ROOT
ATOM      1  C   UNL     1       5.575   2.503  11.579  0.00  0.00    +0.000 C 
ATOM      2  C   UNL     1       6.059   3.434  12.663  0.00  0.00    +0.000 A 
ATOM      3  C   UNL     1       6.985   4.436  12.403  0.00  0.00    +0.000 A 
ATOM      4  C   UNL     1       7.448   5.243  13.441  0.00  0.00    +0.000 A 
ATOM      5  C   UNL     1       7.029   5.025  14.761  0.00  0.00    +0.000 A 
ATOM      6  N   UNL     1       7.524   5.827  15.739  0.00  0.00    +0.000 NA
ATOM      7  C   UNL     1       7.158   5.644  17.026  0.00  0.00    +0.000 A 
ATOM      8  C   UNL     1       6.266   4.662  17.401  0.00  0.00    +0.000 A 
ATOM      9  C   UNL     1       5.709   3.779  16.451  0.00  0.00    +0.000 A 
ATOM     10  C   UNL     1       6.095   3.992  15.064  0.00  0.00    +0.000 A 
ATOM     11  C   UNL     1       5.580   3.257  13.966  0.00  0.00    +0.000 A 
ATOM     12  C   UNL     1       5.988   4.769  18.870  0.00  0.00    +0.000 C 
ATOM     13  C   UNL     1       7.112   5.703  19.354  0.00  0.00    +0.000 C 
ATOM     14  C   UNL     1       7.563   6.522  18.146  0.00  0.00    +0.000 C 
ENDROOT
BRANCH   9  15
ATOM     15  N   UNL     1       4.801   2.746  16.898  0.00  0.00    +0.000 N 
ATOM     16  H   UNL     1       5.073   1.764  16.733  0.00  0.00    +0.000 HD
BRANCH  15  17
ATOM     17  C   UNL     1       3.609   2.993  17.650  0.00  0.00    +0.000 A 
ATOM     18  C   UNL     1       2.761   4.074  17.324  0.00  0.00    +0.000 A 
ATOM     19  C   UNL     1       1.730   4.447  18.185  0.00  0.00    +0.000 A 
ATOM     20  C   UNL     1       1.499   3.722  19.360  0.00  0.00    +0.000 A 
ATOM     21  C   UNL     1       2.267   2.584  19.634  0.00  0.00    +0.000 A 
ATOM     22  C   UNL     1       3.316   2.214  18.780  0.00  0.00    +0.000 A 
BRANCH  20  23
ATOM     23  O   UNL     1       0.561   4.125  20.241  0.00  0.00    +0.000 OA
ATOM     24  H   UNL     1       0.793   4.603  21.051  0.00  0.00    +0.000 HD
ENDBRANCH  20  23
ENDBRANCH  15  17
ENDBRANCH   9  15
TORSDOF 3
ENDMDL
MODEL 4
REMARK VINA RESULT:      -9.1      3.376      5.593
REMARK  Name = 
REMARK  4 active torsions:
REMARK  status: ('A' for Active; 'I' for Inactive)
REMARK    1  A    between atoms: C_1  and  C_2
REMARK    2  A    between atoms: C_9  and  N_10
REMARK    3  A    between atoms: N_10  and  C_11
REMARK    4  A    between atoms: C_14  and  O_15
REMARK                            x       y       z     vdW  Elec       q    Type
REMARK                         _______ _______ _______ _____ _____    ______ ____
ROOT
ATOM      1  C   UNL     1       7.527   7.311  17.255  0.00  0.00    +0.000 C 
ATOM      2  C   UNL     1       6.570   6.148  17.326  0.00  0.00    +0.000 A 
ATOM      3  C   UNL     1       6.708   5.038  16.503  0.00  0.00    +0.000 A 
ATOM      4  C   UNL     1       5.773   4.007  16.561  0.00  0.00    +0.000 A 
ATOM      5  C   UNL     1       4.658   4.096  17.407  0.00  0.00    +0.000 A 
ATOM      6  N   UNL     1       3.766   3.072  17.414  0.00  0.00    +0.000 NA
ATOM      7  C   UNL     1       2.671   3.121  18.203  0.00  0.00    +0.000 A 
ATOM      8  C   UNL     1       2.421   4.187  19.040  0.00  0.00    +0.000 A 
ATOM      9  C   UNL     1       3.291   5.297  19.092  0.00  0.00    +0.000 A 
ATOM     10  C   UNL     1       4.476   5.230  18.251  0.00  0.00    +0.000 A 
ATOM     11  C   UNL     1       5.500   6.212  18.227  0.00  0.00    +0.000 A 
ATOM     12  C   UNL     1       1.192   3.910  19.853  0.00  0.00    +0.000 C 
ATOM     13  C   UNL     1       0.567   2.712  19.113  0.00  0.00    +0.000 C 
ATOM     14  C   UNL     1       1.696   2.018  18.354  0.00  0.00    +0.000 C 
ENDROOT
BRANCH   9  15
ATOM     15  N   UNL     1       2.969   6.405  19.964  0.00  0.00    +0.000 N 
ATOM     16  H   UNL     1       3.301   6.360  20.940  0.00  0.00    +0.000 HD
BRANCH  15  17
ATOM     17  C   UNL     1       2.318   7.604  19.532  0.00  0.00    +0.000 A 
ATOM     18  C   UNL     1       1.547   8.370  20.433  0.00  0.00    +0.000 A 
ATOM     19  C   UNL     1       0.738   9.406  19.965  0.00  0.00    +0.000 A 
ATOM     20  C   UNL     1       0.720   9.722  18.602  0.00  0.00    +0.000 A 
ATOM     21  C   UNL     1       1.565   9.037  17.720  0.00  0.00    +0.000 A 
ATOM     22  C   UNL     1       2.368   7.984  18.182  0.00  0.00    +0.000 A 
BRANCH  20  23
ATOM     23  O   UNL     1      -0.122  10.663  18.127  0.00  0.00    +0.000 OA
ATOM     24  H   UNL     1       0.156  11.584  18.010  0.00  0.00    +0.000 HD
ENDBRANCH  20  23
ENDBRANCH  15  17
ENDBRANCH   9  15
TORSDOF 3
ENDMDL
MODEL 5
REMARK VINA RESULT:      -8.7      3.630      5.417
REMARK  Name = 
REMARK  4 active torsions:
REMARK  status: ('A' for Active; 'I' for Inactive)
REMARK    1  A    between atoms: C_1  and  C_2
REMARK    2  A    between atoms: C_9  and  N_10
REMARK    3  A    between atoms: N_10  and  C_11
REMARK    4  A    between atoms: C_14  and  O_15
REMARK                            x       y       z     vdW  Elec       q    Type
REMARK                         _______ _______ _______ _____ _____    ______ ____
ROOT
ATOM      1  C   UNL     1       0.361   2.713  18.979  0.00  0.00    +0.000 C 
ATOM      2  C   UNL     1       1.840   3.003  18.914  0.00  0.00    +0.000 A 
ATOM      3  C   UNL     1       2.780   2.111  19.413  0.00  0.00    +0.000 A 
ATOM      4  C   UNL     1       4.134   2.438  19.384  0.00  0.00    +0.000 A 
ATOM      5  C   UNL     1       4.562   3.683  18.902  0.00  0.00    +0.000 A 
ATOM      6  N   UNL     1       5.892   3.960  18.912  0.00  0.00    +0.000 NA
ATOM      7  C   UNL     1       6.347   5.153  18.470  0.00  0.00    +0.000 A 
ATOM      8  C   UNL     1       5.500   6.123  17.979  0.00  0.00    +0.000 A 
ATOM      9  C   UNL     1       4.103   5.922  17.939  0.00  0.00    +0.000 A 
ATOM     10  C   UNL     1       3.621   4.629  18.402  0.00  0.00    +0.000 A 
ATOM     11  C   UNL     1       2.264   4.218  18.365  0.00  0.00    +0.000 A 
ATOM     12  C   UNL     1       6.303   7.286  17.481  0.00  0.00    +0.000 C 
ATOM     13  C   UNL     1       7.693   7.013  18.083  0.00  0.00    +0.000 C 
ATOM     14  C   UNL     1       7.777   5.511  18.348  0.00  0.00    +0.000 C 
ENDROOT
BRANCH   9  15
ATOM     15  N   UNL     1       3.253   6.982  17.444  0.00  0.00    +0.000 N 
ATOM     16  H   UNL     1       3.088   7.028  16.426  0.00  0.00    +0.000 HD
BRANCH  15  17
ATOM     17  C   UNL     1       2.541   7.898  18.280  0.00  0.00    +0.000 A 
ATOM     18  C   UNL     1       2.271   7.583  19.630  0.00  0.00    +0.000 A 
ATOM     19  C   UNL     1       1.392   8.367  20.376  0.00  0.00    +0.000 A 
ATOM     20  C   UNL     1       0.804   9.501  19.804  0.00  0.00    +0.000 A 
ATOM     21  C   UNL     1       1.151   9.879  18.501  0.00  0.00    +0.000 A 
ATOM     22  C   UNL     1       2.022   9.085  17.741  0.00  0.00    +0.000 A 
BRANCH  20  23
ATOM     23  O   UNL     1      -0.112  10.217  20.487  0.00  0.00    +0.000 OA
ATOM     24  H   UNL     1      -0.132  11.186  20.454  0.00  0.00    +0.000 HD
ENDBRANCH  20  23
ENDBRANCH  15  17
ENDBRANCH   9  15
TORSDOF 3
ENDMDL
MODEL 6
REMARK VINA RESULT:      -8.6      3.676      5.496
REMARK  Name = 
REMARK  4 active torsions:
REMARK  status: ('A' for Active; 'I' for Inactive)
REMARK    1  A    between atoms: C_1  and  C_2
REMARK    2  A    between atoms: C_9  and  N_10
REMARK    3  A    between atoms: N_10  and  C_11
REMARK    4  A    between atoms: C_14  and  O_15
REMARK                            x       y       z     vdW  Elec       q    Type
REMARK                         _______ _______ _______ _____ _____    ______ ____
ROOT
ATOM      1  C   UNL     1       0.396   2.697  18.948  0.00  0.00    +0.000 C 
ATOM      2  C   UNL     1       1.876   2.985  18.920  0.00  0.00    +0.000 A 
ATOM      3  C   UNL     1       2.801   2.099  19.455  0.00  0.00    +0.000 A 
ATOM      4  C   UNL     1       4.156   2.424  19.458  0.00  0.00    +0.000 A 
ATOM      5  C   UNL     1       4.598   3.663  18.972  0.00  0.00    +0.000 A 
ATOM      6  N   UNL     1       5.927   3.939  19.014  0.00  0.00    +0.000 NA
ATOM      7  C   UNL     1       6.395   5.125  18.569  0.00  0.00    +0.000 A 
ATOM      8  C   UNL     1       5.563   6.090  18.043  0.00  0.00    +0.000 A 
ATOM      9  C   UNL     1       4.167   5.889  17.968  0.00  0.00    +0.000 A 
ATOM     10  C   UNL     1       3.672   4.603  18.434  0.00  0.00    +0.000 A 
ATOM     11  C   UNL     1       2.316   4.193  18.366  0.00  0.00    +0.000 A 
ATOM     12  C   UNL     1       6.380   7.246  17.551  0.00  0.00    +0.000 C 
ATOM     13  C   UNL     1       7.753   6.980  18.195  0.00  0.00    +0.000 C 
ATOM     14  C   UNL     1       7.829   5.481  18.482  0.00  0.00    +0.000 C 
ENDROOT
BRANCH   9  15
ATOM     15  N   UNL     1       3.332   6.943  17.436  0.00  0.00    +0.000 N 
ATOM     16  H   UNL     1       3.321   7.076  16.412  0.00  0.00    +0.000 HD
BRANCH  15  17
ATOM     17  C   UNL     1       2.440   7.736  18.224  0.00  0.00    +0.000 A 
ATOM     18  C   UNL     1       1.807   8.873  17.674  0.00  0.00    +0.000 A 
ATOM     19  C   UNL     1       1.120   9.765  18.496  0.00  0.00    +0.000 A 
ATOM     20  C   UNL     1       1.013   9.516  19.869  0.00  0.00    +0.000 A 
ATOM     21  C   UNL     1       1.545   8.335  20.402  0.00  0.00    +0.000 A 
ATOM     22  C   UNL     1       2.251   7.443  19.583  0.00  0.00    +0.000 A 
BRANCH  20  23
ATOM     23  O   UNL     1       0.425  10.414  20.686  0.00  0.00    +0.000 OA
ATOM     24  H   UNL     1      -0.360  10.913  20.415  0.00  0.00    +0.000 HD
ENDBRANCH  20  23
ENDBRANCH  15  17
ENDBRANCH   9  15
TORSDOF 3
ENDMDL
MODEL 7
REMARK VINA RESULT:      -8.4      1.009      1.443
REMARK  Name = 
REMARK  4 active torsions:
REMARK  status: ('A' for Active; 'I' for Inactive)
REMARK    1  A    between atoms: C_1  and  C_2
REMARK    2  A    between atoms: C_9  and  N_10
REMARK    3  A    between atoms: N_10  and  C_11
REMARK    4  A    between atoms: C_14  and  O_15
REMARK                            x       y       z     vdW  Elec       q    Type
REMARK                         _______ _______ _______ _____ _____    ______ ____
ROOT
ATOM      1  C   UNL     1       4.855   2.927  11.471  0.00  0.00    +0.000 C 
ATOM      2  C   UNL     1       5.571   3.646  12.588  0.00  0.00    +0.000 A 
ATOM      3  C   UNL     1       6.866   4.124  12.435  0.00  0.00    +0.000 A 
ATOM      4  C   UNL     1       7.514   4.735  13.506  0.00  0.00    +0.000 A 
ATOM      5  C   UNL     1       6.894   4.830  14.760  0.00  0.00    +0.000 A 
ATOM      6  N   UNL     1       7.576   5.419  15.777  0.00  0.00    +0.000 NA
ATOM      7  C   UNL     1       7.023   5.520  17.005  0.00  0.00    +0.000 A 
ATOM      8  C   UNL     1       5.754   5.054  17.276  0.00  0.00    +0.000 A 
ATOM      9  C   UNL     1       4.978   4.423  16.280  0.00  0.00    +0.000 A 
ATOM     10  C   UNL     1       5.574   4.331  14.956  0.00  0.00    +0.000 A 
ATOM     11  C   UNL     1       4.917   3.802  13.815  0.00  0.00    +0.000 A 
ATOM     12  C   UNL     1       5.386   5.394  18.689  0.00  0.00    +0.000 C 
ATOM     13  C   UNL     1       6.742   5.788  19.301  0.00  0.00    +0.000 C 
ATOM     14  C   UNL     1       7.642   6.228  18.147  0.00  0.00    +0.000 C 
ENDROOT
BRANCH   9  15
ATOM     15  N   UNL     1       3.664   3.924  16.622  0.00  0.00    +0.000 N 
ATOM     16  H   UNL     1       2.980   3.810  15.858  0.00  0.00    +0.000 HD
BRANCH  15  17
ATOM     17  C   UNL     1       3.290   3.475  17.928  0.00  0.00    +0.000 A 
ATOM     18  C   UNL     1       2.333   4.181  18.688  0.00  0.00    +0.000 A 
ATOM     19  C   UNL     1       2.134   3.876  20.034  0.00  0.00    +0.000 A 
ATOM     20  C   UNL     1       2.853   2.833  20.631  0.00  0.00    +0.000 A 
ATOM     21  C   UNL     1       3.724   2.059  19.855  0.00  0.00    +0.000 A 
ATOM     22  C   UNL     1       3.940   2.372  18.505  0.00  0.00    +0.000 A 
BRANCH  20  23
ATOM     23  O   UNL     1       2.733   2.585  21.951  0.00  0.00    +0.000 OA
ATOM     24  H   UNL     1       2.993   3.237  22.619  0.00  0.00    +0.000 HD
ENDBRANCH  20  23
ENDBRANCH  15  17
ENDBRANCH   9  15
TORSDOF 3
ENDMDL
MODEL 8
REMARK VINA RESULT:      -8.3      3.618      5.541
REMARK  Name = 
REMARK  4 active torsions:
REMARK  status: ('A' for Active; 'I' for Inactive)
REMARK    1  A    between atoms: C_1  and  C_2
REMARK    2  A    between atoms: C_9  and  N_10
REMARK    3  A    between atoms: N_10  and  C_11
REMARK    4  A    between atoms: C_14  and  O_15
REMARK                            x       y       z     vdW  Elec       q    Type
REMARK                         _______ _______ _______ _____ _____    ______ ____
ROOT
ATOM      1  C   UNL     1       7.823   8.325  17.478  0.00  0.00    +0.000 C 
ATOM      2  C   UNL     1       7.119   7.047  17.861  0.00  0.00    +0.000 A 
ATOM      3  C   UNL     1       7.824   5.898  18.194  0.00  0.00    +0.000 A 
ATOM      4  C   UNL     1       7.139   4.721  18.491  0.00  0.00    +0.000 A 
ATOM      5  C   UNL     1       5.741   4.665  18.408  0.00  0.00    +0.000 A 
ATOM      6  N   UNL     1       5.121   3.489  18.690  0.00  0.00    +0.000 NA
ATOM      7  C   UNL     1       3.777   3.385  18.610  0.00  0.00    +0.000 A 
ATOM      8  C   UNL     1       2.981   4.455  18.262  0.00  0.00    +0.000 A 
ATOM      9  C   UNL     1       3.541   5.712  17.946  0.00  0.00    +0.000 A 
ATOM     10  C   UNL     1       4.988   5.820  18.049  0.00  0.00    +0.000 A 
ATOM     11  C   UNL     1       5.720   7.019  17.847  0.00  0.00    +0.000 A 
ATOM     12  C   UNL     1       1.538   4.058  18.352  0.00  0.00    +0.000 C 
ATOM     13  C   UNL     1       1.620   2.523  18.442  0.00  0.00    +0.000 C 
ATOM     14  C   UNL     1       3.005   2.182  18.990  0.00  0.00    +0.000 C 
ENDROOT
BRANCH   9  15
ATOM     15  N   UNL     1       2.665   6.795  17.557  0.00  0.00    +0.000 N 
ATOM     16  H   UNL     1       2.307   6.798  16.589  0.00  0.00    +0.000 HD
BRANCH  15  17
ATOM     17  C   UNL     1       2.177   7.796  18.455  0.00  0.00    +0.000 A 
ATOM     18  C   UNL     1       2.048   7.527  19.835  0.00  0.00    +0.000 A 
ATOM     19  C   UNL     1       1.369   8.415  20.667  0.00  0.00    +0.000 A 
ATOM     20  C   UNL     1       0.848   9.606  20.147  0.00  0.00    +0.000 A 
ATOM     21  C   UNL     1       1.067   9.929  18.803  0.00  0.00    +0.000 A 
ATOM     22  C   UNL     1       1.735   9.032  17.958  0.00  0.00    +0.000 A 
BRANCH  20  23
ATOM     23  O   UNL     1       0.116  10.431  20.924  0.00  0.00    +0.000 OA
ATOM     24  H   UNL     1      -0.590  10.099  21.499  0.00  0.00    +0.000 HD
ENDBRANCH  20  23
ENDBRANCH  15  17
ENDBRANCH   9  15
TORSDOF 3
ENDMDL
MODEL 9
REMARK VINA RESULT:      -8.1      3.358      6.079
REMARK  Name = 
REMARK  4 active torsions:
REMARK  status: ('A' for Active; 'I' for Inactive)
REMARK    1  A    between atoms: C_1  and  C_2
REMARK    2  A    between atoms: C_9  and  N_10
REMARK    3  A    between atoms: N_10  and  C_11
REMARK    4  A    between atoms: C_14  and  O_15
REMARK                            x       y       z     vdW  Elec       q    Type
REMARK                         _______ _______ _______ _____ _____    ______ ____
ROOT
ATOM      1  C   UNL     1       1.178   2.807  21.685  0.00  0.00    +0.000 C 
ATOM      2  C   UNL     1       1.882   2.885  20.353  0.00  0.00    +0.000 A 
ATOM      3  C   UNL     1       2.084   1.758  19.568  0.00  0.00    +0.000 A 
ATOM      4  C   UNL     1       2.785   1.861  18.368  0.00  0.00    +0.000 A 
ATOM      5  C   UNL     1       3.338   3.084  17.963  0.00  0.00    +0.000 A 
ATOM      6  N   UNL     1       4.028   3.128  16.794  0.00  0.00    +0.000 NA
ATOM      7  C   UNL     1       4.588   4.282  16.371  0.00  0.00    +0.000 A 
ATOM      8  C   UNL     1       4.473   5.456  17.085  0.00  0.00    +0.000 A 
ATOM      9  C   UNL     1       3.780   5.499  18.314  0.00  0.00    +0.000 A 
ATOM     10  C   UNL     1       3.166   4.256  18.755  0.00  0.00    +0.000 A 
ATOM     11  C   UNL     1       2.367   4.125  19.920  0.00  0.00    +0.000 A 
ATOM     12  C   UNL     1       5.114   6.574  16.320  0.00  0.00    +0.000 C 
ATOM     13  C   UNL     1       5.928   5.823  15.251  0.00  0.00    +0.000 C 
ATOM     14  C   UNL     1       5.272   4.455  15.071  0.00  0.00    +0.000 C 
ENDROOT
BRANCH   9  15
ATOM     15  N   UNL     1       3.713   6.747  19.041  0.00  0.00    +0.000 N 
ATOM     16  H   UNL     1       4.562   7.058  19.539  0.00  0.00    +0.000 HD
BRANCH  15  17
ATOM     17  C   UNL     1       2.587   7.630  19.021  0.00  0.00    +0.000 A 
ATOM     18  C   UNL     1       2.248   8.339  17.848  0.00  0.00    +0.000 A 
ATOM     19  C   UNL     1       1.297   9.359  17.890  0.00  0.00    +0.000 A 
ATOM     20  C   UNL     1       0.638   9.656  19.089  0.00  0.00    +0.000 A 
ATOM     21  C   UNL     1       0.892   8.884  20.229  0.00  0.00    +0.000 A 
ATOM     22  C   UNL     1       1.859   7.869  20.196  0.00  0.00    +0.000 A 
BRANCH  20  23
ATOM     23  O   UNL     1      -0.219  10.695  19.161  0.00  0.00    +0.000 OA
ATOM     24  H   UNL     1      -0.838  10.795  19.900  0.00  0.00    +0.000 HD
ENDBRANCH  20  23
ENDBRANCH  15  17
ENDBRANCH   9  15
TORSDOF 3
ENDMDL
