MODEL 1
REMARK VINA RESULT:      -7.9      0.000      0.000
REMARK  Name = 
REMARK  8 active torsions:
REMARK  status: ('A' for Active; 'I' for Inactive)
REMARK    1  A    between atoms: C_1  and  O_2
REMARK    2  A    between atoms: O_2  and  C_3
REMARK    3  A    between atoms: C_3  and  C_4
REMARK    4  A    between atoms: C_3  and  O_25
REMARK    5  A    between atoms: C_4  and  N_5
REMARK    6  A    between atoms: C_6  and  C_8
REMARK    7  A    between atoms: N_16  and  C_17
REMARK    8  A    between atoms: O_25  and  C_26
REMARK                            x       y       z     vdW  Elec       q    Type
REMARK                         _______ _______ _______ _____ _____    ______ ____
ROOT
ATOM      1  C   UNL     1       5.273   5.157  16.184  0.00  0.00    +0.000 A 
ATOM      2  C   UNL     1       5.031   6.535  16.231  0.00  0.00    +0.000 A 
ATOM      3  C   UNL     1       4.147   7.084  17.166  0.00  0.00    +0.000 A 
ATOM      4  C   UNL     1       3.511   6.203  18.057  0.00  0.00    +0.000 A 
ATOM      5  C   UNL     1       3.786   4.835  18.055  0.00  0.00    +0.000 A 
ATOM      6  C   UNL     1       4.668   4.294  17.108  0.00  0.00    +0.000 A 
ATOM      7  N   UNL     1       3.129   4.189  19.066  0.00  0.00    +0.000 NA
ATOM      8  C   UNL     1       2.471   5.132  19.696  0.00  0.00    +0.000 A 
ATOM      9  N   UNL     1       2.631   6.373  19.117  0.00  0.00    +0.000 N 
ENDROOT
BRANCH   9  10
ATOM     10  C   UNL     1       2.003   7.566  19.554  0.00  0.00    +0.000 A 
ATOM     11  C   UNL     1       1.805   8.620  18.646  0.00  0.00    +0.000 A 
ATOM     12  C   UNL     1       1.193   9.801  19.071  0.00  0.00    +0.000 A 
ATOM     13  C   UNL     1       0.806   9.936  20.400  0.00  0.00    +0.000 A 
ATOM     14  F   UNL     1       0.237  11.081  20.805  0.00  0.00    +0.000 F 
ATOM     15  C   UNL     1       1.013   8.902  21.302  0.00  0.00    +0.000 A 
ATOM     16  F   UNL     1       0.662   9.045  22.587  0.00  0.00    +0.000 F 
ATOM     17  C   UNL     1       1.604   7.711  20.890  0.00  0.00    +0.000 A 
ENDBRANCH   9  10
BRANCH   1  19
ATOM     18  N   UNL     1       5.659   4.176  14.002  0.00  0.00    +0.000 N 
ATOM     19  C   UNL     1       6.222   4.635  15.167  0.00  0.00    +0.000 C 
ATOM     20  O   UNL     1       7.430   4.653  15.374  0.00  0.00    +0.000 OA
ATOM     21  H   UNL     1       4.667   4.270  13.818  0.00  0.00    +0.000 HD
BRANCH  18  22
ATOM     22  C   UNL     1       6.458   3.572  12.949  0.00  0.00    +0.000 C 
BRANCH  22  23
ATOM     23  C   UNL     1       5.610   3.181  11.716  0.00  0.00    +0.000 C 
BRANCH  23  25
ATOM     24  C   UNL     1       3.430   3.238  10.743  0.00  0.00    +0.000 C 
ATOM     25  O   UNL     1       4.229   3.512  11.882  0.00  0.00    +0.000 OA
ENDBRANCH  23  25
BRANCH  23  26
ATOM     26  O   UNL     1       5.725   1.761  11.531  0.00  0.00    +0.000 OA
ATOM     27  C   UNL     1       6.986   1.393  10.986  0.00  0.00    +0.000 C 
ENDBRANCH  23  26
ENDBRANCH  22  23
ENDBRANCH  18  22
ENDBRANCH   1  19
TORSDOF 6
ENDMDL
MODEL 2
REMARK VINA RESULT:      -7.9      0.567      1.329
REMARK  Name = 
REMARK  8 active torsions:
REMARK  status: ('A' for Active; 'I' for Inactive)
REMARK    1  A    between atoms: C_1  and  O_2
REMARK    2  A    between atoms: O_2  and  C_3
REMARK    3  A    between atoms: C_3  and  C_4
REMARK    4  A    between atoms: C_3  and  O_25
REMARK    5  A    between atoms: C_4  and  N_5
REMARK    6  A    between atoms: C_6  and  C_8
REMARK    7  A    between atoms: N_16  and  C_17
REMARK    8  A    between atoms: O_25  and  C_26
REMARK                            x       y       z     vdW  Elec       q    Type
REMARK                         _______ _______ _______ _____ _____    ______ ____
ROOT
ATOM      1  C   UNL     1       5.355   5.362  16.066  0.00  0.00    +0.000 A 
ATOM      2  C   UNL     1       4.962   6.704  16.091  0.00  0.00    +0.000 A 
ATOM      3  C   UNL     1       4.090   7.187  17.073  0.00  0.00    +0.000 A 
ATOM      4  C   UNL     1       3.625   6.275  18.035  0.00  0.00    +0.000 A 
ATOM      5  C   UNL     1       4.053   4.947  18.053  0.00  0.00    +0.000 A 
ATOM      6  C   UNL     1       4.921   4.473  17.058  0.00  0.00    +0.000 A 
ATOM      7  N   UNL     1       3.549   4.270  19.130  0.00  0.00    +0.000 NA
ATOM      8  C   UNL     1       2.835   5.157  19.780  0.00  0.00    +0.000 A 
ATOM      9  N   UNL     1       2.810   6.385  19.153  0.00  0.00    +0.000 N 
ENDROOT
BRANCH   9  10
ATOM     10  C   UNL     1       2.082   7.517  19.601  0.00  0.00    +0.000 A 
ATOM     11  C   UNL     1       1.582   7.547  20.914  0.00  0.00    +0.000 A 
ATOM     12  C   UNL     1       0.860   8.656  21.360  0.00  0.00    +0.000 A 
ATOM     13  C   UNL     1       0.617   9.714  20.490  0.00  0.00    +0.000 A 
ATOM     14  F   UNL     1      -0.095  10.766  20.920  0.00  0.00    +0.000 F 
ATOM     15  C   UNL     1       1.098   9.680  19.189  0.00  0.00    +0.000 A 
ATOM     16  F   UNL     1       0.841  10.690  18.347  0.00  0.00    +0.000 F 
ATOM     17  C   UNL     1       1.838   8.591  18.736  0.00  0.00    +0.000 A 
ENDBRANCH   9  10
BRANCH   1  19
ATOM     18  N   UNL     1       5.716   4.179  13.982  0.00  0.00    +0.000 N 
ATOM     19  C   UNL     1       6.283   4.911  14.996  0.00  0.00    +0.000 C 
ATOM     20  O   UNL     1       7.469   5.214  15.030  0.00  0.00    +0.000 OA
ATOM     21  H   UNL     1       4.715   4.033  13.927  0.00  0.00    +0.000 HD
BRANCH  18  22
ATOM     22  C   UNL     1       6.513   3.611  12.907  0.00  0.00    +0.000 C 
BRANCH  22  23
ATOM     23  C   UNL     1       5.650   3.176  11.699  0.00  0.00    +0.000 C 
BRANCH  23  25
ATOM     24  C   UNL     1       3.446   3.146  10.781  0.00  0.00    +0.000 C 
ATOM     25  O   UNL     1       4.289   3.596  11.828  0.00  0.00    +0.000 OA
ENDBRANCH  23  25
BRANCH  23  26
ATOM     26  O   UNL     1       5.686   1.743  11.622  0.00  0.00    +0.000 OA
ATOM     27  C   UNL     1       6.846   1.272  10.948  0.00  0.00    +0.000 C 
ENDBRANCH  23  26
ENDBRANCH  22  23
ENDBRANCH  18  22
ENDBRANCH   1  19
TORSDOF 6
ENDMDL
MODEL 3
REMARK VINA RESULT:      -7.8      2.377      4.126
REMARK  Name = 
REMARK  8 active torsions:
REMARK  status: ('A' for Active; 'I' for Inactive)
REMARK    1  A    between atoms: C_1  and  O_2
REMARK    2  A    between atoms: O_2  and  C_3
REMARK    3  A    between atoms: C_3  and  C_4
REMARK    4  A    between atoms: C_3  and  O_25
REMARK    5  A    between atoms: C_4  and  N_5
REMARK    6  A    between atoms: C_6  and  C_8
REMARK    7  A    between atoms: N_16  and  C_17
REMARK    8  A    between atoms: O_25  and  C_26
REMARK                            x       y       z     vdW  Elec       q    Type
REMARK                         _______ _______ _______ _____ _____    ______ ____
ROOT
ATOM      1  C   UNL     1       3.360   6.191  18.415  0.00  0.00    +0.000 A 
ATOM      2  C   UNL     1       2.700   6.106  19.646  0.00  0.00    +0.000 A 
ATOM      3  C   UNL     1       1.932   7.168  20.132  0.00  0.00    +0.000 A 
ATOM      4  C   UNL     1       1.844   8.325  19.338  0.00  0.00    +0.000 A 
ATOM      5  C   UNL     1       2.453   8.401  18.085  0.00  0.00    +0.000 A 
ATOM      6  C   UNL     1       3.228   7.332  17.612  0.00  0.00    +0.000 A 
ATOM      7  N   UNL     1       2.156   9.577  17.453  0.00  0.00    +0.000 NA
ATOM      8  C   UNL     1       1.368  10.216  18.283  0.00  0.00    +0.000 A 
ATOM      9  N   UNL     1       1.164   9.529  19.461  0.00  0.00    +0.000 N 
ENDROOT
BRANCH   9  10
ATOM     10  C   UNL     1       0.397   9.996  20.558  0.00  0.00    +0.000 A 
ATOM     11  C   UNL     1      -0.496  11.066  20.377  0.00  0.00    +0.000 A 
ATOM     12  C   UNL     1      -1.250  11.536  21.454  0.00  0.00    +0.000 A 
ATOM     13  C   UNL     1      -1.092  10.956  22.709  0.00  0.00    +0.000 A 
ATOM     14  F   UNL     1      -1.806  11.426  23.743  0.00  0.00    +0.000 F 
ATOM     15  C   UNL     1      -0.202   9.908  22.893  0.00  0.00    +0.000 A 
ATOM     16  F   UNL     1      -0.035   9.369  24.108  0.00  0.00    +0.000 F 
ATOM     17  C   UNL     1       0.543   9.415  21.825  0.00  0.00    +0.000 A 
ENDBRANCH   9  10
BRANCH   1  19
ATOM     18  N   UNL     1       4.739   5.153  16.714  0.00  0.00    +0.000 N 
ATOM     19  C   UNL     1       4.162   5.028  17.954  0.00  0.00    +0.000 C 
ATOM     20  O   UNL     1       4.305   4.046  18.671  0.00  0.00    +0.000 OA
ATOM     21  H   UNL     1       4.690   6.018  16.190  0.00  0.00    +0.000 HD
BRANCH  18  22
ATOM     22  C   UNL     1       5.492   4.068  16.104  0.00  0.00    +0.000 C 
BRANCH  22  23
ATOM     23  C   UNL     1       6.899   4.513  15.643  0.00  0.00    +0.000 C 
BRANCH  23  25
ATOM     24  C   UNL     1       7.816   4.564  17.848  0.00  0.00    +0.000 C 
ATOM     25  O   UNL     1       7.580   5.275  16.644  0.00  0.00    +0.000 OA
ENDBRANCH  23  25
BRANCH  23  26
ATOM     26  O   UNL     1       6.745   5.326  14.470  0.00  0.00    +0.000 OA
ATOM     27  C   UNL     1       7.052   4.610  13.280  0.00  0.00    +0.000 C 
ENDBRANCH  23  26
ENDBRANCH  22  23
ENDBRANCH  18  22
ENDBRANCH   1  19
TORSDOF 6
ENDMDL
MODEL 4
REMARK VINA RESULT:      -7.8      5.254      9.207
REMARK  Name = 
REMARK  8 active torsions:
REMARK  status: ('A' for Active; 'I' for Inactive)
REMARK    1  A    between atoms: C_1  and  O_2
REMARK    2  A    between atoms: O_2  and  C_3
REMARK    3  A    between atoms: C_3  and  C_4
REMARK    4  A    between atoms: C_3  and  O_25
REMARK    5  A    between atoms: C_4  and  N_5
REMARK    6  A    between atoms: C_6  and  C_8
REMARK    7  A    between atoms: N_16  and  C_17
REMARK    8  A    between atoms: O_25  and  C_26
REMARK                            x       y       z     vdW  Elec       q    Type
REMARK                         _______ _______ _______ _____ _____    ______ ____
ROOT
ATOM      1  C   UNL     1       3.463   5.661  19.146  0.00  0.00    +0.000 A 
ATOM      2  C   UNL     1       3.102   5.616  17.795  0.00  0.00    +0.000 A 
ATOM      3  C   UNL     1       4.043   5.322  16.803  0.00  0.00    +0.000 A 
ATOM      4  C   UNL     1       5.364   5.071  17.212  0.00  0.00    +0.000 A 
ATOM      5  C   UNL     1       5.723   5.059  18.560  0.00  0.00    +0.000 A 
ATOM      6  C   UNL     1       4.773   5.364  19.546  0.00  0.00    +0.000 A 
ATOM      7  N   UNL     1       7.032   4.699  18.729  0.00  0.00    +0.000 NA
ATOM      8  C   UNL     1       7.478   4.475  17.516  0.00  0.00    +0.000 A 
ATOM      9  N   UNL     1       6.528   4.714  16.546  0.00  0.00    +0.000 N 
ENDROOT
BRANCH   9  10
ATOM     10  C   UNL     1       6.741   4.602  15.148  0.00  0.00    +0.000 A 
ATOM     11  C   UNL     1       7.704   5.413  14.524  0.00  0.00    +0.000 A 
ATOM     12  C   UNL     1       7.915   5.312  13.147  0.00  0.00    +0.000 A 
ATOM     13  C   UNL     1       7.148   4.426  12.398  0.00  0.00    +0.000 A 
ATOM     14  F   UNL     1       7.343   4.349  11.073  0.00  0.00    +0.000 F 
ATOM     15  C   UNL     1       6.187   3.634  13.010  0.00  0.00    +0.000 A 
ATOM     16  F   UNL     1       5.434   2.799  12.281  0.00  0.00    +0.000 F 
ATOM     17  C   UNL     1       5.979   3.708  14.384  0.00  0.00    +0.000 A 
ENDBRANCH   9  10
BRANCH   1  19
ATOM     18  N   UNL     1       2.134   7.314  20.319  0.00  0.00    +0.000 N 
ATOM     19  C   UNL     1       2.417   5.980  20.153  0.00  0.00    +0.000 C 
ATOM     20  O   UNL     1       1.840   5.085  20.758  0.00  0.00    +0.000 OA
ATOM     21  H   UNL     1       2.552   8.023  19.730  0.00  0.00    +0.000 HD
BRANCH  18  22
ATOM     22  C   UNL     1       1.185   7.778  21.319  0.00  0.00    +0.000 C 
BRANCH  22  23
ATOM     23  C   UNL     1       0.923   9.299  21.222  0.00  0.00    +0.000 C 
BRANCH  23  25
ATOM     24  C   UNL     1      -0.422   9.840  23.119  0.00  0.00    +0.000 C 
ATOM     25  O   UNL     1       0.855   9.919  22.509  0.00  0.00    +0.000 OA
ENDBRANCH  23  25
BRANCH  23  26
ATOM     26  O   UNL     1      -0.331   9.491  20.550  0.00  0.00    +0.000 OA
ATOM     27  C   UNL     1      -0.210  10.354  19.427  0.00  0.00    +0.000 C 
ENDBRANCH  23  26
ENDBRANCH  22  23
ENDBRANCH  18  22
ENDBRANCH   1  19
TORSDOF 6
ENDMDL
MODEL 5
REMARK VINA RESULT:      -7.7      2.374      4.468
REMARK  Name = 
REMARK  8 active torsions:
REMARK  status: ('A' for Active; 'I' for Inactive)
REMARK    1  A    between atoms: C_1  and  O_2
REMARK    2  A    between atoms: O_2  and  C_3
REMARK    3  A    between atoms: C_3  and  C_4
REMARK    4  A    between atoms: C_3  and  O_25
REMARK    5  A    between atoms: C_4  and  N_5
REMARK    6  A    between atoms: C_6  and  C_8
REMARK    7  A    between atoms: N_16  and  C_17
REMARK    8  A    between atoms: O_25  and  C_26
REMARK                            x       y       z     vdW  Elec       q    Type
REMARK                         _______ _______ _______ _____ _____    ______ ____
ROOT
ATOM      1  C   UNL     1       3.105   6.454  18.543  0.00  0.00    +0.000 A 
ATOM      2  C   UNL     1       2.441   6.370  19.771  0.00  0.00    +0.000 A 
ATOM      3  C   UNL     1       1.677   7.437  20.256  0.00  0.00    +0.000 A 
ATOM      4  C   UNL     1       1.599   8.595  19.465  0.00  0.00    +0.000 A 
ATOM      5  C   UNL     1       2.212   8.670  18.214  0.00  0.00    +0.000 A 
ATOM      6  C   UNL     1       2.982   7.597  17.741  0.00  0.00    +0.000 A 
ATOM      7  N   UNL     1       1.925   9.849  17.582  0.00  0.00    +0.000 NA
ATOM      8  C   UNL     1       1.138  10.491  18.411  0.00  0.00    +0.000 A 
ATOM      9  N   UNL     1       0.926   9.803  19.587  0.00  0.00    +0.000 N 
ENDROOT
BRANCH   9  10
ATOM     10  C   UNL     1       0.158  10.273  20.683  0.00  0.00    +0.000 A 
ATOM     11  C   UNL     1       0.268   9.639  21.932  0.00  0.00    +0.000 A 
ATOM     12  C   UNL     1      -0.490  10.092  23.014  0.00  0.00    +0.000 A 
ATOM     13  C   UNL     1      -1.370  11.155  22.840  0.00  0.00    +0.000 A 
ATOM     14  F   UNL     1      -2.109  11.572  23.879  0.00  0.00    +0.000 F 
ATOM     15  C   UNL     1      -1.491  11.774  21.604  0.00  0.00    +0.000 A 
ATOM     16  F   UNL     1      -2.357  12.782  21.434  0.00  0.00    +0.000 F 
ATOM     17  C   UNL     1      -0.727  11.347  20.520  0.00  0.00    +0.000 A 
ENDBRANCH   9  10
BRANCH   1  19
ATOM     18  N   UNL     1       4.720   5.509  17.002  0.00  0.00    +0.000 N 
ATOM     19  C   UNL     1       3.901   5.287  18.082  0.00  0.00    +0.000 C 
ATOM     20  O   UNL     1       3.832   4.214  18.669  0.00  0.00    +0.000 OA
ATOM     21  H   UNL     1       4.835   6.433  16.604  0.00  0.00    +0.000 HD
BRANCH  18  22
ATOM     22  C   UNL     1       5.502   4.442  16.399  0.00  0.00    +0.000 C 
BRANCH  22  23
ATOM     23  C   UNL     1       6.864   4.941  15.862  0.00  0.00    +0.000 C 
BRANCH  23  25
ATOM     24  C   UNL     1       5.969   3.906  13.904  0.00  0.00    +0.000 C 
ATOM     25  O   UNL     1       7.064   4.592  14.489  0.00  0.00    +0.000 OA
ENDBRANCH  23  25
BRANCH  23  26
ATOM     26  O   UNL     1       7.900   4.333  16.648  0.00  0.00    +0.000 OA
ATOM     27  C   UNL     1       7.790   4.665  18.026  0.00  0.00    +0.000 C 
ENDBRANCH  23  26
ENDBRANCH  22  23
ENDBRANCH  18  22
ENDBRANCH   1  19
TORSDOF 6
ENDMDL
MODEL 6
REMARK VINA RESULT:      -7.7      5.141      9.143
REMARK  Name = 
REMARK  8 active torsions:
REMARK  status: ('A' for Active; 'I' for Inactive)
REMARK    1  A    between atoms: C_1  and  O_2
REMARK    2  A    between atoms: O_2  and  C_3
REMARK    3  A    between atoms: C_3  and  C_4
REMARK    4  A    between atoms: C_3  and  O_25
REMARK    5  A    between atoms: C_4  and  N_5
REMARK    6  A    between atoms: C_6  and  C_8
REMARK    7  A    between atoms: N_16  and  C_17
REMARK    8  A    between atoms: O_25  and  C_26
REMARK                            x       y       z     vdW  Elec       q    Type
REMARK                         _______ _______ _______ _____ _____    ______ ____
ROOT
ATOM      1  C   UNL     1       3.510   5.668  19.134  0.00  0.00    +0.000 A 
ATOM      2  C   UNL     1       3.143   5.623  17.785  0.00  0.00    +0.000 A 
ATOM      3  C   UNL     1       4.081   5.332  16.788  0.00  0.00    +0.000 A 
ATOM      4  C   UNL     1       5.404   5.085  17.191  0.00  0.00    +0.000 A 
ATOM      5  C   UNL     1       5.769   5.073  18.538  0.00  0.00    +0.000 A 
ATOM      6  C   UNL     1       4.822   5.374  19.528  0.00  0.00    +0.000 A 
ATOM      7  N   UNL     1       7.080   4.716  18.700  0.00  0.00    +0.000 NA
ATOM      8  C   UNL     1       7.521   4.494  17.485  0.00  0.00    +0.000 A 
ATOM      9  N   UNL     1       6.567   4.732  16.519  0.00  0.00    +0.000 N 
ENDROOT
BRANCH   9  10
ATOM     10  C   UNL     1       6.773   4.621  15.121  0.00  0.00    +0.000 A 
ATOM     11  C   UNL     1       7.728   5.439  14.492  0.00  0.00    +0.000 A 
ATOM     12  C   UNL     1       7.932   5.339  13.114  0.00  0.00    +0.000 A 
ATOM     13  C   UNL     1       7.169   4.448  12.368  0.00  0.00    +0.000 A 
ATOM     14  F   UNL     1       7.357   4.373  11.042  0.00  0.00    +0.000 F 
ATOM     15  C   UNL     1       6.215   3.650  12.984  0.00  0.00    +0.000 A 
ATOM     16  F   UNL     1       5.465   2.810  12.259  0.00  0.00    +0.000 F 
ATOM     17  C   UNL     1       6.014   3.722  14.360  0.00  0.00    +0.000 A 
ENDBRANCH   9  10
BRANCH   1  19
ATOM     18  N   UNL     1       2.161   7.313  20.294  0.00  0.00    +0.000 N 
ATOM     19  C   UNL     1       2.468   5.983  20.146  0.00  0.00    +0.000 C 
ATOM     20  O   UNL     1       1.914   5.087  20.771  0.00  0.00    +0.000 OA
ATOM     21  H   UNL     1       2.559   8.021  19.689  0.00  0.00    +0.000 HD
BRANCH  18  22
ATOM     22  C   UNL     1       1.213   7.775  21.295  0.00  0.00    +0.000 C 
BRANCH  22  23
ATOM     23  C   UNL     1       0.590   9.143  20.930  0.00  0.00    +0.000 C 
BRANCH  23  25
ATOM     24  C   UNL     1       0.812  11.065  19.530  0.00  0.00    +0.000 C 
ATOM     25  O   UNL     1       1.195   9.721  19.770  0.00  0.00    +0.000 OA
ENDBRANCH  23  25
BRANCH  23  26
ATOM     26  O   UNL     1       0.785  10.030  22.043  0.00  0.00    +0.000 OA
ATOM     27  C   UNL     1      -0.314  10.006  22.944  0.00  0.00    +0.000 C 
ENDBRANCH  23  26
ENDBRANCH  22  23
ENDBRANCH  18  22
ENDBRANCH   1  19
TORSDOF 6
ENDMDL
MODEL 7
REMARK VINA RESULT:      -7.6      5.224      9.205
REMARK  Name = 
REMARK  8 active torsions:
REMARK  status: ('A' for Active; 'I' for Inactive)
REMARK    1  A    between atoms: C_1  and  O_2
REMARK    2  A    between atoms: O_2  and  C_3
REMARK    3  A    between atoms: C_3  and  C_4
REMARK    4  A    between atoms: C_3  and  O_25
REMARK    5  A    between atoms: C_4  and  N_5
REMARK    6  A    between atoms: C_6  and  C_8
REMARK    7  A    between atoms: N_16  and  C_17
REMARK    8  A    between atoms: O_25  and  C_26
REMARK                            x       y       z     vdW  Elec       q    Type
REMARK                         _______ _______ _______ _____ _____    ______ ____
ROOT
ATOM      1  C   UNL     1       3.356   5.880  19.195  0.00  0.00    +0.000 A 
ATOM      2  C   UNL     1       3.015   5.852  17.838  0.00  0.00    +0.000 A 
ATOM      3  C   UNL     1       3.953   5.501  16.862  0.00  0.00    +0.000 A 
ATOM      4  C   UNL     1       5.250   5.175  17.293  0.00  0.00    +0.000 A 
ATOM      5  C   UNL     1       5.587   5.146  18.647  0.00  0.00    +0.000 A 
ATOM      6  C   UNL     1       4.640   5.508  19.616  0.00  0.00    +0.000 A 
ATOM      7  N   UNL     1       6.870   4.711  18.837  0.00  0.00    +0.000 NA
ATOM      8  C   UNL     1       7.321   4.459  17.632  0.00  0.00    +0.000 A 
ATOM      9  N   UNL     1       6.403   4.750  16.646  0.00  0.00    +0.000 N 
ENDROOT
BRANCH   9  10
ATOM     10  C   UNL     1       6.631   4.622  15.252  0.00  0.00    +0.000 A 
ATOM     11  C   UNL     1       5.884   3.692  14.509  0.00  0.00    +0.000 A 
ATOM     12  C   UNL     1       6.107   3.555  13.137  0.00  0.00    +0.000 A 
ATOM     13  C   UNL     1       7.088   4.324  12.520  0.00  0.00    +0.000 A 
ATOM     14  F   UNL     1       7.310   4.173  11.206  0.00  0.00    +0.000 F 
ATOM     15  C   UNL     1       7.837   5.233  13.255  0.00  0.00    +0.000 A 
ATOM     16  F   UNL     1       8.797   5.954  12.662  0.00  0.00    +0.000 F 
ATOM     17  C   UNL     1       7.612   5.396  14.619  0.00  0.00    +0.000 A 
ENDBRANCH   9  10
BRANCH   1  19
ATOM     18  N   UNL     1       2.043   7.604  20.279  0.00  0.00    +0.000 N 
ATOM     19  C   UNL     1       2.314   6.261  20.184  0.00  0.00    +0.000 C 
ATOM     20  O   UNL     1       1.731   5.405  20.838  0.00  0.00    +0.000 OA
ATOM     21  H   UNL     1       2.465   8.277  19.652  0.00  0.00    +0.000 HD
BRANCH  18  22
ATOM     22  C   UNL     1       1.100   8.130  21.253  0.00  0.00    +0.000 C 
BRANCH  22  23
ATOM     23  C   UNL     1       0.976   9.670  21.183  0.00  0.00    +0.000 C 
BRANCH  23  25
ATOM     24  C   UNL     1      -0.180   9.515  23.267  0.00  0.00    +0.000 C 
ATOM     25  O   UNL     1      -0.079  10.166  22.011  0.00  0.00    +0.000 OA
ENDBRANCH  23  25
BRANCH  23  26
ATOM     26  O   UNL     1       0.703  10.031  19.821  0.00  0.00    +0.000 OA
ATOM     27  C   UNL     1      -0.681  10.266  19.598  0.00  0.00    +0.000 C 
ENDBRANCH  23  26
ENDBRANCH  22  23
ENDBRANCH  18  22
ENDBRANCH   1  19
TORSDOF 6
ENDMDL
MODEL 8
REMARK VINA RESULT:      -7.6      0.389      1.286
REMARK  Name = 
REMARK  8 active torsions:
REMARK  status: ('A' for Active; 'I' for Inactive)
REMARK    1  A    between atoms: C_1  and  O_2
REMARK    2  A    between atoms: O_2  and  C_3
REMARK    3  A    between atoms: C_3  and  C_4
REMARK    4  A    between atoms: C_3  and  O_25
REMARK    5  A    between atoms: C_4  and  N_5
REMARK    6  A    between atoms: C_6  and  C_8
REMARK    7  A    between atoms: N_16  and  C_17
REMARK    8  A    between atoms: O_25  and  C_26
REMARK                            x       y       z     vdW  Elec       q    Type
REMARK                         _______ _______ _______ _____ _____    ______ ____
ROOT
ATOM      1  C   UNL     1       5.281   5.209  16.114  0.00  0.00    +0.000 A 
ATOM      2  C   UNL     1       5.064   6.587  16.219  0.00  0.00    +0.000 A 
ATOM      3  C   UNL     1       4.174   7.111  17.163  0.00  0.00    +0.000 A 
ATOM      4  C   UNL     1       3.508   6.203  18.003  0.00  0.00    +0.000 A 
ATOM      5  C   UNL     1       3.757   4.832  17.945  0.00  0.00    +0.000 A 
ATOM      6  C   UNL     1       4.645   4.317  16.988  0.00  0.00    +0.000 A 
ATOM      7  N   UNL     1       3.072   4.154  18.915  0.00  0.00    +0.000 NA
ATOM      8  C   UNL     1       2.421   5.080  19.576  0.00  0.00    +0.000 A 
ATOM      9  N   UNL     1       2.613   6.343  19.056  0.00  0.00    +0.000 N 
ENDROOT
BRANCH   9  10
ATOM     10  C   UNL     1       1.999   7.527  19.536  0.00  0.00    +0.000 A 
ATOM     11  C   UNL     1       1.770   8.597  18.654  0.00  0.00    +0.000 A 
ATOM     12  C   UNL     1       1.171   9.770  19.121  0.00  0.00    +0.000 A 
ATOM     13  C   UNL     1       0.830   9.880  20.464  0.00  0.00    +0.000 A 
ATOM     14  F   UNL     1       0.274  11.017  20.909  0.00  0.00    +0.000 F 
ATOM     15  C   UNL     1       1.069   8.830  21.340  0.00  0.00    +0.000 A 
ATOM     16  F   UNL     1       0.761   8.949  22.638  0.00  0.00    +0.000 F 
ATOM     17  C   UNL     1       1.646   7.647  20.886  0.00  0.00    +0.000 A 
ENDBRANCH   9  10
BRANCH   1  19
ATOM     18  N   UNL     1       5.678   4.178  13.957  0.00  0.00    +0.000 N 
ATOM     19  C   UNL     1       6.238   4.714  15.090  0.00  0.00    +0.000 C 
ATOM     20  O   UNL     1       7.446   4.820  15.264  0.00  0.00    +0.000 OA
ATOM     21  H   UNL     1       4.678   4.201  13.797  0.00  0.00    +0.000 HD
BRANCH  18  22
ATOM     22  C   UNL     1       6.490   3.591  12.903  0.00  0.00    +0.000 C 
BRANCH  22  23
ATOM     23  C   UNL     1       5.665   2.689  11.957  0.00  0.00    +0.000 C 
BRANCH  23  25
ATOM     24  C   UNL     1       6.169   0.487  11.180  0.00  0.00    +0.000 C 
ATOM     25  O   UNL     1       6.496   1.866  11.133  0.00  0.00    +0.000 OA
ENDBRANCH  23  25
BRANCH  23  26
ATOM     26  O   UNL     1       4.874   3.539  11.111  0.00  0.00    +0.000 OA
ATOM     27  C   UNL     1       3.533   3.083  10.999  0.00  0.00    +0.000 C 
ENDBRANCH  23  26
ENDBRANCH  22  23
ENDBRANCH  18  22
ENDBRANCH   1  19
TORSDOF 6
ENDMDL
MODEL 9
REMARK VINA RESULT:      -7.6      3.066      5.079
REMARK  Name = 
REMARK  8 active torsions:
REMARK  status: ('A' for Active; 'I' for Inactive)
REMARK    1  A    between atoms: C_1  and  O_2
REMARK    2  A    between atoms: O_2  and  C_3
REMARK    3  A    between atoms: C_3  and  C_4
REMARK    4  A    between atoms: C_3  and  O_25
REMARK    5  A    between atoms: C_4  and  N_5
REMARK    6  A    between atoms: C_6  and  C_8
REMARK    7  A    between atoms: N_16  and  C_17
REMARK    8  A    between atoms: O_25  and  C_26
REMARK                            x       y       z     vdW  Elec       q    Type
REMARK                         _______ _______ _______ _____ _____    ______ ____
ROOT
ATOM      1  C   UNL     1       2.802   6.900  18.474  0.00  0.00    +0.000 A 
ATOM      2  C   UNL     1       2.771   8.017  17.631  0.00  0.00    +0.000 A 
ATOM      3  C   UNL     1       2.141   9.203  18.021  0.00  0.00    +0.000 A 
ATOM      4  C   UNL     1       1.540   9.234  19.291  0.00  0.00    +0.000 A 
ATOM      5  C   UNL     1       1.612   8.146  20.162  0.00  0.00    +0.000 A 
ATOM      6  C   UNL     1       2.240   6.959  19.756  0.00  0.00    +0.000 A 
ATOM      7  N   UNL     1       1.044   8.433  21.372  0.00  0.00    +0.000 NA
ATOM      8  C   UNL     1       0.640   9.676  21.268  0.00  0.00    +0.000 A 
ATOM      9  N   UNL     1       0.879  10.212  20.021  0.00  0.00    +0.000 N 
ENDROOT
BRANCH   9  10
ATOM     10  C   UNL     1       0.509  11.517  19.607  0.00  0.00    +0.000 A 
ATOM     11  C   UNL     1      -0.496  11.679  18.637  0.00  0.00    +0.000 A 
ATOM     12  C   UNL     1      -0.862  12.961  18.220  0.00  0.00    +0.000 A 
ATOM     13  C   UNL     1      -0.209  14.069  18.749  0.00  0.00    +0.000 A 
ATOM     14  F   UNL     1      -0.552  15.295  18.328  0.00  0.00    +0.000 F 
ATOM     15  C   UNL     1       0.793  13.910  19.696  0.00  0.00    +0.000 A 
ATOM     16  F   UNL     1       1.436  14.979  20.185  0.00  0.00    +0.000 F 
ATOM     17  C   UNL     1       1.155  12.641  20.138  0.00  0.00    +0.000 A 
ENDBRANCH   9  10
BRANCH   1  19
ATOM     18  N   UNL     1       4.849   5.763  17.851  0.00  0.00    +0.000 N 
ATOM     19  C   UNL     1       3.487   5.669  18.002  0.00  0.00    +0.000 C 
ATOM     20  O   UNL     1       2.853   4.642  17.798  0.00  0.00    +0.000 OA
ATOM     21  H   UNL     1       5.359   6.593  18.128  0.00  0.00    +0.000 HD
BRANCH  18  22
ATOM     22  C   UNL     1       5.641   4.661  17.329  0.00  0.00    +0.000 C 
BRANCH  22  23
ATOM     23  C   UNL     1       7.131   5.036  17.155  0.00  0.00    +0.000 C 
BRANCH  23  25
ATOM     24  C   UNL     1       6.864   4.553  14.831  0.00  0.00    +0.000 C 
ATOM     25  O   UNL     1       7.699   4.463  15.974  0.00  0.00    +0.000 OA
ENDBRANCH  23  25
BRANCH  23  26
ATOM     26  O   UNL     1       7.848   4.544  18.298  0.00  0.00    +0.000 OA
ATOM     27  C   UNL     1       8.007   5.541  19.299  0.00  0.00    +0.000 C 
ENDBRANCH  23  26
ENDBRANCH  22  23
ENDBRANCH  18  22
ENDBRANCH   1  19
TORSDOF 6
ENDMDL
