MODEL 1
REMARK VINA RESULT:      -8.0      0.000      0.000
REMARK  Name = 
REMARK  5 active torsions:
REMARK  status: ('A' for Active; 'I' for Inactive)
REMARK    1  A    between atoms: C_2  and  C_18
REMARK    2  A    between atoms: N_3  and  C_4
REMARK    3  A    between atoms: C_6  and  C_7
REMARK    4  A    between atoms: C_12  and  C_13
REMARK    5  A    between atoms: C_23  and  O_24
REMARK                            x       y       z     vdW  Elec       q    Type
REMARK                         _______ _______ _______ _____ _____    ______ ____
ROOT
ATOM      1  C   UNL     1       2.754   6.449  18.676  0.00  0.00    +0.000 A 
ATOM      2  C   UNL     1       3.783   6.614  17.748  0.00  0.00    +0.000 A 
ATOM      3  C   UNL     1       4.272   5.536  16.997  0.00  0.00    +0.000 A 
ATOM      4  C   UNL     1       3.727   4.262  17.208  0.00  0.00    +0.000 A 
ATOM      5  C   UNL     1       2.705   4.065  18.150  0.00  0.00    +0.000 A 
ATOM      6  C   UNL     1       2.233   5.168  18.888  0.00  0.00    +0.000 A 
ENDROOT
BRANCH   1   9
ATOM      7  O   UNL     1       1.373   8.853  17.687  0.00  0.00    +0.000 OA
ATOM      8  C   UNL     1       1.575   8.639  18.881  0.00  0.00    +0.000 C 
ATOM      9  N   UNL     1       2.205   7.524  19.408  0.00  0.00    +0.000 N 
ATOM     10  H   UNL     1       2.178   7.440  20.421  0.00  0.00    +0.000 HD
BRANCH   8  11
ATOM     11  C   UNL     1       1.098   9.666  19.842  0.00  0.00    +0.000 A 
ATOM     12  C   UNL     1       0.737   9.212  21.117  0.00  0.00    +0.000 A 
ATOM     13  C   UNL     1       0.323  10.135  22.059  0.00  0.00    +0.000 A 
ATOM     14  N   UNL     1       0.252  11.460  21.817  0.00  0.00    +0.000 NA
ATOM     15  C   UNL     1       0.609  11.877  20.582  0.00  0.00    +0.000 A 
ATOM     16  C   UNL     1       1.037  11.031  19.566  0.00  0.00    +0.000 A 
BRANCH  16  17
ATOM     17  O   UNL     1       1.392  11.527  18.343  0.00  0.00    +0.000 OA
ATOM     18  H   UNL     1       0.583  11.748  17.846  0.00  0.00    +0.000 HD
ENDBRANCH  16  17
ENDBRANCH   8  11
ENDBRANCH   1   9
BRANCH   3  19
ATOM     19  C   UNL     1       5.350   5.752  15.963  0.00  0.00    +0.000 C 
ATOM     20  F   UNL     1       6.562   6.084  16.485  0.00  0.00    +0.000 F 
ATOM     21  F   UNL     1       5.563   4.645  15.199  0.00  0.00    +0.000 F 
ATOM     22  F   UNL     1       5.033   6.751  15.092  0.00  0.00    +0.000 F 
ENDBRANCH   3  19
BRANCH   5  23
ATOM     23  C   UNL     1       2.093   2.700  18.352  0.00  0.00    +0.000 C 
ATOM     24  F   UNL     1       2.420   2.128  19.545  0.00  0.00    +0.000 F 
ATOM     25  F   UNL     1       0.732   2.725  18.311  0.00  0.00    +0.000 F 
ATOM     26  F   UNL     1       2.481   1.812  17.396  0.00  0.00    +0.000 F 
ENDBRANCH   5  23
TORSDOF 5
ENDMDL
MODEL 2
REMARK VINA RESULT:      -8.0      0.089      1.052
REMARK  Name = 
REMARK  5 active torsions:
REMARK  status: ('A' for Active; 'I' for Inactive)
REMARK    1  A    between atoms: C_2  and  C_18
REMARK    2  A    between atoms: N_3  and  C_4
REMARK    3  A    between atoms: C_6  and  C_7
REMARK    4  A    between atoms: C_12  and  C_13
REMARK    5  A    between atoms: C_23  and  O_24
REMARK                            x       y       z     vdW  Elec       q    Type
REMARK                         _______ _______ _______ _____ _____    ______ ____
ROOT
ATOM      1  C   UNL     1       2.738   6.405  18.666  0.00  0.00    +0.000 A 
ATOM      2  C   UNL     1       3.761   6.568  17.730  0.00  0.00    +0.000 A 
ATOM      3  C   UNL     1       4.245   5.489  16.979  0.00  0.00    +0.000 A 
ATOM      4  C   UNL     1       3.703   4.215  17.198  0.00  0.00    +0.000 A 
ATOM      5  C   UNL     1       2.688   4.020  18.147  0.00  0.00    +0.000 A 
ATOM      6  C   UNL     1       2.220   5.124  18.885  0.00  0.00    +0.000 A 
ENDROOT
BRANCH   1   9
ATOM      7  O   UNL     1       1.412   8.839  17.675  0.00  0.00    +0.000 OA
ATOM      8  C   UNL     1       1.589   8.611  18.870  0.00  0.00    +0.000 C 
ATOM      9  N   UNL     1       2.193   7.482  19.398  0.00  0.00    +0.000 N 
ATOM     10  H   UNL     1       2.147   7.389  20.410  0.00  0.00    +0.000 HD
BRANCH   8  11
ATOM     11  C   UNL     1       1.112   9.637  19.833  0.00  0.00    +0.000 A 
ATOM     12  C   UNL     1       0.772   9.185  21.114  0.00  0.00    +0.000 A 
ATOM     13  C   UNL     1       0.358  10.107  22.057  0.00  0.00    +0.000 A 
ATOM     14  N   UNL     1       0.268  11.430  21.810  0.00  0.00    +0.000 NA
ATOM     15  C   UNL     1       0.605  11.846  20.568  0.00  0.00    +0.000 A 
ATOM     16  C   UNL     1       1.031  11.000  19.551  0.00  0.00    +0.000 A 
BRANCH  16  17
ATOM     17  O   UNL     1       1.365  11.494  18.322  0.00  0.00    +0.000 OA
ATOM     18  H   UNL     1       0.838  12.297  18.152  0.00  0.00    +0.000 HD
ENDBRANCH  16  17
ENDBRANCH   8  11
ENDBRANCH   1   9
BRANCH   3  19
ATOM     19  C   UNL     1       5.317   5.703  15.937  0.00  0.00    +0.000 C 
ATOM     20  F   UNL     1       5.129   6.808  15.166  0.00  0.00    +0.000 F 
ATOM     21  F   UNL     1       6.554   5.839  16.490  0.00  0.00    +0.000 F 
ATOM     22  F   UNL     1       5.407   4.655  15.071  0.00  0.00    +0.000 F 
ENDBRANCH   3  19
BRANCH   5  23
ATOM     23  C   UNL     1       2.078   2.654  18.358  0.00  0.00    +0.000 C 
ATOM     24  F   UNL     1       0.717   2.669  18.417  0.00  0.00    +0.000 F 
ATOM     25  F   UNL     1       2.398   1.779  17.365  0.00  0.00    +0.000 F 
ATOM     26  F   UNL     1       2.495   2.076  19.517  0.00  0.00    +0.000 F 
ENDBRANCH   5  23
TORSDOF 5
ENDMDL
MODEL 3
REMARK VINA RESULT:      -7.9      0.447      3.586
REMARK  Name = 
REMARK  5 active torsions:
REMARK  status: ('A' for Active; 'I' for Inactive)
REMARK    1  A    between atoms: C_2  and  C_18
REMARK    2  A    between atoms: N_3  and  C_4
REMARK    3  A    between atoms: C_6  and  C_7
REMARK    4  A    between atoms: C_12  and  C_13
REMARK    5  A    between atoms: C_23  and  O_24
REMARK                            x       y       z     vdW  Elec       q    Type
REMARK                         _______ _______ _______ _____ _____    ______ ____
ROOT
ATOM      1  C   UNL     1       2.692   6.483  18.502  0.00  0.00    +0.000 A 
ATOM      2  C   UNL     1       2.122   5.220  18.674  0.00  0.00    +0.000 A 
ATOM      3  C   UNL     1       2.654   4.085  18.050  0.00  0.00    +0.000 A 
ATOM      4  C   UNL     1       3.769   4.233  17.213  0.00  0.00    +0.000 A 
ATOM      5  C   UNL     1       4.350   5.495  17.007  0.00  0.00    +0.000 A 
ATOM      6  C   UNL     1       3.793   6.617  17.650  0.00  0.00    +0.000 A 
ENDROOT
BRANCH   1   9
ATOM      7  O   UNL     1       1.650   8.982  17.346  0.00  0.00    +0.000 OA
ATOM      8  C   UNL     1       1.742   8.790  18.557  0.00  0.00    +0.000 C 
ATOM      9  N   UNL     1       2.210   7.635  19.161  0.00  0.00    +0.000 N 
ATOM     10  H   UNL     1       2.103   7.590  20.171  0.00  0.00    +0.000 HD
BRANCH   8  11
ATOM     11  C   UNL     1       1.312   9.895  19.452  0.00  0.00    +0.000 A 
ATOM     12  C   UNL     1       0.801   9.527  20.703  0.00  0.00    +0.000 A 
ATOM     13  C   UNL     1       0.422  10.521  21.586  0.00  0.00    +0.000 A 
ATOM     14  N   UNL     1       0.523  11.837  21.308  0.00  0.00    +0.000 NA
ATOM     15  C   UNL     1       1.023  12.171  20.097  0.00  0.00    +0.000 A 
ATOM     16  C   UNL     1       1.430  11.249  19.139  0.00  0.00    +0.000 A 
BRANCH  16  17
ATOM     17  O   UNL     1       1.936  11.661  17.939  0.00  0.00    +0.000 OA
ATOM     18  H   UNL     1       1.397  12.404  17.609  0.00  0.00    +0.000 HD
ENDBRANCH  16  17
ENDBRANCH   8  11
ENDBRANCH   1   9
BRANCH   3  19
ATOM     19  C   UNL     1       2.049   2.724  18.294  0.00  0.00    +0.000 C 
ATOM     20  F   UNL     1       2.428   2.150  19.469  0.00  0.00    +0.000 F 
ATOM     21  F   UNL     1       0.688   2.761  18.319  0.00  0.00    +0.000 F 
ATOM     22  F   UNL     1       2.381   1.831  17.320  0.00  0.00    +0.000 F 
ENDBRANCH   3  19
BRANCH   5  23
ATOM     23  C   UNL     1       5.573   5.650  16.135  0.00  0.00    +0.000 C 
ATOM     24  F   UNL     1       6.186   4.469  15.843  0.00  0.00    +0.000 F 
ATOM     25  F   UNL     1       5.290   6.230  14.936  0.00  0.00    +0.000 F 
ATOM     26  F   UNL     1       6.526   6.430  16.715  0.00  0.00    +0.000 F 
ENDBRANCH   5  23
TORSDOF 5
ENDMDL
MODEL 4
REMARK VINA RESULT:      -7.9      0.285      3.611
REMARK  Name = 
REMARK  5 active torsions:
REMARK  status: ('A' for Active; 'I' for Inactive)
REMARK    1  A    between atoms: C_2  and  C_18
REMARK    2  A    between atoms: N_3  and  C_4
REMARK    3  A    between atoms: C_6  and  C_7
REMARK    4  A    between atoms: C_12  and  C_13
REMARK    5  A    between atoms: C_23  and  O_24
REMARK                            x       y       z     vdW  Elec       q    Type
REMARK                         _______ _______ _______ _____ _____    ______ ____
ROOT
ATOM      1  C   UNL     1       2.632   6.457  18.651  0.00  0.00    +0.000 A 
ATOM      2  C   UNL     1       2.098   5.175  18.787  0.00  0.00    +0.000 A 
ATOM      3  C   UNL     1       2.650   4.076  18.116  0.00  0.00    +0.000 A 
ATOM      4  C   UNL     1       3.748   4.283  17.269  0.00  0.00    +0.000 A 
ATOM      5  C   UNL     1       4.292   5.565  17.099  0.00  0.00    +0.000 A 
ATOM      6  C   UNL     1       3.717   6.649  17.788  0.00  0.00    +0.000 A 
ENDROOT
BRANCH   1   9
ATOM      7  O   UNL     1       1.382   8.907  17.601  0.00  0.00    +0.000 OA
ATOM      8  C   UNL     1       1.562   8.707  18.801  0.00  0.00    +0.000 C 
ATOM      9  N   UNL     1       2.131   7.573  19.356  0.00  0.00    +0.000 N 
ATOM     10  H   UNL     1       2.092   7.510  20.371  0.00  0.00    +0.000 HD
BRANCH   8  11
ATOM     11  C   UNL     1       1.130   9.776  19.737  0.00  0.00    +0.000 A 
ATOM     12  C   UNL     1       0.731   9.366  21.016  0.00  0.00    +0.000 A 
ATOM     13  C   UNL     1       0.356  10.327  21.936  0.00  0.00    +0.000 A 
ATOM     14  N   UNL     1       0.358  11.650  21.669  0.00  0.00    +0.000 NA
ATOM     15  C   UNL     1       0.751  12.024  20.430  0.00  0.00    +0.000 A 
ATOM     16  C   UNL     1       1.144  11.137  19.435  0.00  0.00    +0.000 A 
BRANCH  16  17
ATOM     17  O   UNL     1       1.539  11.590  18.208  0.00  0.00    +0.000 OA
ATOM     18  H   UNL     1       0.899  11.284  17.539  0.00  0.00    +0.000 HD
ENDBRANCH  16  17
ENDBRANCH   8  11
ENDBRANCH   1   9
BRANCH   3  19
ATOM     19  C   UNL     1       2.084   2.692  18.322  0.00  0.00    +0.000 C 
ATOM     20  F   UNL     1       0.728   2.656  18.429  0.00  0.00    +0.000 F 
ATOM     21  F   UNL     1       2.400   1.847  17.301  0.00  0.00    +0.000 F 
ATOM     22  F   UNL     1       2.564   2.104  19.454  0.00  0.00    +0.000 F 
ENDBRANCH   3  19
BRANCH   5  23
ATOM     23  C   UNL     1       5.497   5.782  16.214  0.00  0.00    +0.000 C 
ATOM     24  F   UNL     1       5.198   6.365  15.020  0.00  0.00    +0.000 F 
ATOM     25  F   UNL     1       6.435   6.581  16.794  0.00  0.00    +0.000 F 
ATOM     26  F   UNL     1       6.132   4.617  15.910  0.00  0.00    +0.000 F 
ENDBRANCH   5  23
TORSDOF 5
ENDMDL
MODEL 5
REMARK VINA RESULT:      -7.8      1.799      2.553
REMARK  Name = 
REMARK  5 active torsions:
REMARK  status: ('A' for Active; 'I' for Inactive)
REMARK    1  A    between atoms: C_2  and  C_18
REMARK    2  A    between atoms: N_3  and  C_4
REMARK    3  A    between atoms: C_6  and  C_7
REMARK    4  A    between atoms: C_12  and  C_13
REMARK    5  A    between atoms: C_23  and  O_24
REMARK                            x       y       z     vdW  Elec       q    Type
REMARK                         _______ _______ _______ _____ _____    ______ ____
ROOT
ATOM      1  C   UNL     1       1.898   6.731  20.221  0.00  0.00    +0.000 A 
ATOM      2  C   UNL     1       2.886   6.871  19.246  0.00  0.00    +0.000 A 
ATOM      3  C   UNL     1       3.385   5.765  18.545  0.00  0.00    +0.000 A 
ATOM      4  C   UNL     1       2.895   4.490  18.857  0.00  0.00    +0.000 A 
ATOM      5  C   UNL     1       1.915   4.319  19.847  0.00  0.00    +0.000 A 
ATOM      6  C   UNL     1       1.431   5.450  20.532  0.00  0.00    +0.000 A 
ENDROOT
BRANCH   1   9
ATOM      7  O   UNL     1       0.838   9.251  19.128  0.00  0.00    +0.000 OA
ATOM      8  C   UNL     1       0.865   9.001  20.332  0.00  0.00    +0.000 C 
ATOM      9  N   UNL     1       1.337   7.832  20.905  0.00  0.00    +0.000 N 
ATOM     10  H   UNL     1       1.170   7.731  21.904  0.00  0.00    +0.000 HD
BRANCH   8  11
ATOM     11  C   UNL     1       0.342  10.044  21.252  0.00  0.00    +0.000 A 
ATOM     12  C   UNL     1       0.639  11.373  20.927  0.00  0.00    +0.000 A 
ATOM     13  C   UNL     1       0.142  12.382  21.731  0.00  0.00    +0.000 A 
ATOM     14  N   UNL     1      -0.624  12.154  22.818  0.00  0.00    +0.000 NA
ATOM     15  C   UNL     1      -0.902  10.863  23.111  0.00  0.00    +0.000 A 
ATOM     16  C   UNL     1      -0.451   9.779  22.368  0.00  0.00    +0.000 A 
BRANCH  16  17
ATOM     17  O   UNL     1      -0.782   8.501  22.720  0.00  0.00    +0.000 OA
ATOM     18  H   UNL     1      -1.253   8.522  23.573  0.00  0.00    +0.000 HD
ENDBRANCH  16  17
ENDBRANCH   8  11
ENDBRANCH   1   9
BRANCH   3  19
ATOM     19  C   UNL     1       4.417   5.952  17.460  0.00  0.00    +0.000 C 
ATOM     20  F   UNL     1       4.256   7.088  16.728  0.00  0.00    +0.000 F 
ATOM     21  F   UNL     1       5.685   6.004  17.955  0.00  0.00    +0.000 F 
ATOM     22  F   UNL     1       4.409   4.927  16.562  0.00  0.00    +0.000 F 
ENDBRANCH   3  19
BRANCH   5  23
ATOM     23  C   UNL     1       1.360   2.949  20.157  0.00  0.00    +0.000 C 
ATOM     24  F   UNL     1       0.222   2.655  19.469  0.00  0.00    +0.000 F 
ATOM     25  F   UNL     1       2.239   1.950  19.870  0.00  0.00    +0.000 F 
ATOM     26  F   UNL     1       1.045   2.805  21.474  0.00  0.00    +0.000 F 
ENDBRANCH   5  23
TORSDOF 5
ENDMDL
MODEL 6
REMARK VINA RESULT:      -7.8      0.565      3.605
REMARK  Name = 
REMARK  5 active torsions:
REMARK  status: ('A' for Active; 'I' for Inactive)
REMARK    1  A    between atoms: C_2  and  C_18
REMARK    2  A    between atoms: N_3  and  C_4
REMARK    3  A    between atoms: C_6  and  C_7
REMARK    4  A    between atoms: C_12  and  C_13
REMARK    5  A    between atoms: C_23  and  O_24
REMARK                            x       y       z     vdW  Elec       q    Type
REMARK                         _______ _______ _______ _____ _____    ______ ____
ROOT
ATOM      1  C   UNL     1       2.725   6.460  18.463  0.00  0.00    +0.000 A 
ATOM      2  C   UNL     1       2.169   5.191  18.631  0.00  0.00    +0.000 A 
ATOM      3  C   UNL     1       2.742   4.057  18.042  0.00  0.00    +0.000 A 
ATOM      4  C   UNL     1       3.886   4.212  17.247  0.00  0.00    +0.000 A 
ATOM      5  C   UNL     1       4.454   5.480  17.046  0.00  0.00    +0.000 A 
ATOM      6  C   UNL     1       3.856   6.601  17.653  0.00  0.00    +0.000 A 
ENDROOT
BRANCH   1   9
ATOM      7  O   UNL     1       1.770   8.962  17.240  0.00  0.00    +0.000 OA
ATOM      8  C   UNL     1       1.778   8.769  18.454  0.00  0.00    +0.000 C 
ATOM      9  N   UNL     1       2.201   7.613  19.088  0.00  0.00    +0.000 N 
ATOM     10  H   UNL     1       2.024   7.568  20.089  0.00  0.00    +0.000 HD
BRANCH   8  11
ATOM     11  C   UNL     1       1.288   9.875  19.317  0.00  0.00    +0.000 A 
ATOM     12  C   UNL     1       0.657   9.506  20.512  0.00  0.00    +0.000 A 
ATOM     13  C   UNL     1       0.218  10.499  21.367  0.00  0.00    +0.000 A 
ATOM     14  N   UNL     1       0.369  11.815  21.114  0.00  0.00    +0.000 NA
ATOM     15  C   UNL     1       0.985  12.150  19.958  0.00  0.00    +0.000 A 
ATOM     16  C   UNL     1       1.461  11.229  19.032  0.00  0.00    +0.000 A 
BRANCH  16  17
ATOM     17  O   UNL     1       2.083  11.642  17.888  0.00  0.00    +0.000 OA
ATOM     18  H   UNL     1       2.107  12.616  17.878  0.00  0.00    +0.000 HD
ENDBRANCH  16  17
ENDBRANCH   8  11
ENDBRANCH   1   9
BRANCH   3  19
ATOM     19  C   UNL     1       2.149   2.689  18.282  0.00  0.00    +0.000 C 
ATOM     20  F   UNL     1       2.356   1.808  17.266  0.00  0.00    +0.000 F 
ATOM     21  F   UNL     1       2.654   2.096  19.399  0.00  0.00    +0.000 F 
ATOM     22  F   UNL     1       0.800   2.739  18.463  0.00  0.00    +0.000 F 
ENDBRANCH   3  19
BRANCH   5  23
ATOM     23  C   UNL     1       5.707   5.643  16.219  0.00  0.00    +0.000 C 
ATOM     24  F   UNL     1       6.579   6.559  16.727  0.00  0.00    +0.000 F 
ATOM     25  F   UNL     1       6.411   4.484  16.100  0.00  0.00    +0.000 F 
ATOM     26  F   UNL     1       5.438   6.051  14.948  0.00  0.00    +0.000 F 
ENDBRANCH   5  23
TORSDOF 5
ENDMDL
MODEL 7
REMARK VINA RESULT:      -7.8      1.175      1.538
REMARK  Name = 
REMARK  5 active torsions:
REMARK  status: ('A' for Active; 'I' for Inactive)
REMARK    1  A    between atoms: C_2  and  C_18
REMARK    2  A    between atoms: N_3  and  C_4
REMARK    3  A    between atoms: C_6  and  C_7
REMARK    4  A    between atoms: C_12  and  C_13
REMARK    5  A    between atoms: C_23  and  O_24
REMARK                            x       y       z     vdW  Elec       q    Type
REMARK                         _______ _______ _______ _____ _____    ______ ____
ROOT
ATOM      1  C   UNL     1       2.900   6.558  17.861  0.00  0.00    +0.000 A 
ATOM      2  C   UNL     1       4.163   6.547  17.267  0.00  0.00    +0.000 A 
ATOM      3  C   UNL     1       4.810   5.347  16.943  0.00  0.00    +0.000 A 
ATOM      4  C   UNL     1       4.178   4.134  17.249  0.00  0.00    +0.000 A 
ATOM      5  C   UNL     1       2.916   4.117  17.864  0.00  0.00    +0.000 A 
ATOM      6  C   UNL     1       2.291   5.339  18.176  0.00  0.00    +0.000 A 
ENDROOT
BRANCH   1   9
ATOM      7  O   UNL     1       2.066   7.635  20.471  0.00  0.00    +0.000 OA
ATOM      8  C   UNL     1       1.825   8.198  19.405  0.00  0.00    +0.000 C 
ATOM      9  N   UNL     1       2.201   7.750  18.150  0.00  0.00    +0.000 N 
ATOM     10  H   UNL     1       2.035   8.397  17.382  0.00  0.00    +0.000 HD
BRANCH   8  11
ATOM     11  C   UNL     1       1.066   9.473  19.470  0.00  0.00    +0.000 A 
ATOM     12  C   UNL     1       0.170   9.616  20.537  0.00  0.00    +0.000 A 
ATOM     13  C   UNL     1      -0.532  10.800  20.662  0.00  0.00    +0.000 A 
ATOM     14  N   UNL     1      -0.397  11.836  19.808  0.00  0.00    +0.000 NA
ATOM     15  C   UNL     1       0.476  11.679  18.788  0.00  0.00    +0.000 A 
ATOM     16  C   UNL     1       1.228  10.529  18.574  0.00  0.00    +0.000 A 
BRANCH  16  17
ATOM     17  O   UNL     1       2.099  10.447  17.525  0.00  0.00    +0.000 OA
ATOM     18  H   UNL     1       2.852  11.043  17.693  0.00  0.00    +0.000 HD
ENDBRANCH  16  17
ENDBRANCH   8  11
ENDBRANCH   1   9
BRANCH   3  19
ATOM     19  C   UNL     1       6.153   5.365  16.254  0.00  0.00    +0.000 C 
ATOM     20  F   UNL     1       6.876   4.224  16.417  0.00  0.00    +0.000 F 
ATOM     21  F   UNL     1       6.041   5.548  14.909  0.00  0.00    +0.000 F 
ATOM     22  F   UNL     1       6.947   6.377  16.704  0.00  0.00    +0.000 F 
ENDBRANCH   3  19
BRANCH   5  23
ATOM     23  C   UNL     1       2.219   2.810  18.162  0.00  0.00    +0.000 C 
ATOM     24  F   UNL     1       2.431   1.853  17.216  0.00  0.00    +0.000 F 
ATOM     25  F   UNL     1       2.616   2.262  19.343  0.00  0.00    +0.000 F 
ATOM     26  F   UNL     1       0.868   2.954  18.250  0.00  0.00    +0.000 F 
ENDBRANCH   5  23
TORSDOF 5
ENDMDL
MODEL 8
REMARK VINA RESULT:      -7.8      0.795      3.596
REMARK  Name = 
REMARK  5 active torsions:
REMARK  status: ('A' for Active; 'I' for Inactive)
REMARK    1  A    between atoms: C_2  and  C_18
REMARK    2  A    between atoms: N_3  and  C_4
REMARK    3  A    between atoms: C_6  and  C_7
REMARK    4  A    between atoms: C_12  and  C_13
REMARK    5  A    between atoms: C_23  and  O_24
REMARK                            x       y       z     vdW  Elec       q    Type
REMARK                         _______ _______ _______ _____ _____    ______ ____
ROOT
ATOM      1  C   UNL     1       3.080   6.012  18.717  0.00  0.00    +0.000 A 
ATOM      2  C   UNL     1       2.954   4.667  19.070  0.00  0.00    +0.000 A 
ATOM      3  C   UNL     1       3.604   3.657  18.348  0.00  0.00    +0.000 A 
ATOM      4  C   UNL     1       4.375   4.011  17.233  0.00  0.00    +0.000 A 
ATOM      5  C   UNL     1       4.502   5.354  16.845  0.00  0.00    +0.000 A 
ATOM      6  C   UNL     1       3.839   6.347  17.591  0.00  0.00    +0.000 A 
ENDROOT
BRANCH   1   9
ATOM      7  O   UNL     1       1.618   8.374  17.744  0.00  0.00    +0.000 OA
ATOM      8  C   UNL     1       1.815   8.152  18.937  0.00  0.00    +0.000 C 
ATOM      9  N   UNL     1       2.482   7.055  19.457  0.00  0.00    +0.000 N 
ATOM     10  H   UNL     1       2.448   6.956  20.469  0.00  0.00    +0.000 HD
BRANCH   8  11
ATOM     11  C   UNL     1       1.289   9.147  19.907  0.00  0.00    +0.000 A 
ATOM     12  C   UNL     1       1.105   8.704  21.223  0.00  0.00    +0.000 A 
ATOM     13  C   UNL     1       0.654   9.604  22.170  0.00  0.00    +0.000 A 
ATOM     14  N   UNL     1       0.383  10.896  21.896  0.00  0.00    +0.000 NA
ATOM     15  C   UNL     1       0.571  11.304  20.620  0.00  0.00    +0.000 A 
ATOM     16  C   UNL     1       1.019  10.479  19.595  0.00  0.00    +0.000 A 
BRANCH  16  17
ATOM     17  O   UNL     1       1.196  10.965  18.331  0.00  0.00    +0.000 OA
ATOM     18  H   UNL     1       1.949  10.503  17.918  0.00  0.00    +0.000 HD
ENDBRANCH  16  17
ENDBRANCH   8  11
ENDBRANCH   1   9
BRANCH   3  19
ATOM     19  C   UNL     1       3.492   2.216  18.783  0.00  0.00    +0.000 C 
ATOM     20  F   UNL     1       4.413   1.842  19.712  0.00  0.00    +0.000 F 
ATOM     21  F   UNL     1       2.275   1.934  19.328  0.00  0.00    +0.000 F 
ATOM     22  F   UNL     1       3.643   1.352  17.740  0.00  0.00    +0.000 F 
ENDBRANCH   3  19
BRANCH   5  23
ATOM     23  C   UNL     1       5.361   5.740  15.664  0.00  0.00    +0.000 C 
ATOM     24  F   UNL     1       4.997   6.919  15.089  0.00  0.00    +0.000 F 
ATOM     25  F   UNL     1       6.675   5.876  15.995  0.00  0.00    +0.000 F 
ATOM     26  F   UNL     1       5.319   4.812  14.669  0.00  0.00    +0.000 F 
ENDBRANCH   5  23
TORSDOF 5
ENDMDL
MODEL 9
REMARK VINA RESULT:      -7.8      0.705      3.601
REMARK  Name = 
REMARK  5 active torsions:
REMARK  status: ('A' for Active; 'I' for Inactive)
REMARK    1  A    between atoms: C_2  and  C_18
REMARK    2  A    between atoms: N_3  and  C_4
REMARK    3  A    between atoms: C_6  and  C_7
REMARK    4  A    between atoms: C_12  and  C_13
REMARK    5  A    between atoms: C_23  and  O_24
REMARK                            x       y       z     vdW  Elec       q    Type
REMARK                         _______ _______ _______ _____ _____    ______ ____
ROOT
ATOM      1  C   UNL     1       3.039   6.070  18.713  0.00  0.00    +0.000 A 
ATOM      2  C   UNL     1       2.865   4.724  19.040  0.00  0.00    +0.000 A 
ATOM      3  C   UNL     1       3.512   3.708  18.326  0.00  0.00    +0.000 A 
ATOM      4  C   UNL     1       4.330   4.058  17.243  0.00  0.00    +0.000 A 
ATOM      5  C   UNL     1       4.507   5.402  16.881  0.00  0.00    +0.000 A 
ATOM      6  C   UNL     1       3.845   6.402  17.619  0.00  0.00    +0.000 A 
ENDROOT
BRANCH   1   9
ATOM      7  O   UNL     1       1.587   8.435  17.730  0.00  0.00    +0.000 OA
ATOM      8  C   UNL     1       1.781   8.216  18.924  0.00  0.00    +0.000 C 
ATOM      9  N   UNL     1       2.443   7.119  19.448  0.00  0.00    +0.000 N 
ATOM     10  H   UNL     1       2.407   7.023  20.461  0.00  0.00    +0.000 HD
BRANCH   8  11
ATOM     11  C   UNL     1       1.257   9.216  19.889  0.00  0.00    +0.000 A 
ATOM     12  C   UNL     1       1.053   8.774  21.202  0.00  0.00    +0.000 A 
ATOM     13  C   UNL     1       0.602   9.677  22.146  0.00  0.00    +0.000 A 
ATOM     14  N   UNL     1       0.351  10.974  21.871  0.00  0.00    +0.000 NA
ATOM     15  C   UNL     1       0.559  11.381  20.598  0.00  0.00    +0.000 A 
ATOM     16  C   UNL     1       1.008  10.552  19.577  0.00  0.00    +0.000 A 
BRANCH  16  17
ATOM     17  O   UNL     1       1.205  11.037  18.316  0.00  0.00    +0.000 OA
ATOM     18  H   UNL     1       1.032  10.325  17.673  0.00  0.00    +0.000 HD
ENDBRANCH  16  17
ENDBRANCH   8  11
ENDBRANCH   1   9
BRANCH   3  19
ATOM     19  C   UNL     1       3.347   2.264  18.733  0.00  0.00    +0.000 C 
ATOM     20  F   UNL     1       2.190   2.004  19.402  0.00  0.00    +0.000 F 
ATOM     21  F   UNL     1       3.356   1.421  17.662  0.00  0.00    +0.000 F 
ATOM     22  F   UNL     1       4.353   1.842  19.549  0.00  0.00    +0.000 F 
ENDBRANCH   3  19
BRANCH   5  23
ATOM     23  C   UNL     1       5.416   5.782  15.737  0.00  0.00    +0.000 C 
ATOM     24  F   UNL     1       5.551   4.803  14.800  0.00  0.00    +0.000 F 
ATOM     25  F   UNL     1       4.981   6.884  15.065  0.00  0.00    +0.000 F 
ATOM     26  F   UNL     1       6.679   6.072  16.155  0.00  0.00    +0.000 F 
ENDBRANCH   5  23
TORSDOF 5
ENDMDL
