MODEL 1
REMARK VINA RESULT:      -8.3      0.000      0.000
REMARK  Name = 
REMARK  5 active torsions:
REMARK  status: ('A' for Active; 'I' for Inactive)
REMARK    1  A    between atoms: C_2  and  O_3
REMARK    2  A    between atoms: C_2  and  C_4
REMARK    3  A    between atoms: C_9  and  N_10
REMARK    4  A    between atoms: N_10  and  C_11
REMARK    5  A    between atoms: C_15  and  C_16
REMARK                            x       y       z     vdW  Elec       q    Type
REMARK                         _______ _______ _______ _____ _____    ______ ____
ROOT
ATOM      1  C   UNL     1       3.792   5.243  18.217  0.00  0.00    +0.000 A 
ATOM      2  C   UNL     1       3.094   4.997  19.416  0.00  0.00    +0.000 A 
ATOM      3 CL   UNL     1       3.158   3.442  20.180  0.00  0.00    +0.000 Cl
ATOM      4  C   UNL     1       2.324   5.990  20.038  0.00  0.00    +0.000 A 
ATOM      5  C   UNL     1       2.242   7.290  19.517  0.00  0.00    +0.000 A 
ATOM      6  C   UNL     1       2.967   7.549  18.345  0.00  0.00    +0.000 A 
ATOM      7  C   UNL     1       3.746   6.563  17.719  0.00  0.00    +0.000 A 
ATOM      8 CL   UNL     1       4.687   7.110  16.371  0.00  0.00    +0.000 Cl
ENDROOT
BRANCH   5   9
ATOM      9  C   UNL     1       1.448   8.350  20.183  0.00  0.00    +0.000 A 
ATOM     10  C   UNL     1       1.092   8.254  21.542  0.00  0.00    +0.000 A 
ATOM     11  C   UNL     1       0.312   9.236  22.165  0.00  0.00    +0.000 A 
ATOM     12  C   UNL     1      -0.112  10.345  21.443  0.00  0.00    +0.000 A 
ATOM     13 CL   UNL     1      -1.087  11.540  22.200  0.00  0.00    +0.000 Cl
ATOM     14  C   UNL     1       0.246  10.485  20.107  0.00  0.00    +0.000 A 
ATOM     15  C   UNL     1       1.016   9.495  19.484  0.00  0.00    +0.000 A 
ENDBRANCH   5   9
BRANCH   1  16
ATOM     16  N   UNL     1       4.641   4.216  17.690  0.00  0.00    +0.000 N 
ATOM     17  H   UNL     1       5.208   3.876  18.474  0.00  0.00    +0.000 HD
BRANCH  16  23
ATOM     18  C   UNL     1       6.783   4.650  16.524  0.00  0.00    +0.000 A 
ATOM     19  C   UNL     1       7.478   4.870  15.321  0.00  0.00    +0.000 A 
ATOM     20  C   UNL     1       6.845   4.671  14.096  0.00  0.00    +0.000 A 
ATOM     21  C   UNL     1       5.538   4.202  14.064  0.00  0.00    +0.000 A 
ATOM     22  C   UNL     1       4.841   3.989  15.258  0.00  0.00    +0.000 A 
ATOM     23  C   UNL     1       5.418   4.303  16.500  0.00  0.00    +0.000 A 
BRANCH  18  25
ATOM     24  O   UNL     1       7.308   5.734  18.584  0.00  0.00    +0.000 OA
ATOM     25  C   UNL     1       7.550   4.853  17.781  0.00  0.00    +0.000 C 
BRANCH  25  26
ATOM     26  O   UNL     1       8.575   3.982  17.920  0.00  0.00    +0.000 OA
ATOM     27  H   UNL     1       9.122   4.135  18.722  0.00  0.00    +0.000 HD
ENDBRANCH  25  26
ENDBRANCH  18  25
ENDBRANCH  16  23
ENDBRANCH   1  16
TORSDOF 5
ENDMDL
MODEL 2
REMARK VINA RESULT:      -8.2      0.887      1.370
REMARK  Name = 
REMARK  5 active torsions:
REMARK  status: ('A' for Active; 'I' for Inactive)
REMARK    1  A    between atoms: C_2  and  O_3
REMARK    2  A    between atoms: C_2  and  C_4
REMARK    3  A    between atoms: C_9  and  N_10
REMARK    4  A    between atoms: N_10  and  C_11
REMARK    5  A    between atoms: C_15  and  C_16
REMARK                            x       y       z     vdW  Elec       q    Type
REMARK                         _______ _______ _______ _____ _____    ______ ____
ROOT
ATOM      1  C   UNL     1       3.347   5.375  18.752  0.00  0.00    +0.000 A 
ATOM      2  C   UNL     1       2.699   5.199  19.990  0.00  0.00    +0.000 A 
ATOM      3 CL   UNL     1       2.789   3.688  20.836  0.00  0.00    +0.000 Cl
ATOM      4  C   UNL     1       1.961   6.230  20.589  0.00  0.00    +0.000 A 
ATOM      5  C   UNL     1       1.861   7.500  20.001  0.00  0.00    +0.000 A 
ATOM      6  C   UNL     1       2.538   7.689  18.787  0.00  0.00    +0.000 A 
ATOM      7  C   UNL     1       3.285   6.665  18.184  0.00  0.00    +0.000 A 
ATOM      8 CL   UNL     1       4.171   7.132  16.769  0.00  0.00    +0.000 Cl
ENDROOT
BRANCH   5   9
ATOM      9  C   UNL     1       1.100   8.599  20.640  0.00  0.00    +0.000 A 
ATOM     10  C   UNL     1       0.609   9.684  19.888  0.00  0.00    +0.000 A 
ATOM     11  C   UNL     1      -0.080  10.742  20.493  0.00  0.00    +0.000 A 
ATOM     12  C   UNL     1      -0.307  10.726  21.864  0.00  0.00    +0.000 A 
ATOM     13 CL   UNL     1      -1.133  12.033  22.613  0.00  0.00    +0.000 Cl
ATOM     14  C   UNL     1       0.139   9.656  22.632  0.00  0.00    +0.000 A 
ATOM     15  C   UNL     1       0.838   8.606  22.024  0.00  0.00    +0.000 A 
ENDBRANCH   5   9
BRANCH   1  16
ATOM     16  N   UNL     1       4.169   4.315  18.248  0.00  0.00    +0.000 N 
ATOM     17  H   UNL     1       4.553   3.830  19.065  0.00  0.00    +0.000 HD
BRANCH  16  23
ATOM     18  C   UNL     1       6.425   4.976  17.465  0.00  0.00    +0.000 A 
ATOM     19  C   UNL     1       7.309   5.212  16.397  0.00  0.00    +0.000 A 
ATOM     20  C   UNL     1       6.961   4.842  15.100  0.00  0.00    +0.000 A 
ATOM     21  C   UNL     1       5.757   4.187  14.869  0.00  0.00    +0.000 A 
ATOM     22  C   UNL     1       4.873   3.956  15.927  0.00  0.00    +0.000 A 
ATOM     23  C   UNL     1       5.148   4.434  17.219  0.00  0.00    +0.000 A 
BRANCH  18  25
ATOM     24  O   UNL     1       6.449   4.908  19.849  0.00  0.00    +0.000 OA
ATOM     25  C   UNL     1       6.896   5.371  18.817  0.00  0.00    +0.000 C 
BRANCH  25  26
ATOM     26  O   UNL     1       7.844   6.334  18.785  0.00  0.00    +0.000 OA
ATOM     27  H   UNL     1       7.930   6.838  19.625  0.00  0.00    +0.000 HD
ENDBRANCH  25  26
ENDBRANCH  18  25
ENDBRANCH  16  23
ENDBRANCH   1  16
TORSDOF 5
ENDMDL
MODEL 3
REMARK VINA RESULT:      -8.1      1.100      2.201
REMARK  Name = 
REMARK  5 active torsions:
REMARK  status: ('A' for Active; 'I' for Inactive)
REMARK    1  A    between atoms: C_2  and  O_3
REMARK    2  A    between atoms: C_2  and  C_4
REMARK    3  A    between atoms: C_9  and  N_10
REMARK    4  A    between atoms: N_10  and  C_11
REMARK    5  A    between atoms: C_15  and  C_16
REMARK                            x       y       z     vdW  Elec       q    Type
REMARK                         _______ _______ _______ _____ _____    ______ ____
ROOT
ATOM      1  C   UNL     1       3.036   5.450  18.305  0.00  0.00    +0.000 A 
ATOM      2  C   UNL     1       3.118   6.800  17.910  0.00  0.00    +0.000 A 
ATOM      3 CL   UNL     1       3.973   7.257  16.473  0.00  0.00    +0.000 Cl
ATOM      4  C   UNL     1       2.516   7.824  18.655  0.00  0.00    +0.000 A 
ATOM      5  C   UNL     1       1.770   7.551  19.812  0.00  0.00    +0.000 A 
ATOM      6  C   UNL     1       1.654   6.204  20.185  0.00  0.00    +0.000 A 
ATOM      7  C   UNL     1       2.247   5.172  19.442  0.00  0.00    +0.000 A 
ATOM      8 CL   UNL     1       1.868   3.567  19.974  0.00  0.00    +0.000 Cl
ENDROOT
BRANCH   5   9
ATOM      9  C   UNL     1       1.114   8.627  20.590  0.00  0.00    +0.000 A 
ATOM     10  C   UNL     1       1.061   8.587  21.997  0.00  0.00    +0.000 A 
ATOM     11  C   UNL     1       0.411   9.583  22.735  0.00  0.00    +0.000 A 
ATOM     12  C   UNL     1      -0.184  10.654  22.077  0.00  0.00    +0.000 A 
ATOM     13 CL   UNL     1      -1.001  11.867  22.979  0.00  0.00    +0.000 Cl
ATOM     14  C   UNL     1      -0.125  10.740  20.691  0.00  0.00    +0.000 A 
ATOM     15  C   UNL     1       0.515   9.735  19.957  0.00  0.00    +0.000 A 
ENDBRANCH   5   9
BRANCH   1  16
ATOM     16  N   UNL     1       3.585   4.446  17.444  0.00  0.00    +0.000 N 
ATOM     17  H   UNL     1       3.416   3.544  17.902  0.00  0.00    +0.000 HD
BRANCH  16  23
ATOM     18  C   UNL     1       6.056   4.529  17.611  0.00  0.00    +0.000 A 
ATOM     19  C   UNL     1       7.301   4.706  16.982  0.00  0.00    +0.000 A 
ATOM     20  C   UNL     1       7.388   4.753  15.592  0.00  0.00    +0.000 A 
ATOM     21  C   UNL     1       6.244   4.570  14.824  0.00  0.00    +0.000 A 
ATOM     22  C   UNL     1       5.004   4.400  15.446  0.00  0.00    +0.000 A 
ATOM     23  C   UNL     1       4.876   4.476  16.842  0.00  0.00    +0.000 A 
BRANCH  18  25
ATOM     24  O   UNL     1       6.591   5.289  19.808  0.00  0.00    +0.000 OA
ATOM     25  C   UNL     1       6.066   4.455  19.095  0.00  0.00    +0.000 C 
BRANCH  25  26
ATOM     26  O   UNL     1       5.467   3.341  19.572  0.00  0.00    +0.000 OA
ATOM     27  H   UNL     1       5.005   3.473  20.430  0.00  0.00    +0.000 HD
ENDBRANCH  25  26
ENDBRANCH  18  25
ENDBRANCH  16  23
ENDBRANCH   1  16
TORSDOF 5
ENDMDL
MODEL 4
REMARK VINA RESULT:      -8.0      1.229      1.484
REMARK  Name = 
REMARK  5 active torsions:
REMARK  status: ('A' for Active; 'I' for Inactive)
REMARK    1  A    between atoms: C_2  and  O_3
REMARK    2  A    between atoms: C_2  and  C_4
REMARK    3  A    between atoms: C_9  and  N_10
REMARK    4  A    between atoms: N_10  and  C_11
REMARK    5  A    between atoms: C_15  and  C_16
REMARK                            x       y       z     vdW  Elec       q    Type
REMARK                         _______ _______ _______ _____ _____    ______ ____
ROOT
ATOM      1  C   UNL     1       3.431   5.917  18.757  0.00  0.00    +0.000 A 
ATOM      2  C   UNL     1       2.593   5.984  19.888  0.00  0.00    +0.000 A 
ATOM      3 CL   UNL     1       2.556   4.695  21.047  0.00  0.00    +0.000 Cl
ATOM      4  C   UNL     1       1.761   7.088  20.124  0.00  0.00    +0.000 A 
ATOM      5  C   UNL     1       1.750   8.197  19.265  0.00  0.00    +0.000 A 
ATOM      6  C   UNL     1       2.612   8.149  18.160  0.00  0.00    +0.000 A 
ATOM      7  C   UNL     1       3.453   7.052  17.920  0.00  0.00    +0.000 A 
ATOM      8 CL   UNL     1       4.552   7.241  16.592  0.00  0.00    +0.000 Cl
ENDROOT
BRANCH   5   9
ATOM      9  C   UNL     1       0.888   9.375  19.522  0.00  0.00    +0.000 A 
ATOM     10  C   UNL     1       0.458   9.699  20.823  0.00  0.00    +0.000 A 
ATOM     11  C   UNL     1      -0.384  10.791  21.066  0.00  0.00    +0.000 A 
ATOM     12  C   UNL     1      -0.798  11.593  20.009  0.00  0.00    +0.000 A 
ATOM     13 CL   UNL     1      -1.849  12.921  20.301  0.00  0.00    +0.000 Cl
ATOM     14  C   UNL     1      -0.369  11.319  18.715  0.00  0.00    +0.000 A 
ATOM     15  C   UNL     1       0.464  10.219  18.476  0.00  0.00    +0.000 A 
ENDBRANCH   5   9
BRANCH   1  16
ATOM     16  N   UNL     1       4.330   4.809  18.631  0.00  0.00    +0.000 N 
ATOM     17  H   UNL     1       4.794   4.704  19.540  0.00  0.00    +0.000 HD
BRANCH  16  23
ATOM     18  C   UNL     1       6.593   5.016  17.642  0.00  0.00    +0.000 A 
ATOM     19  C   UNL     1       7.429   4.922  16.515  0.00  0.00    +0.000 A 
ATOM     20  C   UNL     1       6.961   4.342  15.338  0.00  0.00    +0.000 A 
ATOM     21  C   UNL     1       5.679   3.807  15.295  0.00  0.00    +0.000 A 
ATOM     22  C   UNL     1       4.843   3.905  16.411  0.00  0.00    +0.000 A 
ATOM     23  C   UNL     1       5.250   4.596  17.564  0.00  0.00    +0.000 A 
BRANCH  18  25
ATOM     24  O   UNL     1       6.962   5.218  19.990  0.00  0.00    +0.000 OA
ATOM     25  C   UNL     1       7.189   5.616  18.863  0.00  0.00    +0.000 C 
BRANCH  25  26
ATOM     26  O   UNL     1       7.979   6.680  18.597  0.00  0.00    +0.000 OA
ATOM     27  H   UNL     1       8.619   6.529  17.866  0.00  0.00    +0.000 HD
ENDBRANCH  25  26
ENDBRANCH  18  25
ENDBRANCH  16  23
ENDBRANCH   1  16
TORSDOF 5
ENDMDL
MODEL 5
REMARK VINA RESULT:      -7.9      1.777      2.791
REMARK  Name = 
REMARK  5 active torsions:
REMARK  status: ('A' for Active; 'I' for Inactive)
REMARK    1  A    between atoms: C_2  and  O_3
REMARK    2  A    between atoms: C_2  and  C_4
REMARK    3  A    between atoms: C_9  and  N_10
REMARK    4  A    between atoms: N_10  and  C_11
REMARK    5  A    between atoms: C_15  and  C_16
REMARK                            x       y       z     vdW  Elec       q    Type
REMARK                         _______ _______ _______ _____ _____    ______ ____
ROOT
ATOM      1  C   UNL     1       2.805   5.872  19.280  0.00  0.00    +0.000 A 
ATOM      2  C   UNL     1       2.146   5.680  20.511  0.00  0.00    +0.000 A 
ATOM      3 CL   UNL     1       2.253   4.167  21.351  0.00  0.00    +0.000 Cl
ATOM      4  C   UNL     1       1.384   6.695  21.104  0.00  0.00    +0.000 A 
ATOM      5  C   UNL     1       1.270   7.966  20.520  0.00  0.00    +0.000 A 
ATOM      6  C   UNL     1       1.956   8.172  19.315  0.00  0.00    +0.000 A 
ATOM      7  C   UNL     1       2.728   7.163  18.717  0.00  0.00    +0.000 A 
ATOM      8 CL   UNL     1       3.621   7.650  17.314  0.00  0.00    +0.000 Cl
ENDROOT
BRANCH   5   9
ATOM      9  C   UNL     1       0.483   9.050  21.155  0.00  0.00    +0.000 A 
ATOM     10  C   UNL     1       0.027  10.156  20.412  0.00  0.00    +0.000 A 
ATOM     11  C   UNL     1      -0.686  11.199  21.015  0.00  0.00    +0.000 A 
ATOM     12  C   UNL     1      -0.974  11.146  22.374  0.00  0.00    +0.000 A 
ATOM     13 CL   UNL     1      -1.830  12.435  23.121  0.00  0.00    +0.000 Cl
ATOM     14  C   UNL     1      -0.563  10.054  23.131  0.00  0.00    +0.000 A 
ATOM     15  C   UNL     1       0.160   9.019  22.526  0.00  0.00    +0.000 A 
ENDBRANCH   5   9
BRANCH   1  16
ATOM     16  N   UNL     1       3.650   4.828  18.781  0.00  0.00    +0.000 N 
ATOM     17  H   UNL     1       3.459   3.998  19.352  0.00  0.00    +0.000 HD
BRANCH  16  23
ATOM     18  C   UNL     1       5.589   4.549  17.263  0.00  0.00    +0.000 A 
ATOM     19  C   UNL     1       6.983   4.538  17.078  0.00  0.00    +0.000 A 
ATOM     20  C   UNL     1       7.831   4.989  18.087  0.00  0.00    +0.000 A 
ATOM     21  C   UNL     1       7.293   5.502  19.262  0.00  0.00    +0.000 A 
ATOM     22  C   UNL     1       5.908   5.508  19.452  0.00  0.00    +0.000 A 
ATOM     23  C   UNL     1       5.043   4.942  18.501  0.00  0.00    +0.000 A 
BRANCH  18  25
ATOM     24  O   UNL     1       3.637   3.641  16.237  0.00  0.00    +0.000 OA
ATOM     25  C   UNL     1       4.763   4.083  16.119  0.00  0.00    +0.000 C 
BRANCH  25  26
ATOM     26  O   UNL     1       5.411   4.161  14.935  0.00  0.00    +0.000 OA
ATOM     27  H   UNL     1       4.976   3.660  14.209  0.00  0.00    +0.000 HD
ENDBRANCH  25  26
ENDBRANCH  18  25
ENDBRANCH  16  23
ENDBRANCH   1  16
TORSDOF 5
ENDMDL
MODEL 6
REMARK VINA RESULT:      -7.8      2.257      3.375
REMARK  Name = 
REMARK  5 active torsions:
REMARK  status: ('A' for Active; 'I' for Inactive)
REMARK    1  A    between atoms: C_2  and  O_3
REMARK    2  A    between atoms: C_2  and  C_4
REMARK    3  A    between atoms: C_9  and  N_10
REMARK    4  A    between atoms: N_10  and  C_11
REMARK    5  A    between atoms: C_15  and  C_16
REMARK                            x       y       z     vdW  Elec       q    Type
REMARK                         _______ _______ _______ _____ _____    ______ ____
ROOT
ATOM      1  C   UNL     1       2.557   6.894  19.005  0.00  0.00    +0.000 A 
ATOM      2  C   UNL     1       2.227   8.162  18.486  0.00  0.00    +0.000 A 
ATOM      3 CL   UNL     1       2.749   8.638  16.903  0.00  0.00    +0.000 Cl
ATOM      4  C   UNL     1       1.468   9.084  19.219  0.00  0.00    +0.000 A 
ATOM      5  C   UNL     1       0.967   8.775  20.493  0.00  0.00    +0.000 A 
ATOM      6  C   UNL     1       1.261   7.500  20.996  0.00  0.00    +0.000 A 
ATOM      7  C   UNL     1       2.014   6.568  20.266  0.00  0.00    +0.000 A 
ATOM      8 CL   UNL     1       2.145   4.997  20.987  0.00  0.00    +0.000 Cl
ENDROOT
BRANCH   5   9
ATOM      9  C   UNL     1       0.145   9.738  21.264  0.00  0.00    +0.000 A 
ATOM     10  C   UNL     1      -0.200   9.497  22.608  0.00  0.00    +0.000 A 
ATOM     11  C   UNL     1      -1.006  10.386  23.328  0.00  0.00    +0.000 A 
ATOM     12  C   UNL     1      -1.467  11.549  22.722  0.00  0.00    +0.000 A 
ATOM     13 CL   UNL     1      -2.473  12.632  23.597  0.00  0.00    +0.000 Cl
ATOM     14  C   UNL     1      -1.121  11.833  21.405  0.00  0.00    +0.000 A 
ATOM     15  C   UNL     1      -0.325  10.934  20.685  0.00  0.00    +0.000 A 
ENDBRANCH   5   9
BRANCH   1  16
ATOM     16  N   UNL     1       3.247   5.963  18.163  0.00  0.00    +0.000 N 
ATOM     17  H   UNL     1       2.788   5.055  18.293  0.00  0.00    +0.000 HD
BRANCH  16  23
ATOM     18  C   UNL     1       5.307   4.616  18.450  0.00  0.00    +0.000 A 
ATOM     19  C   UNL     1       6.712   4.554  18.483  0.00  0.00    +0.000 A 
ATOM     20  C   UNL     1       7.475   5.643  18.067  0.00  0.00    +0.000 A 
ATOM     21  C   UNL     1       6.844   6.776  17.567  0.00  0.00    +0.000 A 
ATOM     22  C   UNL     1       5.447   6.844  17.538  0.00  0.00    +0.000 A 
ATOM     23  C   UNL     1       4.660   5.809  18.070  0.00  0.00    +0.000 A 
BRANCH  18  25
ATOM     24  O   UNL     1       3.468   3.097  18.478  0.00  0.00    +0.000 OA
ATOM     25  C   UNL     1       4.578   3.395  18.877  0.00  0.00    +0.000 C 
BRANCH  25  26
ATOM     26  O   UNL     1       5.257   2.668  19.792  0.00  0.00    +0.000 OA
ATOM     27  H   UNL     1       5.082   1.701  19.744  0.00  0.00    +0.000 HD
ENDBRANCH  25  26
ENDBRANCH  18  25
ENDBRANCH  16  23
ENDBRANCH   1  16
TORSDOF 5
ENDMDL
MODEL 7
REMARK VINA RESULT:      -7.7      1.807      3.383
REMARK  Name = 
REMARK  5 active torsions:
REMARK  status: ('A' for Active; 'I' for Inactive)
REMARK    1  A    between atoms: C_2  and  O_3
REMARK    2  A    between atoms: C_2  and  C_4
REMARK    3  A    between atoms: C_9  and  N_10
REMARK    4  A    between atoms: N_10  and  C_11
REMARK    5  A    between atoms: C_15  and  C_16
REMARK                            x       y       z     vdW  Elec       q    Type
REMARK                         _______ _______ _______ _____ _____    ______ ____
ROOT
ATOM      1  C   UNL     1       2.922   6.138  19.287  0.00  0.00    +0.000 A 
ATOM      2  C   UNL     1       2.718   7.399  18.692  0.00  0.00    +0.000 A 
ATOM      3 CL   UNL     1       3.438   7.790  17.164  0.00  0.00    +0.000 Cl
ATOM      4  C   UNL     1       1.930   8.384  19.305  0.00  0.00    +0.000 A 
ATOM      5  C   UNL     1       1.275   8.149  20.523  0.00  0.00    +0.000 A 
ATOM      6  C   UNL     1       1.444   6.880  21.097  0.00  0.00    +0.000 A 
ATOM      7  C   UNL     1       2.225   5.886  20.488  0.00  0.00    +0.000 A 
ATOM      8 CL   UNL     1       2.193   4.339  21.269  0.00  0.00    +0.000 Cl
ENDROOT
BRANCH   5   9
ATOM      9  C   UNL     1       0.423   9.178  21.163  0.00  0.00    +0.000 A 
ATOM     10  C   UNL     1      -0.085  10.269  20.431  0.00  0.00    +0.000 A 
ATOM     11  C   UNL     1      -0.861  11.262  21.041  0.00  0.00    +0.000 A 
ATOM     12  C   UNL     1      -1.160  11.173  22.395  0.00  0.00    +0.000 A 
ATOM     13 CL   UNL     1      -2.094  12.402  23.150  0.00  0.00    +0.000 Cl
ATOM     14  C   UNL     1      -0.699  10.094  23.141  0.00  0.00    +0.000 A 
ATOM     15  C   UNL     1       0.086   9.110  22.530  0.00  0.00    +0.000 A 
ENDBRANCH   5   9
BRANCH   1  16
ATOM     16  N   UNL     1       3.652   5.143  18.559  0.00  0.00    +0.000 N 
ATOM     17  H   UNL     1       3.307   4.233  18.881  0.00  0.00    +0.000 HD
BRANCH  16  23
ATOM     18  C   UNL     1       5.650   4.611  17.194  0.00  0.00    +0.000 A 
ATOM     19  C   UNL     1       7.046   4.462  17.107  0.00  0.00    +0.000 A 
ATOM     20  C   UNL     1       7.866   4.881  18.153  0.00  0.00    +0.000 A 
ATOM     21  C   UNL     1       7.303   5.499  19.263  0.00  0.00    +0.000 A 
ATOM     22  C   UNL     1       5.916   5.643  19.356  0.00  0.00    +0.000 A 
ATOM     23  C   UNL     1       5.064   5.114  18.373  0.00  0.00    +0.000 A 
BRANCH  18  25
ATOM     24  O   UNL     1       5.159   4.430  14.867  0.00  0.00    +0.000 OA
ATOM     25  C   UNL     1       4.860   4.168  16.016  0.00  0.00    +0.000 C 
BRANCH  25  26
ATOM     26  O   UNL     1       3.748   3.479  16.356  0.00  0.00    +0.000 OA
ATOM     27  H   UNL     1       3.930   2.606  16.770  0.00  0.00    +0.000 HD
ENDBRANCH  25  26
ENDBRANCH  18  25
ENDBRANCH  16  23
ENDBRANCH   1  16
TORSDOF 5
ENDMDL
MODEL 8
REMARK VINA RESULT:      -7.7      2.404      3.684
REMARK  Name = 
REMARK  5 active torsions:
REMARK  status: ('A' for Active; 'I' for Inactive)
REMARK    1  A    between atoms: C_2  and  O_3
REMARK    2  A    between atoms: C_2  and  C_4
REMARK    3  A    between atoms: C_9  and  N_10
REMARK    4  A    between atoms: N_10  and  C_11
REMARK    5  A    between atoms: C_15  and  C_16
REMARK                            x       y       z     vdW  Elec       q    Type
REMARK                         _______ _______ _______ _____ _____    ______ ____
ROOT
ATOM      1  C   UNL     1       2.451   7.323  19.145  0.00  0.00    +0.000 A 
ATOM      2  C   UNL     1       2.050   8.562  18.607  0.00  0.00    +0.000 A 
ATOM      3 CL   UNL     1       2.560   9.053  17.025  0.00  0.00    +0.000 Cl
ATOM      4  C   UNL     1       1.226   9.443  19.322  0.00  0.00    +0.000 A 
ATOM      5  C   UNL     1       0.730   9.117  20.594  0.00  0.00    +0.000 A 
ATOM      6  C   UNL     1       1.097   7.868  21.115  0.00  0.00    +0.000 A 
ATOM      7  C   UNL     1       1.915   6.977  20.403  0.00  0.00    +0.000 A 
ATOM      8 CL   UNL     1       2.135   5.425  21.143  0.00  0.00    +0.000 Cl
ENDROOT
BRANCH   5   9
ATOM      9  C   UNL     1      -0.159  10.035  21.344  0.00  0.00    +0.000 A 
ATOM     10  C   UNL     1      -0.456   9.820  22.704  0.00  0.00    +0.000 A 
ATOM     11  C   UNL     1      -1.323  10.664  23.407  0.00  0.00    +0.000 A 
ATOM     12  C   UNL     1      -1.896  11.756  22.766  0.00  0.00    +0.000 A 
ATOM     13 CL   UNL     1      -2.978  12.782  23.620  0.00  0.00    +0.000 Cl
ATOM     14  C   UNL     1      -1.601  12.015  21.432  0.00  0.00    +0.000 A 
ATOM     15  C   UNL     1      -0.743  11.161  20.730  0.00  0.00    +0.000 A 
ENDBRANCH   5   9
BRANCH   1  16
ATOM     16  N   UNL     1       3.208   6.427  18.321  0.00  0.00    +0.000 N 
ATOM     17  H   UNL     1       3.249   6.852  17.389  0.00  0.00    +0.000 HD
BRANCH  16  23
ATOM     18  C   UNL     1       4.076   4.111  18.462  0.00  0.00    +0.000 A 
ATOM     19  C   UNL     1       3.892   2.738  18.218  0.00  0.00    +0.000 A 
ATOM     20  C   UNL     1       2.648   2.254  17.821  0.00  0.00    +0.000 A 
ATOM     21  C   UNL     1       1.570   3.125  17.718  0.00  0.00    +0.000 A 
ATOM     22  C   UNL     1       1.750   4.491  17.953  0.00  0.00    +0.000 A 
ATOM     23  C   UNL     1       3.023   5.018  18.230  0.00  0.00    +0.000 A 
BRANCH  18  25
ATOM     24  O   UNL     1       5.623   5.441  19.696  0.00  0.00    +0.000 OA
ATOM     25  C   UNL     1       5.427   4.530  18.915  0.00  0.00    +0.000 C 
BRANCH  25  26
ATOM     26  O   UNL     1       6.421   3.821  18.336  0.00  0.00    +0.000 OA
ATOM     27  H   UNL     1       6.683   4.152  17.448  0.00  0.00    +0.000 HD
ENDBRANCH  25  26
ENDBRANCH  18  25
ENDBRANCH  16  23
ENDBRANCH   1  16
TORSDOF 5
ENDMDL
MODEL 9
REMARK VINA RESULT:      -7.7      1.788      3.223
REMARK  Name = 
REMARK  5 active torsions:
REMARK  status: ('A' for Active; 'I' for Inactive)
REMARK    1  A    between atoms: C_2  and  O_3
REMARK    2  A    between atoms: C_2  and  C_4
REMARK    3  A    between atoms: C_9  and  N_10
REMARK    4  A    between atoms: N_10  and  C_11
REMARK    5  A    between atoms: C_15  and  C_16
REMARK                            x       y       z     vdW  Elec       q    Type
REMARK                         _______ _______ _______ _____ _____    ______ ____
ROOT
ATOM      1  C   UNL     1       2.920   6.128  19.310  0.00  0.00    +0.000 A 
ATOM      2  C   UNL     1       2.724   7.389  18.714  0.00  0.00    +0.000 A 
ATOM      3 CL   UNL     1       3.444   7.773  17.184  0.00  0.00    +0.000 Cl
ATOM      4  C   UNL     1       1.944   8.380  19.326  0.00  0.00    +0.000 A 
ATOM      5  C   UNL     1       1.289   8.152  20.545  0.00  0.00    +0.000 A 
ATOM      6  C   UNL     1       1.451   6.883  21.122  0.00  0.00    +0.000 A 
ATOM      7  C   UNL     1       2.224   5.883  20.512  0.00  0.00    +0.000 A 
ATOM      8 CL   UNL     1       2.183   4.338  21.297  0.00  0.00    +0.000 Cl
ENDROOT
BRANCH   5   9
ATOM      9  C   UNL     1       0.445   9.188  21.186  0.00  0.00    +0.000 A 
ATOM     10  C   UNL     1       0.148   9.144  22.561  0.00  0.00    +0.000 A 
ATOM     11  C   UNL     1      -0.678  10.101  23.163  0.00  0.00    +0.000 A 
ATOM     12  C   UNL     1      -1.207  11.136  22.401  0.00  0.00    +0.000 A 
ATOM     13 CL   UNL     1      -2.238  12.300  23.132  0.00  0.00    +0.000 Cl
ATOM     14  C   UNL     1      -0.910  11.226  21.046  0.00  0.00    +0.000 A 
ATOM     15  C   UNL     1      -0.094  10.260  20.446  0.00  0.00    +0.000 A 
ENDBRANCH   5   9
BRANCH   1  16
ATOM     16  N   UNL     1       3.643   5.127  18.583  0.00  0.00    +0.000 N 
ATOM     17  H   UNL     1       3.312   4.220  18.927  0.00  0.00    +0.000 HD
BRANCH  16  23
ATOM     18  C   UNL     1       5.614   4.606  17.174  0.00  0.00    +0.000 A 
ATOM     19  C   UNL     1       7.008   4.465  17.057  0.00  0.00    +0.000 A 
ATOM     20  C   UNL     1       7.848   4.889  18.084  0.00  0.00    +0.000 A 
ATOM     21  C   UNL     1       7.307   5.503  19.208  0.00  0.00    +0.000 A 
ATOM     22  C   UNL     1       5.921   5.639  19.331  0.00  0.00    +0.000 A 
ATOM     23  C   UNL     1       5.051   5.106  18.366  0.00  0.00    +0.000 A 
BRANCH  18  25
ATOM     24  O   UNL     1       3.732   3.589  16.119  0.00  0.00    +0.000 OA
ATOM     25  C   UNL     1       4.801   4.160  16.014  0.00  0.00    +0.000 C 
BRANCH  25  26
ATOM     26  O   UNL     1       5.393   4.415  14.825  0.00  0.00    +0.000 OA
ATOM     27  H   UNL     1       6.367   4.538  14.883  0.00  0.00    +0.000 HD
ENDBRANCH  25  26
ENDBRANCH  18  25
ENDBRANCH  16  23
ENDBRANCH   1  16
TORSDOF 5
ENDMDL
