MODEL 1
REMARK VINA RESULT:      -8.5      0.000      0.000
REMARK  Name = 
REMARK  12 active torsions:
REMARK  status: ('A' for Active; 'I' for Inactive)
REMARK    1  A    between atoms: C_1  and  O_2
REMARK    2  A    between atoms: O_2  and  C_3
REMARK    3  A    between atoms: C_6  and  C_7
REMARK    4  A    between atoms: C_10  and  C_11
REMARK    5  A    between atoms: C_14  and  S_15
REMARK    6  A    between atoms: S_15  and  N_18
REMARK    7  A    between atoms: N_18  and  C_19
REMARK    8  A    between atoms: C_19  and  C_20
REMARK    9  A    between atoms: C_19  and  C_24
REMARK   10  A    between atoms: N_22  and  O_23
REMARK   11  A    between atoms: C_24  and  C_25
REMARK   12  A    between atoms: C_24  and  C_26
REMARK                            x       y       z     vdW  Elec       q    Type
REMARK                         _______ _______ _______ _____ _____    ______ ____
ROOT
ATOM      1  C   UNL     1       2.082   7.286  19.242  0.00  0.00    +0.000 A 
ATOM      2  C   UNL     1       2.491   6.831  17.982  0.00  0.00    +0.000 A 
ATOM      3  C   UNL     1       3.118   5.599  17.836  0.00  0.00    +0.000 A 
ATOM      4  C   UNL     1       3.353   4.799  18.953  0.00  0.00    +0.000 A 
ATOM      5  C   UNL     1       2.914   5.202  20.215  0.00  0.00    +0.000 A 
ATOM      6  C   UNL     1       2.276   6.449  20.355  0.00  0.00    +0.000 A 
ENDROOT
BRANCH   1  10
ATOM      7  C   UNL     1       0.161  10.512  20.210  0.00  0.00    +0.000 A 
ATOM      8  C   UNL     1       0.863  10.706  19.034  0.00  0.00    +0.000 A 
ATOM      9  N   UNL     1       1.601   9.628  18.573  0.00  0.00    +0.000 NA
ATOM     10  C   UNL     1       1.487   8.621  19.416  0.00  0.00    +0.000 A 
ATOM     11  S   UNL     1       0.494   8.934  20.785  0.00  0.00    +0.000 S 
BRANCH   7  15
ATOM     12  C   UNL     1      -2.400  13.150  22.415  0.00  0.00    +0.000 A 
ATOM     13  C   UNL     1      -2.533  13.044  21.033  0.00  0.00    +0.000 A 
ATOM     14  C   UNL     1      -1.709  12.180  20.310  0.00  0.00    +0.000 A 
ATOM     15  C   UNL     1      -0.726  11.412  20.954  0.00  0.00    +0.000 A 
ATOM     16  C   UNL     1      -0.594  11.539  22.342  0.00  0.00    +0.000 A 
ATOM     17  C   UNL     1      -1.422  12.403  23.067  0.00  0.00    +0.000 A 
BRANCH  12  19
ATOM     18  C   UNL     1      -3.574  13.742  24.371  0.00  0.00    +0.000 C 
ATOM     19  O   UNL     1      -3.248  14.037  23.018  0.00  0.00    +0.000 OA
ENDBRANCH  12  19
ENDBRANCH   7  15
ENDBRANCH   1  10
BRANCH   4  20
ATOM     20  S   UNL     1       4.177   3.252  18.701  0.00  0.00    +0.000 S 
ATOM     21  O   UNL     1       5.018   3.015  19.852  0.00  0.00    +0.000 OA
ATOM     22  O   UNL     1       3.198   2.276  18.260  0.00  0.00    +0.000 OA
BRANCH  20  23
ATOM     23  N   UNL     1       5.218   3.494  17.401  0.00  0.00    +0.000 NA
ATOM     24  H   UNL     1       4.746   3.185  16.551  0.00  0.00    +0.000 HD
BRANCH  23  25
ATOM     25  C   UNL     1       5.952   4.786  17.323  0.00  0.00    +0.000 C 
BRANCH  25  26
ATOM     26  C   UNL     1       7.262   4.705  18.118  0.00  0.00    +0.000 C 
ATOM     27  O   UNL     1       8.286   4.160  17.704  0.00  0.00    +0.000 OA
ATOM     28  N   UNL     1       7.226   5.329  19.349  0.00  0.00    +0.000 N 
ATOM     29  H   UNL     1       6.374   5.291  19.906  0.00  0.00    +0.000 HD
BRANCH  28  30
ATOM     30  O   UNL     1       8.437   5.230  20.084  0.00  0.00    +0.000 OA
ATOM     31  H   UNL     1       8.640   4.268  20.036  0.00  0.00    +0.000 HD
ENDBRANCH  28  30
ENDBRANCH  25  26
BRANCH  25  32
ATOM     32  C   UNL     1       6.280   5.142  15.846  0.00  0.00    +0.000 C 
ATOM     33  C   UNL     1       6.081   3.959  14.889  0.00  0.00    +0.000 C 
ATOM     34  C   UNL     1       5.399   6.300  15.346  0.00  0.00    +0.000 C 
ENDBRANCH  25  32
ENDBRANCH  23  25
ENDBRANCH  20  23
ENDBRANCH   4  20
TORSDOF 9
ENDMDL
MODEL 2
REMARK VINA RESULT:      -8.5      0.323      1.245
REMARK  Name = 
REMARK  12 active torsions:
REMARK  status: ('A' for Active; 'I' for Inactive)
REMARK    1  A    between atoms: C_1  and  O_2
REMARK    2  A    between atoms: O_2  and  C_3
REMARK    3  A    between atoms: C_6  and  C_7
REMARK    4  A    between atoms: C_10  and  C_11
REMARK    5  A    between atoms: C_14  and  S_15
REMARK    6  A    between atoms: S_15  and  N_18
REMARK    7  A    between atoms: N_18  and  C_19
REMARK    8  A    between atoms: C_19  and  C_20
REMARK    9  A    between atoms: C_19  and  C_24
REMARK   10  A    between atoms: N_22  and  O_23
REMARK   11  A    between atoms: C_24  and  C_25
REMARK   12  A    between atoms: C_24  and  C_26
REMARK                            x       y       z     vdW  Elec       q    Type
REMARK                         _______ _______ _______ _____ _____    ______ ____
ROOT
ATOM      1  C   UNL     1       2.118   7.569  19.269  0.00  0.00    +0.000 A 
ATOM      2  C   UNL     1       2.064   6.587  20.266  0.00  0.00    +0.000 A 
ATOM      3  C   UNL     1       2.690   5.358  20.093  0.00  0.00    +0.000 A 
ATOM      4  C   UNL     1       3.378   5.084  18.913  0.00  0.00    +0.000 A 
ATOM      5  C   UNL     1       3.493   6.059  17.920  0.00  0.00    +0.000 A 
ATOM      6  C   UNL     1       2.860   7.304  18.104  0.00  0.00    +0.000 A 
ENDROOT
BRANCH   1  10
ATOM      7  C   UNL     1      -0.069  10.633  20.196  0.00  0.00    +0.000 A 
ATOM      8  C   UNL     1       0.524  10.822  18.960  0.00  0.00    +0.000 A 
ATOM      9  N   UNL     1       1.340   9.799  18.506  0.00  0.00    +0.000 NA
ATOM     10  C   UNL     1       1.396   8.842  19.411  0.00  0.00    +0.000 A 
ATOM     11  S   UNL     1       0.473   9.139  20.833  0.00  0.00    +0.000 S 
BRANCH   7  15
ATOM     12  C   UNL     1      -2.799  13.119  22.375  0.00  0.00    +0.000 A 
ATOM     13  C   UNL     1      -2.020  12.182  23.049  0.00  0.00    +0.000 A 
ATOM     14  C   UNL     1      -1.121  11.376  22.348  0.00  0.00    +0.000 A 
ATOM     15  C   UNL     1      -0.993  11.482  20.954  0.00  0.00    +0.000 A 
ATOM     16  C   UNL     1      -1.793  12.418  20.287  0.00  0.00    +0.000 A 
ATOM     17  C   UNL     1      -2.691  13.228  20.991  0.00  0.00    +0.000 A 
BRANCH  12  19
ATOM     18  C   UNL     1      -3.268  13.965  24.523  0.00  0.00    +0.000 C 
ATOM     19  O   UNL     1      -3.654  13.842  23.160  0.00  0.00    +0.000 OA
ENDBRANCH  12  19
ENDBRANCH   7  15
ENDBRANCH   1  10
BRANCH   4  20
ATOM     20  S   UNL     1       4.132   3.491  18.747  0.00  0.00    +0.000 S 
ATOM     21  O   UNL     1       4.975   3.286  19.903  0.00  0.00    +0.000 OA
ATOM     22  O   UNL     1       3.108   2.534  18.373  0.00  0.00    +0.000 OA
BRANCH  20  23
ATOM     23  N   UNL     1       5.168   3.611  17.426  0.00  0.00    +0.000 NA
ATOM     24  H   UNL     1       4.666   3.299  16.595  0.00  0.00    +0.000 HD
BRANCH  23  25
ATOM     25  C   UNL     1       5.984   4.848  17.285  0.00  0.00    +0.000 C 
BRANCH  25  26
ATOM     26  C   UNL     1       7.285   4.725  18.090  0.00  0.00    +0.000 C 
ATOM     27  O   UNL     1       8.291   4.140  17.686  0.00  0.00    +0.000 OA
ATOM     28  N   UNL     1       7.264   5.356  19.317  0.00  0.00    +0.000 N 
ATOM     29  H   UNL     1       6.407   5.352  19.869  0.00  0.00    +0.000 HD
BRANCH  28  30
ATOM     30  O   UNL     1       8.465   5.218  20.061  0.00  0.00    +0.000 OA
ATOM     31  H   UNL     1       8.329   4.365  20.532  0.00  0.00    +0.000 HD
ENDBRANCH  28  30
ENDBRANCH  25  26
BRANCH  25  32
ATOM     32  C   UNL     1       6.336   5.106  15.794  0.00  0.00    +0.000 C 
ATOM     33  C   UNL     1       6.158   3.860  14.915  0.00  0.00    +0.000 C 
ATOM     34  C   UNL     1       5.459   6.223  15.203  0.00  0.00    +0.000 C 
ENDBRANCH  25  32
ENDBRANCH  23  25
ENDBRANCH  20  23
ENDBRANCH   4  20
TORSDOF 9
ENDMDL
MODEL 3
REMARK VINA RESULT:      -8.4      1.876      2.848
REMARK  Name = 
REMARK  12 active torsions:
REMARK  status: ('A' for Active; 'I' for Inactive)
REMARK    1  A    between atoms: C_1  and  O_2
REMARK    2  A    between atoms: O_2  and  C_3
REMARK    3  A    between atoms: C_6  and  C_7
REMARK    4  A    between atoms: C_10  and  C_11
REMARK    5  A    between atoms: C_14  and  S_15
REMARK    6  A    between atoms: S_15  and  N_18
REMARK    7  A    between atoms: N_18  and  C_19
REMARK    8  A    between atoms: C_19  and  C_20
REMARK    9  A    between atoms: C_19  and  C_24
REMARK   10  A    between atoms: N_22  and  O_23
REMARK   11  A    between atoms: C_24  and  C_25
REMARK   12  A    between atoms: C_24  and  C_26
REMARK                            x       y       z     vdW  Elec       q    Type
REMARK                         _______ _______ _______ _____ _____    ______ ____
ROOT
ATOM      1  C   UNL     1       1.469   8.833  19.332  0.00  0.00    +0.000 A 
ATOM      2  C   UNL     1       1.664   7.734  20.179  0.00  0.00    +0.000 A 
ATOM      3  C   UNL     1       2.431   6.647  19.775  0.00  0.00    +0.000 A 
ATOM      4  C   UNL     1       3.014   6.636  18.509  0.00  0.00    +0.000 A 
ATOM      5  C   UNL     1       2.880   7.736  17.661  0.00  0.00    +0.000 A 
ATOM      6  C   UNL     1       2.105   8.836  18.079  0.00  0.00    +0.000 A 
ENDROOT
BRANCH   1  10
ATOM      7  C   UNL     1      -0.677  11.596  21.003  0.00  0.00    +0.000 A 
ATOM      8  C   UNL     1      -0.911  11.564  19.639  0.00  0.00    +0.000 A 
ATOM      9  N   UNL     1      -0.202  10.620  18.915  0.00  0.00    +0.000 NA
ATOM     10  C   UNL     1       0.598   9.952  19.722  0.00  0.00    +0.000 A 
ATOM     11  S   UNL     1       0.525  10.434  21.372  0.00  0.00    +0.000 S 
BRANCH   7  15
ATOM     12  C   UNL     1      -2.368  14.081  24.059  0.00  0.00    +0.000 A 
ATOM     13  C   UNL     1      -3.044  12.939  23.636  0.00  0.00    +0.000 A 
ATOM     14  C   UNL     1      -2.495  12.120  22.648  0.00  0.00    +0.000 A 
ATOM     15  C   UNL     1      -1.262  12.434  22.054  0.00  0.00    +0.000 A 
ATOM     16  C   UNL     1      -0.600  13.592  22.479  0.00  0.00    +0.000 A 
ATOM     17  C   UNL     1      -1.150  14.411  23.471  0.00  0.00    +0.000 A 
BRANCH  12  19
ATOM     18  C   UNL     1      -2.355  16.025  25.391  0.00  0.00    +0.000 C 
ATOM     19  O   UNL     1      -3.006  14.816  25.020  0.00  0.00    +0.000 OA
ENDBRANCH  12  19
ENDBRANCH   7  15
ENDBRANCH   1  10
BRANCH   4  20
ATOM     20  S   UNL     1       3.958   5.212  18.048  0.00  0.00    +0.000 S 
ATOM     21  O   UNL     1       4.727   4.806  19.202  0.00  0.00    +0.000 OA
ATOM     22  O   UNL     1       3.084   4.285  17.352  0.00  0.00    +0.000 OA
BRANCH  20  23
ATOM     23  N   UNL     1       5.073   5.751  16.907  0.00  0.00    +0.000 NA
ATOM     24  H   UNL     1       5.042   6.770  16.887  0.00  0.00    +0.000 HD
BRANCH  23  25
ATOM     25  C   UNL     1       6.423   5.125  16.897  0.00  0.00    +0.000 C 
BRANCH  25  26
ATOM     26  C   UNL     1       6.814   4.720  15.470  0.00  0.00    +0.000 C 
ATOM     27  O   UNL     1       7.709   5.263  14.821  0.00  0.00    +0.000 OA
ATOM     28  N   UNL     1       6.099   3.657  14.958  0.00  0.00    +0.000 N 
ATOM     29  H   UNL     1       5.109   3.563  15.182  0.00  0.00    +0.000 HD
BRANCH  28  30
ATOM     30  O   UNL     1       6.454   3.305  13.629  0.00  0.00    +0.000 OA
ATOM     31  H   UNL     1       6.821   2.398  13.738  0.00  0.00    +0.000 HD
ENDBRANCH  28  30
ENDBRANCH  25  26
BRANCH  25  32
ATOM     32  C   UNL     1       7.488   6.111  17.451  0.00  0.00    +0.000 C 
ATOM     33  C   UNL     1       7.020   7.572  17.426  0.00  0.00    +0.000 C 
ATOM     34  C   UNL     1       7.861   5.766  18.904  0.00  0.00    +0.000 C 
ENDBRANCH  25  32
ENDBRANCH  23  25
ENDBRANCH  20  23
ENDBRANCH   4  20
TORSDOF 9
ENDMDL
MODEL 4
REMARK VINA RESULT:      -8.4      1.860      2.710
REMARK  Name = 
REMARK  12 active torsions:
REMARK  status: ('A' for Active; 'I' for Inactive)
REMARK    1  A    between atoms: C_1  and  O_2
REMARK    2  A    between atoms: O_2  and  C_3
REMARK    3  A    between atoms: C_6  and  C_7
REMARK    4  A    between atoms: C_10  and  C_11
REMARK    5  A    between atoms: C_14  and  S_15
REMARK    6  A    between atoms: S_15  and  N_18
REMARK    7  A    between atoms: N_18  and  C_19
REMARK    8  A    between atoms: C_19  and  C_20
REMARK    9  A    between atoms: C_19  and  C_24
REMARK   10  A    between atoms: N_22  and  O_23
REMARK   11  A    between atoms: C_24  and  C_25
REMARK   12  A    between atoms: C_24  and  C_26
REMARK                            x       y       z     vdW  Elec       q    Type
REMARK                         _______ _______ _______ _____ _____    ______ ____
ROOT
ATOM      1  C   UNL     1       1.702   7.488  20.171  0.00  0.00    +0.000 A 
ATOM      2  C   UNL     1       2.255   7.762  18.913  0.00  0.00    +0.000 A 
ATOM      3  C   UNL     1       2.942   6.781  18.206  0.00  0.00    +0.000 A 
ATOM      4  C   UNL     1       3.093   5.506  18.748  0.00  0.00    +0.000 A 
ATOM      5  C   UNL     1       2.511   5.187  19.976  0.00  0.00    +0.000 A 
ATOM      6  C   UNL     1       1.813   6.185  20.685  0.00  0.00    +0.000 A 
ENDROOT
BRANCH   1  10
ATOM      7  C   UNL     1      -0.140  10.566  21.642  0.00  0.00    +0.000 A 
ATOM      8  C   UNL     1       0.392   9.793  22.659  0.00  0.00    +0.000 A 
ATOM      9  N   UNL     1       1.077   8.653  22.271  0.00  0.00    +0.000 NA
ATOM     10  C   UNL     1       1.040   8.540  20.959  0.00  0.00    +0.000 A 
ATOM     11  S   UNL     1       0.185   9.794  20.149  0.00  0.00    +0.000 S 
BRANCH   7  15
ATOM     12  C   UNL     1      -2.346  14.241  21.745  0.00  0.00    +0.000 A 
ATOM     13  C   UNL     1      -1.913  13.655  22.931  0.00  0.00    +0.000 A 
ATOM     14  C   UNL     1      -1.185  12.464  22.905  0.00  0.00    +0.000 A 
ATOM     15  C   UNL     1      -0.887  11.827  21.690  0.00  0.00    +0.000 A 
ATOM     16  C   UNL     1      -1.341  12.420  20.505  0.00  0.00    +0.000 A 
ATOM     17  C   UNL     1      -2.067  13.615  20.532  0.00  0.00    +0.000 A 
BRANCH  12  19
ATOM     18  C   UNL     1      -4.393  15.230  22.363  0.00  0.00    +0.000 C 
ATOM     19  O   UNL     1      -3.062  15.397  21.890  0.00  0.00    +0.000 OA
ENDBRANCH  12  19
ENDBRANCH   7  15
ENDBRANCH   1  10
BRANCH   4  20
ATOM     20  S   UNL     1       3.998   4.311  17.807  0.00  0.00    +0.000 S 
ATOM     21  O   UNL     1       4.898   3.635  18.712  0.00  0.00    +0.000 OA
ATOM     22  O   UNL     1       3.062   3.576  16.975  0.00  0.00    +0.000 OA
BRANCH  20  23
ATOM     23  N   UNL     1       4.967   5.196  16.754  0.00  0.00    +0.000 NA
ATOM     24  H   UNL     1       4.744   6.185  16.867  0.00  0.00    +0.000 HD
BRANCH  23  25
ATOM     25  C   UNL     1       6.411   4.846  16.669  0.00  0.00    +0.000 C 
BRANCH  25  26
ATOM     26  C   UNL     1       6.824   4.627  15.207  0.00  0.00    +0.000 C 
ATOM     27  O   UNL     1       7.680   5.296  14.627  0.00  0.00    +0.000 OA
ATOM     28  N   UNL     1       6.178   3.583  14.577  0.00  0.00    +0.000 N 
ATOM     29  H   UNL     1       5.197   3.401  14.786  0.00  0.00    +0.000 HD
BRANCH  28  30
ATOM     30  O   UNL     1       6.552   3.404  13.220  0.00  0.00    +0.000 OA
ATOM     31  H   UNL     1       5.886   3.947  12.740  0.00  0.00    +0.000 HD
ENDBRANCH  28  30
ENDBRANCH  25  26
BRANCH  25  32
ATOM     32  C   UNL     1       7.286   5.977  17.276  0.00  0.00    +0.000 C 
ATOM     33  C   UNL     1       6.569   7.333  17.310  0.00  0.00    +0.000 C 
ATOM     34  C   UNL     1       7.711   5.637  18.716  0.00  0.00    +0.000 C 
ENDBRANCH  25  32
ENDBRANCH  23  25
ENDBRANCH  20  23
ENDBRANCH   4  20
TORSDOF 9
ENDMDL
MODEL 5
REMARK VINA RESULT:      -8.3      1.898      2.407
REMARK  Name = 
REMARK  12 active torsions:
REMARK  status: ('A' for Active; 'I' for Inactive)
REMARK    1  A    between atoms: C_1  and  O_2
REMARK    2  A    between atoms: O_2  and  C_3
REMARK    3  A    between atoms: C_6  and  C_7
REMARK    4  A    between atoms: C_10  and  C_11
REMARK    5  A    between atoms: C_14  and  S_15
REMARK    6  A    between atoms: S_15  and  N_18
REMARK    7  A    between atoms: N_18  and  C_19
REMARK    8  A    between atoms: C_19  and  C_20
REMARK    9  A    between atoms: C_19  and  C_24
REMARK   10  A    between atoms: N_22  and  O_23
REMARK   11  A    between atoms: C_24  and  C_25
REMARK   12  A    between atoms: C_24  and  C_26
REMARK                            x       y       z     vdW  Elec       q    Type
REMARK                         _______ _______ _______ _____ _____    ______ ____
ROOT
ATOM      1  C   UNL     1       2.058   7.092  19.803  0.00  0.00    +0.000 A 
ATOM      2  C   UNL     1       2.565   6.878  18.515  0.00  0.00    +0.000 A 
ATOM      3  C   UNL     1       3.161   5.669  18.173  0.00  0.00    +0.000 A 
ATOM      4  C   UNL     1       3.265   4.651  19.118  0.00  0.00    +0.000 A 
ATOM      5  C   UNL     1       2.726   4.815  20.396  0.00  0.00    +0.000 A 
ATOM      6  C   UNL     1       2.121   6.041  20.733  0.00  0.00    +0.000 A 
ENDROOT
BRANCH   1  10
ATOM      7  C   UNL     1       0.748  10.720  20.202  0.00  0.00    +0.000 A 
ATOM      8  C   UNL     1       0.727  10.064  21.420  0.00  0.00    +0.000 A 
ATOM      9  N   UNL     1       1.168   8.751  21.420  0.00  0.00    +0.000 NA
ATOM     10  C   UNL     1       1.496   8.394  20.195  0.00  0.00    +0.000 A 
ATOM     11  S   UNL     1       1.287   9.620  19.006  0.00  0.00    +0.000 S 
BRANCH   7  15
ATOM     12  C   UNL     1      -0.344  14.745  19.208  0.00  0.00    +0.000 A 
ATOM     13  C   UNL     1       0.911  14.255  18.853  0.00  0.00    +0.000 A 
ATOM     14  C   UNL     1       1.270  12.943  19.165  0.00  0.00    +0.000 A 
ATOM     15  C   UNL     1       0.384  12.096  19.850  0.00  0.00    +0.000 A 
ATOM     16  C   UNL     1      -0.869  12.605  20.212  0.00  0.00    +0.000 A 
ATOM     17  C   UNL     1      -1.229  13.920  19.897  0.00  0.00    +0.000 A 
BRANCH  12  19
ATOM     18  C   UNL     1       0.566  16.791  18.475  0.00  0.00    +0.000 C 
ATOM     19  O   UNL     1      -0.582  16.047  18.866  0.00  0.00    +0.000 OA
ENDBRANCH  12  19
ENDBRANCH   7  15
ENDBRANCH   1  10
BRANCH   4  20
ATOM     20  S   UNL     1       4.055   3.145  18.626  0.00  0.00    +0.000 S 
ATOM     21  O   UNL     1       4.919   2.732  19.708  0.00  0.00    +0.000 OA
ATOM     22  O   UNL     1       3.048   2.256  18.075  0.00  0.00    +0.000 OA
BRANCH  20  23
ATOM     23  N   UNL     1       5.068   3.557  17.346  0.00  0.00    +0.000 NA
ATOM     24  H   UNL     1       4.603   3.303  16.475  0.00  0.00    +0.000 HD
BRANCH  23  25
ATOM     25  C   UNL     1       5.736   4.886  17.382  0.00  0.00    +0.000 C 
BRANCH  25  26
ATOM     26  C   UNL     1       6.986   4.833  18.271  0.00  0.00    +0.000 C 
ATOM     27  O   UNL     1       8.073   4.388  17.902  0.00  0.00    +0.000 OA
ATOM     28  N   UNL     1       6.816   5.360  19.535  0.00  0.00    +0.000 N 
ATOM     29  H   UNL     1       5.930   5.225  20.020  0.00  0.00    +0.000 HD
BRANCH  28  30
ATOM     30  O   UNL     1       7.973   5.286  20.354  0.00  0.00    +0.000 OA
ATOM     31  H   UNL     1       8.485   4.557  19.938  0.00  0.00    +0.000 HD
ENDBRANCH  28  30
ENDBRANCH  25  26
BRANCH  25  32
ATOM     32  C   UNL     1       6.152   5.329  15.952  0.00  0.00    +0.000 C 
ATOM     33  C   UNL     1       6.067   4.191  14.926  0.00  0.00    +0.000 C 
ATOM     34  C   UNL     1       5.264   6.480  15.448  0.00  0.00    +0.000 C 
ENDBRANCH  25  32
ENDBRANCH  23  25
ENDBRANCH  20  23
ENDBRANCH   4  20
TORSDOF 9
ENDMDL
MODEL 6
REMARK VINA RESULT:      -8.2      1.948      2.547
REMARK  Name = 
REMARK  12 active torsions:
REMARK  status: ('A' for Active; 'I' for Inactive)
REMARK    1  A    between atoms: C_1  and  O_2
REMARK    2  A    between atoms: O_2  and  C_3
REMARK    3  A    between atoms: C_6  and  C_7
REMARK    4  A    between atoms: C_10  and  C_11
REMARK    5  A    between atoms: C_14  and  S_15
REMARK    6  A    between atoms: S_15  and  N_18
REMARK    7  A    between atoms: N_18  and  C_19
REMARK    8  A    between atoms: C_19  and  C_20
REMARK    9  A    between atoms: C_19  and  C_24
REMARK   10  A    between atoms: N_22  and  O_23
REMARK   11  A    between atoms: C_24  and  C_25
REMARK   12  A    between atoms: C_24  and  C_26
REMARK                            x       y       z     vdW  Elec       q    Type
REMARK                         _______ _______ _______ _____ _____    ______ ____
ROOT
ATOM      1  C   UNL     1       1.703   7.451  20.198  0.00  0.00    +0.000 A 
ATOM      2  C   UNL     1       2.235   7.742  18.936  0.00  0.00    +0.000 A 
ATOM      3  C   UNL     1       2.897   6.767  18.197  0.00  0.00    +0.000 A 
ATOM      4  C   UNL     1       3.043   5.481  18.712  0.00  0.00    +0.000 A 
ATOM      5  C   UNL     1       2.481   5.145  19.945  0.00  0.00    +0.000 A 
ATOM      6  C   UNL     1       1.809   6.137  20.686  0.00  0.00    +0.000 A 
ENDROOT
BRANCH   1  10
ATOM      7  C   UNL     1      -0.217  10.433  21.764  0.00  0.00    +0.000 A 
ATOM      8  C   UNL     1       0.592   9.832  22.712  0.00  0.00    +0.000 A 
ATOM      9  N   UNL     1       1.336   8.744  22.285  0.00  0.00    +0.000 NA
ATOM     10  C   UNL     1       1.069   8.495  21.018  0.00  0.00    +0.000 A 
ATOM     11  S   UNL     1      -0.080   9.556  20.301  0.00  0.00    +0.000 S 
BRANCH   7  15
ATOM     12  C   UNL     1      -2.800  13.839  22.095  0.00  0.00    +0.000 A 
ATOM     13  C   UNL     1      -1.930  13.726  21.013  0.00  0.00    +0.000 A 
ATOM     14  C   UNL     1      -1.093  12.615  20.894  0.00  0.00    +0.000 A 
ATOM     15  C   UNL     1      -1.101  11.599  21.862  0.00  0.00    +0.000 A 
ATOM     16  C   UNL     1      -1.969  11.732  22.952  0.00  0.00    +0.000 A 
ATOM     17  C   UNL     1      -2.810  12.844  23.070  0.00  0.00    +0.000 A 
BRANCH  12  19
ATOM     18  C   UNL     1      -4.919  14.787  22.496  0.00  0.00    +0.000 C 
ATOM     19  O   UNL     1      -3.561  14.975  22.118  0.00  0.00    +0.000 OA
ENDBRANCH  12  19
ENDBRANCH   7  15
ENDBRANCH   1  10
BRANCH   4  20
ATOM     20  S   UNL     1       3.916   4.293  17.731  0.00  0.00    +0.000 S 
ATOM     21  O   UNL     1       4.837   3.601  18.603  0.00  0.00    +0.000 OA
ATOM     22  O   UNL     1       2.955   3.574  16.915  0.00  0.00    +0.000 OA
BRANCH  20  23
ATOM     23  N   UNL     1       4.862   5.188  16.664  0.00  0.00    +0.000 NA
ATOM     24  H   UNL     1       4.648   6.176  16.796  0.00  0.00    +0.000 HD
BRANCH  23  25
ATOM     25  C   UNL     1       6.300   4.830  16.534  0.00  0.00    +0.000 C 
BRANCH  25  26
ATOM     26  C   UNL     1       6.682   4.674  15.056  0.00  0.00    +0.000 C 
ATOM     27  O   UNL     1       6.151   3.868  14.290  0.00  0.00    +0.000 OA
ATOM     28  N   UNL     1       7.663   5.541  14.620  0.00  0.00    +0.000 N 
ATOM     29  H   UNL     1       8.430   5.785  15.245  0.00  0.00    +0.000 HD
BRANCH  28  30
ATOM     30  O   UNL     1       8.022   5.373  13.257  0.00  0.00    +0.000 OA
ATOM     31  H   UNL     1       7.196   5.626  12.785  0.00  0.00    +0.000 HD
ENDBRANCH  28  30
ENDBRANCH  25  26
BRANCH  25  32
ATOM     32  C   UNL     1       7.198   5.925  17.173  0.00  0.00    +0.000 C 
ATOM     33  C   UNL     1       6.465   7.260  17.366  0.00  0.00    +0.000 C 
ATOM     34  C   UNL     1       7.723   5.479  18.549  0.00  0.00    +0.000 C 
ENDBRANCH  25  32
ENDBRANCH  23  25
ENDBRANCH  20  23
ENDBRANCH   4  20
TORSDOF 9
ENDMDL
MODEL 7
REMARK VINA RESULT:      -8.1      1.803      2.834
REMARK  Name = 
REMARK  12 active torsions:
REMARK  status: ('A' for Active; 'I' for Inactive)
REMARK    1  A    between atoms: C_1  and  O_2
REMARK    2  A    between atoms: O_2  and  C_3
REMARK    3  A    between atoms: C_6  and  C_7
REMARK    4  A    between atoms: C_10  and  C_11
REMARK    5  A    between atoms: C_14  and  S_15
REMARK    6  A    between atoms: S_15  and  N_18
REMARK    7  A    between atoms: N_18  and  C_19
REMARK    8  A    between atoms: C_19  and  C_20
REMARK    9  A    between atoms: C_19  and  C_24
REMARK   10  A    between atoms: N_22  and  O_23
REMARK   11  A    between atoms: C_24  and  C_25
REMARK   12  A    between atoms: C_24  and  C_26
REMARK                            x       y       z     vdW  Elec       q    Type
REMARK                         _______ _______ _______ _____ _____    ______ ____
ROOT
ATOM      1  C   UNL     1       1.274   9.117  19.282  0.00  0.00    +0.000 A 
ATOM      2  C   UNL     1       1.813   8.917  18.005  0.00  0.00    +0.000 A 
ATOM      3  C   UNL     1       2.598   7.804  17.728  0.00  0.00    +0.000 A 
ATOM      4  C   UNL     1       2.863   6.870  18.727  0.00  0.00    +0.000 A 
ATOM      5  C   UNL     1       2.299   7.014  19.996  0.00  0.00    +0.000 A 
ATOM      6  C   UNL     1       1.502   8.143  20.269  0.00  0.00    +0.000 A 
ENDROOT
BRANCH   1  10
ATOM      7  C   UNL     1      -1.025  11.933  20.631  0.00  0.00    +0.000 A 
ATOM      8  C   UNL     1      -0.432  12.325  19.444  0.00  0.00    +0.000 A 
ATOM      9  N   UNL     1       0.422  11.409  18.852  0.00  0.00    +0.000 NA
ATOM     10  C   UNL     1       0.506  10.330  19.604  0.00  0.00    +0.000 A 
ATOM     11  S   UNL     1      -0.435  10.380  21.044  0.00  0.00    +0.000 S 
BRANCH   7  15
ATOM     12  C   UNL     1      -3.861  13.952  23.134  0.00  0.00    +0.000 A 
ATOM     13  C   UNL     1      -2.678  13.459  23.678  0.00  0.00    +0.000 A 
ATOM     14  C   UNL     1      -1.745  12.809  22.868  0.00  0.00    +0.000 A 
ATOM     15  C   UNL     1      -1.984  12.628  21.496  0.00  0.00    +0.000 A 
ATOM     16  C   UNL     1      -3.183  13.116  20.964  0.00  0.00    +0.000 A 
ATOM     17  C   UNL     1      -4.116  13.770  21.776  0.00  0.00    +0.000 A 
BRANCH  12  19
ATOM     18  C   UNL     1      -4.577  15.969  24.118  0.00  0.00    +0.000 C 
ATOM     19  O   UNL     1      -4.707  14.556  24.022  0.00  0.00    +0.000 OA
ENDBRANCH  12  19
ENDBRANCH   7  15
ENDBRANCH   1  10
BRANCH   4  20
ATOM     20  S   UNL     1       3.889   5.487  18.315  0.00  0.00    +0.000 S 
ATOM     21  O   UNL     1       4.346   4.899  19.553  0.00  0.00    +0.000 OA
ATOM     22  O   UNL     1       3.211   4.697  17.302  0.00  0.00    +0.000 OA
BRANCH  20  23
ATOM     23  N   UNL     1       5.252   6.134  17.571  0.00  0.00    +0.000 NA
ATOM     24  H   UNL     1       5.387   7.084  17.918  0.00  0.00    +0.000 HD
BRANCH  23  25
ATOM     25  C   UNL     1       6.468   5.282  17.474  0.00  0.00    +0.000 C 
BRANCH  25  26
ATOM     26  C   UNL     1       6.701   4.843  16.022  0.00  0.00    +0.000 C 
ATOM     27  O   UNL     1       7.436   5.439  15.233  0.00  0.00    +0.000 OA
ATOM     28  N   UNL     1       6.039   3.689  15.657  0.00  0.00    +0.000 N 
ATOM     29  H   UNL     1       5.105   3.509  16.023  0.00  0.00    +0.000 HD
BRANCH  28  30
ATOM     30  O   UNL     1       6.244   3.305  14.306  0.00  0.00    +0.000 OA
ATOM     31  H   UNL     1       6.852   2.535  14.391  0.00  0.00    +0.000 HD
ENDBRANCH  28  30
ENDBRANCH  25  26
BRANCH  25  32
ATOM     32  C   UNL     1       7.720   6.054  17.974  0.00  0.00    +0.000 C 
ATOM     33  C   UNL     1       7.601   7.573  17.782  0.00  0.00    +0.000 C 
ATOM     34  C   UNL     1       7.974   5.792  19.469  0.00  0.00    +0.000 C 
ENDBRANCH  25  32
ENDBRANCH  23  25
ENDBRANCH  20  23
ENDBRANCH   4  20
TORSDOF 9
ENDMDL
MODEL 8
REMARK VINA RESULT:      -8.1      1.116      1.191
REMARK  Name = 
REMARK  12 active torsions:
REMARK  status: ('A' for Active; 'I' for Inactive)
REMARK    1  A    between atoms: C_1  and  O_2
REMARK    2  A    between atoms: O_2  and  C_3
REMARK    3  A    between atoms: C_6  and  C_7
REMARK    4  A    between atoms: C_10  and  C_11
REMARK    5  A    between atoms: C_14  and  S_15
REMARK    6  A    between atoms: S_15  and  N_18
REMARK    7  A    between atoms: N_18  and  C_19
REMARK    8  A    between atoms: C_19  and  C_20
REMARK    9  A    between atoms: C_19  and  C_24
REMARK   10  A    between atoms: N_22  and  O_23
REMARK   11  A    between atoms: C_24  and  C_25
REMARK   12  A    between atoms: C_24  and  C_26
REMARK                            x       y       z     vdW  Elec       q    Type
REMARK                         _______ _______ _______ _____ _____    ______ ____
ROOT
ATOM      1  C   UNL     1       1.972   7.463  19.496  0.00  0.00    +0.000 A 
ATOM      2  C   UNL     1       2.395   7.073  18.220  0.00  0.00    +0.000 A 
ATOM      3  C   UNL     1       2.965   5.823  18.007  0.00  0.00    +0.000 A 
ATOM      4  C   UNL     1       3.125   4.938  19.072  0.00  0.00    +0.000 A 
ATOM      5  C   UNL     1       2.668   5.277  20.346  0.00  0.00    +0.000 A 
ATOM      6  C   UNL     1       2.089   6.544  20.554  0.00  0.00    +0.000 A 
ENDROOT
BRANCH   1  10
ATOM      7  C   UNL     1       0.362  10.759  20.752  0.00  0.00    +0.000 A 
ATOM      8  C   UNL     1       0.732  10.881  19.424  0.00  0.00    +0.000 A 
ATOM      9  N   UNL     1       1.327   9.771  18.848  0.00  0.00    +0.000 NA
ATOM     10  C   UNL     1       1.440   8.812  19.745  0.00  0.00    +0.000 A 
ATOM     11  S   UNL     1       0.837   9.211  21.306  0.00  0.00    +0.000 S 
BRANCH   7  15
ATOM     12  C   UNL     1      -1.587  13.503  23.408  0.00  0.00    +0.000 A 
ATOM     13  C   UNL     1      -0.599  13.958  22.539  0.00  0.00    +0.000 A 
ATOM     14  C   UNL     1       0.034  13.072  21.664  0.00  0.00    +0.000 A 
ATOM     15  C   UNL     1      -0.303  11.709  21.650  0.00  0.00    +0.000 A 
ATOM     16  C   UNL     1      -1.288  11.263  22.539  0.00  0.00    +0.000 A 
ATOM     17  C   UNL     1      -1.924  12.151  23.413  0.00  0.00    +0.000 A 
BRANCH  12  19
ATOM     18  C   UNL     1      -3.545  14.553  24.193  0.00  0.00    +0.000 C 
ATOM     19  O   UNL     1      -2.126  14.454  24.229  0.00  0.00    +0.000 OA
ENDBRANCH  12  19
ENDBRANCH   7  15
ENDBRANCH   1  10
BRANCH   4  20
ATOM     20  S   UNL     1       3.877   3.371  18.737  0.00  0.00    +0.000 S 
ATOM     21  O   UNL     1       3.920   2.634  19.979  0.00  0.00    +0.000 OA
ATOM     22  O   UNL     1       3.269   2.814  17.543  0.00  0.00    +0.000 OA
BRANCH  20  23
ATOM     23  N   UNL     1       5.477   3.707  18.335  0.00  0.00    +0.000 NA
ATOM     24  H   UNL     1       5.828   2.947  17.754  0.00  0.00    +0.000 HD
BRANCH  23  25
ATOM     25  C   UNL     1       5.813   5.090  17.899  0.00  0.00    +0.000 C 
BRANCH  25  26
ATOM     26  C   UNL     1       6.918   5.677  18.787  0.00  0.00    +0.000 C 
ATOM     27  O   UNL     1       7.189   5.260  19.914  0.00  0.00    +0.000 OA
ATOM     28  N   UNL     1       7.629   6.711  18.213  0.00  0.00    +0.000 N 
ATOM     29  H   UNL     1       7.145   7.382  17.617  0.00  0.00    +0.000 HD
BRANCH  28  30
ATOM     30  O   UNL     1       8.634   7.260  19.052  0.00  0.00    +0.000 OA
ATOM     31  H   UNL     1       9.464   7.000  18.591  0.00  0.00    +0.000 HD
ENDBRANCH  28  30
ENDBRANCH  25  26
BRANCH  25  32
ATOM     32  C   UNL     1       6.296   5.096  16.422  0.00  0.00    +0.000 C 
ATOM     33  C   UNL     1       6.213   3.714  15.761  0.00  0.00    +0.000 C 
ATOM     34  C   UNL     1       5.465   6.072  15.571  0.00  0.00    +0.000 C 
ENDBRANCH  25  32
ENDBRANCH  23  25
ENDBRANCH  20  23
ENDBRANCH   4  20
TORSDOF 9
ENDMDL
MODEL 9
REMARK VINA RESULT:      -8.1      1.668      2.230
REMARK  Name = 
REMARK  12 active torsions:
REMARK  status: ('A' for Active; 'I' for Inactive)
REMARK    1  A    between atoms: C_1  and  O_2
REMARK    2  A    between atoms: O_2  and  C_3
REMARK    3  A    between atoms: C_6  and  C_7
REMARK    4  A    between atoms: C_10  and  C_11
REMARK    5  A    between atoms: C_14  and  S_15
REMARK    6  A    between atoms: S_15  and  N_18
REMARK    7  A    between atoms: N_18  and  C_19
REMARK    8  A    between atoms: C_19  and  C_20
REMARK    9  A    between atoms: C_19  and  C_24
REMARK   10  A    between atoms: N_22  and  O_23
REMARK   11  A    between atoms: C_24  and  C_25
REMARK   12  A    between atoms: C_24  and  C_26
REMARK                            x       y       z     vdW  Elec       q    Type
REMARK                         _______ _______ _______ _____ _____    ______ ____
ROOT
ATOM      1  C   UNL     1       2.117   7.013  19.772  0.00  0.00    +0.000 A 
ATOM      2  C   UNL     1       2.435   5.974  20.655  0.00  0.00    +0.000 A 
ATOM      3  C   UNL     1       2.926   4.761  20.184  0.00  0.00    +0.000 A 
ATOM      4  C   UNL     1       3.105   4.565  18.816  0.00  0.00    +0.000 A 
ATOM      5  C   UNL     1       2.844   5.598  17.914  0.00  0.00    +0.000 A 
ATOM      6  C   UNL     1       2.350   6.824  18.399  0.00  0.00    +0.000 A 
ENDROOT
BRANCH   1  10
ATOM      7  C   UNL     1       0.695  10.563  20.415  0.00  0.00    +0.000 A 
ATOM      8  C   UNL     1       0.747   9.844  21.597  0.00  0.00    +0.000 A 
ATOM      9  N   UNL     1       1.235   8.551  21.509  0.00  0.00    +0.000 NA
ATOM     10  C   UNL     1       1.525   8.271  20.255  0.00  0.00    +0.000 A 
ATOM     11  S   UNL     1       1.223   9.548  19.142  0.00  0.00    +0.000 S 
BRANCH   7  15
ATOM     12  C   UNL     1      -0.536  14.589  19.605  0.00  0.00    +0.000 A 
ATOM     13  C   UNL     1      -1.309  13.777  20.431  0.00  0.00    +0.000 A 
ATOM     14  C   UNL     1      -0.909  12.468  20.707  0.00  0.00    +0.000 A 
ATOM     15  C   UNL     1       0.267  11.940  20.152  0.00  0.00    +0.000 A 
ATOM     16  C   UNL     1       1.027  12.763  19.311  0.00  0.00    +0.000 A 
ATOM     17  C   UNL     1       0.628  14.075  19.037  0.00  0.00    +0.000 A 
BRANCH  12  19
ATOM     18  C   UNL     1      -1.404  16.558  20.564  0.00  0.00    +0.000 C 
ATOM     19  O   UNL     1      -1.031  15.845  19.391  0.00  0.00    +0.000 OA
ENDBRANCH  12  19
ENDBRANCH   7  15
ENDBRANCH   1  10
BRANCH   4  20
ATOM     20  S   UNL     1       3.712   2.990  18.280  0.00  0.00    +0.000 S 
ATOM     21  O   UNL     1       4.199   2.292  19.448  0.00  0.00    +0.000 OA
ATOM     22  O   UNL     1       2.729   2.395  17.393  0.00  0.00    +0.000 OA
BRANCH  20  23
ATOM     23  N   UNL     1       5.062   3.319  17.331  0.00  0.00    +0.000 NA
ATOM     24  H   UNL     1       4.914   2.909  16.409  0.00  0.00    +0.000 HD
BRANCH  23  25
ATOM     25  C   UNL     1       5.623   4.697  17.365  0.00  0.00    +0.000 C 
BRANCH  25  26
ATOM     26  C   UNL     1       6.858   4.750  18.275  0.00  0.00    +0.000 C 
ATOM     27  O   UNL     1       7.969   4.331  17.950  0.00  0.00    +0.000 OA
ATOM     28  N   UNL     1       6.642   5.343  19.502  0.00  0.00    +0.000 N 
ATOM     29  H   UNL     1       5.754   5.199  19.980  0.00  0.00    +0.000 HD
BRANCH  28  30
ATOM     30  O   UNL     1       7.786   5.368  20.343  0.00  0.00    +0.000 OA
ATOM     31  H   UNL     1       8.511   5.114  19.728  0.00  0.00    +0.000 HD
ENDBRANCH  28  30
ENDBRANCH  25  26
BRANCH  25  32
ATOM     32  C   UNL     1       6.028   5.160  15.938  0.00  0.00    +0.000 C 
ATOM     33  C   UNL     1       5.740   4.102  14.864  0.00  0.00    +0.000 C 
ATOM     34  C   UNL     1       5.281   6.445  15.539  0.00  0.00    +0.000 C 
ENDBRANCH  25  32
ENDBRANCH  23  25
ENDBRANCH  20  23
ENDBRANCH   4  20
TORSDOF 9
ENDMDL
