MODEL 1
REMARK VINA RESULT:      -5.1      0.000      0.000
REMARK  Name = 
REMARK  2 active torsions:
REMARK  status: ('A' for Active; 'I' for Inactive)
REMARK    1  A    between atoms: C_1  and  N_2
REMARK    2  A    between atoms: N_8  and  C_9
REMARK                            x       y       z     vdW  Elec       q    Type
REMARK                         _______ _______ _______ _____ _____    ______ ____
ROOT
ATOM      1  C   UNL     1       6.261   4.617  17.314  0.00  0.00    +0.000 C 
ATOM      2  N   UNL     1       4.874   4.541  17.729  0.00  0.00    +0.000 NA
ATOM      3  C   UNL     1       4.204   5.845  17.810  0.00  0.00    +0.000 C 
ATOM      4  C   UNL     1       3.913   6.196  19.299  0.00  0.00    +0.000 C 
ATOM      5  N   UNL     1       2.623   6.875  19.490  0.00  0.00    +0.000 NA
ATOM      6  C   UNL     1       1.899   6.344  20.659  0.00  0.00    +0.000 C 
ATOM      7  C   UNL     1       0.971   5.132  20.340  0.00  0.00    +0.000 C 
ATOM      8  N   UNL     1       1.686   3.856  20.174  0.00  0.00    +0.000 NA
ATOM      9  C   UNL     1       2.249   3.387  21.446  0.00  0.00    +0.000 C 
ATOM     10  C   UNL     1       0.858   2.821  19.532  0.00  0.00    +0.000 C 
ATOM     11  C   UNL     1       1.661   1.589  19.015  0.00  0.00    +0.000 C 
ATOM     12  N   UNL     1       2.382   1.819  17.749  0.00  0.00    +0.000 NA
ATOM     13  C   UNL     1       3.731   2.365  17.977  0.00  0.00    +0.000 C 
ATOM     14  C   UNL     1       4.094   3.526  17.017  0.00  0.00    +0.000 C 
ATOM     15  H   UNL     1       2.039   6.722  18.669  0.00  0.00    +0.000 HD
ATOM     16  H   UNL     1       1.838   2.481  17.198  0.00  0.00    +0.000 HD
ENDROOT
TORSDOF 0
ENDMDL
MODEL 2
REMARK VINA RESULT:      -5.0      1.249      3.694
REMARK  Name = 
REMARK  2 active torsions:
REMARK  status: ('A' for Active; 'I' for Inactive)
REMARK    1  A    between atoms: C_1  and  N_2
REMARK    2  A    between atoms: N_8  and  C_9
REMARK                            x       y       z     vdW  Elec       q    Type
REMARK                         _______ _______ _______ _____ _____    ______ ____
ROOT
ATOM      1  C   UNL     1       4.926   6.499  15.929  0.00  0.00    +0.000 C 
ATOM      2  N   UNL     1       4.505   5.759  17.103  0.00  0.00    +0.000 NA
ATOM      3  C   UNL     1       5.225   4.496  17.301  0.00  0.00    +0.000 C 
ATOM      4  C   UNL     1       4.265   3.297  17.048  0.00  0.00    +0.000 C 
ATOM      5  N   UNL     1       4.491   2.173  17.968  0.00  0.00    +0.000 NA
ATOM      6  C   UNL     1       3.219   1.614  18.464  0.00  0.00    +0.000 C 
ATOM      7  C   UNL     1       2.686   2.293  19.763  0.00  0.00    +0.000 C 
ATOM      8  N   UNL     1       2.052   3.602  19.539  0.00  0.00    +0.000 NA
ATOM      9  C   UNL     1       0.783   3.466  18.813  0.00  0.00    +0.000 C 
ATOM     10  C   UNL     1       1.885   4.372  20.783  0.00  0.00    +0.000 C 
ATOM     11  C   UNL     1       1.555   5.880  20.563  0.00  0.00    +0.000 C 
ATOM     12  N   UNL     1       2.716   6.709  20.189  0.00  0.00    +0.000 NA
ATOM     13  C   UNL     1       2.922   6.735  18.729  0.00  0.00    +0.000 C 
ATOM     14  C   UNL     1       4.408   6.573  18.317  0.00  0.00    +0.000 C 
ATOM     15  H   UNL     1       5.019   2.501  18.774  0.00  0.00    +0.000 HD
ATOM     16  H   UNL     1       3.539   6.313  20.639  0.00  0.00    +0.000 HD
ENDROOT
TORSDOF 0
ENDMDL
MODEL 3
REMARK VINA RESULT:      -4.7      1.253      3.809
REMARK  Name = 
REMARK  2 active torsions:
REMARK  status: ('A' for Active; 'I' for Inactive)
REMARK    1  A    between atoms: C_1  and  N_2
REMARK    2  A    between atoms: N_8  and  C_9
REMARK                            x       y       z     vdW  Elec       q    Type
REMARK                         _______ _______ _______ _____ _____    ______ ____
ROOT
ATOM      1  C   UNL     1       2.861   7.743  17.631  0.00  0.00    +0.000 C 
ATOM      2  N   UNL     1       3.149   6.464  18.252  0.00  0.00    +0.000 NA
ATOM      3  C   UNL     1       4.303   5.767  17.672  0.00  0.00    +0.000 C 
ATOM      4  C   UNL     1       3.822   4.505  16.899  0.00  0.00    +0.000 C 
ATOM      5  N   UNL     1       4.730   3.358  17.043  0.00  0.00    +0.000 NA
ATOM      6  C   UNL     1       3.989   2.104  17.269  0.00  0.00    +0.000 C 
ATOM      7  C   UNL     1       3.703   1.793  18.770  0.00  0.00    +0.000 C 
ATOM      8  N   UNL     1       2.598   2.577  19.345  0.00  0.00    +0.000 NA
ATOM      9  C   UNL     1       1.304   2.180  18.776  0.00  0.00    +0.000 C 
ATOM     10  C   UNL     1       2.579   2.536  20.817  0.00  0.00    +0.000 C 
ATOM     11  C   UNL     1       1.669   3.617  21.476  0.00  0.00    +0.000 C 
ATOM     12  N   UNL     1       2.255   4.971  21.507  0.00  0.00    +0.000 NA
ATOM     13  C   UNL     1       1.947   5.729  20.281  0.00  0.00    +0.000 C 
ATOM     14  C   UNL     1       3.165   6.503  19.717  0.00  0.00    +0.000 C 
ATOM     15  H   UNL     1       5.335   3.510  17.848  0.00  0.00    +0.000 HD
ATOM     16  H   UNL     1       3.264   4.870  21.597  0.00  0.00    +0.000 HD
ENDROOT
TORSDOF 0
ENDMDL
MODEL 4
REMARK VINA RESULT:      -4.6      1.989      3.865
REMARK  Name = 
REMARK  2 active torsions:
REMARK  status: ('A' for Active; 'I' for Inactive)
REMARK    1  A    between atoms: C_1  and  N_2
REMARK    2  A    between atoms: N_8  and  C_9
REMARK                            x       y       z     vdW  Elec       q    Type
REMARK                         _______ _______ _______ _____ _____    ______ ____
ROOT
ATOM      1  C   UNL     1       6.753   5.149  15.428  0.00  0.00    +0.000 C 
ATOM      2  N   UNL     1       5.952   5.310  16.626  0.00  0.00    +0.000 NA
ATOM      3  C   UNL     1       6.405   4.494  17.759  0.00  0.00    +0.000 C 
ATOM      4  C   UNL     1       5.366   3.371  18.046  0.00  0.00    +0.000 C 
ATOM      5  N   UNL     1       5.189   3.101  19.481  0.00  0.00    +0.000 NA
ATOM      6  C   UNL     1       3.766   2.935  19.830  0.00  0.00    +0.000 C 
ATOM      7  C   UNL     1       3.041   4.262  20.207  0.00  0.00    +0.000 C 
ATOM      8  N   UNL     1       2.684   5.101  19.051  0.00  0.00    +0.000 NA
ATOM      9  C   UNL     1       1.625   4.481  18.246  0.00  0.00    +0.000 C 
ATOM     10  C   UNL     1       2.336   6.479  19.435  0.00  0.00    +0.000 C 
ATOM     11  C   UNL     1       2.300   7.486  18.245  0.00  0.00    +0.000 C 
ATOM     12  N   UNL     1       3.629   7.933  17.786  0.00  0.00    +0.000 NA
ATOM     13  C   UNL     1       4.186   7.032  16.761  0.00  0.00    +0.000 C 
ATOM     14  C   UNL     1       5.685   6.707  16.981  0.00  0.00    +0.000 C 
ATOM     15  H   UNL     1       5.549   3.890  20.016  0.00  0.00    +0.000 HD
ATOM     16  H   UNL     1       4.248   7.950  18.594  0.00  0.00    +0.000 HD
ENDROOT
TORSDOF 0
ENDMDL
MODEL 5
REMARK VINA RESULT:      -4.5     10.953     13.071
REMARK  Name = 
REMARK  2 active torsions:
REMARK  status: ('A' for Active; 'I' for Inactive)
REMARK    1  A    between atoms: C_1  and  N_2
REMARK    2  A    between atoms: N_8  and  C_9
REMARK                            x       y       z     vdW  Elec       q    Type
REMARK                         _______ _______ _______ _____ _____    ______ ____
ROOT
ATOM      1  C   UNL     1      10.000  18.244  18.806  0.00  0.00    +0.000 C 
ATOM      2  N   UNL     1       9.860  16.816  18.597  0.00  0.00    +0.000 NA
ATOM      3  C   UNL     1       8.657  16.239  19.211  0.00  0.00    +0.000 C 
ATOM      4  C   UNL     1       9.061  15.328  20.406  0.00  0.00    +0.000 C 
ATOM      5  N   UNL     1       8.229  14.121  20.519  0.00  0.00    +0.000 NA
ATOM      6  C   UNL     1       9.043  12.927  20.810  0.00  0.00    +0.000 C 
ATOM      7  C   UNL     1       9.569  12.187  19.542  0.00  0.00    +0.000 C 
ATOM      8  N   UNL     1      10.719  12.843  18.898  0.00  0.00    +0.000 NA
ATOM      9  C   UNL     1      11.923  12.755  19.732  0.00  0.00    +0.000 C 
ATOM     10  C   UNL     1      10.965  12.346  17.534  0.00  0.00    +0.000 C 
ATOM     11  C   UNL     1      11.925  13.239  16.690  0.00  0.00    +0.000 C 
ATOM     12  N   UNL     1      11.300  14.460  16.148  0.00  0.00    +0.000 NA
ATOM     13  C   UNL     1      11.387  15.587  17.093  0.00  0.00    +0.000 C 
ATOM     14  C   UNL     1      10.068  16.393  17.210  0.00  0.00    +0.000 C 
ATOM     15  H   UNL     1       7.750  13.961  19.635  0.00  0.00    +0.000 HD
ATOM     16  H   UNL     1      10.321  14.251  15.960  0.00  0.00    +0.000 HD
ENDROOT
TORSDOF 0
ENDMDL
MODEL 6
REMARK VINA RESULT:      -4.5      1.192      4.979
REMARK  Name = 
REMARK  2 active torsions:
REMARK  status: ('A' for Active; 'I' for Inactive)
REMARK    1  A    between atoms: C_1  and  N_2
REMARK    2  A    between atoms: N_8  and  C_9
REMARK                            x       y       z     vdW  Elec       q    Type
REMARK                         _______ _______ _______ _____ _____    ______ ____
ROOT
ATOM      1  C   UNL     1       1.597   2.404  21.866  0.00  0.00    +0.000 C 
ATOM      2  N   UNL     1       1.948   3.127  20.658  0.00  0.00    +0.000 NA
ATOM      3  C   UNL     1       2.100   2.272  19.475  0.00  0.00    +0.000 C 
ATOM      4  C   UNL     1       3.598   2.218  19.054  0.00  0.00    +0.000 C 
ATOM      5  N   UNL     1       3.787   2.205  17.596  0.00  0.00    +0.000 NA
ATOM      6  C   UNL     1       4.881   3.103  17.183  0.00  0.00    +0.000 C 
ATOM      7  C   UNL     1       4.433   4.568  16.897  0.00  0.00    +0.000 C 
ATOM      8  N   UNL     1       4.199   5.372  18.109  0.00  0.00    +0.000 NA
ATOM      9  C   UNL     1       5.453   5.649  18.819  0.00  0.00    +0.000 C 
ATOM     10  C   UNL     1       3.446   6.607  17.834  0.00  0.00    +0.000 C 
ATOM     11  C   UNL     1       2.870   7.302  19.105  0.00  0.00    +0.000 C 
ATOM     12  N   UNL     1       1.656   6.665  19.650  0.00  0.00    +0.000 NA
ATOM     13  C   UNL     1       1.981   5.597  20.611  0.00  0.00    +0.000 C 
ATOM     14  C   UNL     1       1.128   4.317  20.418  0.00  0.00    +0.000 C 
ATOM     15  H   UNL     1       2.934   2.530  17.145  0.00  0.00    +0.000 HD
ATOM     16  H   UNL     1       1.135   6.270  18.868  0.00  0.00    +0.000 HD
ENDROOT
TORSDOF 0
ENDMDL
MODEL 7
REMARK VINA RESULT:      -4.5      1.119      1.286
REMARK  Name = 
REMARK  2 active torsions:
REMARK  status: ('A' for Active; 'I' for Inactive)
REMARK    1  A    between atoms: C_1  and  N_2
REMARK    2  A    between atoms: N_8  and  C_9
REMARK                            x       y       z     vdW  Elec       q    Type
REMARK                         _______ _______ _______ _____ _____    ______ ____
ROOT
ATOM      1  C   UNL     1       6.023   6.465  17.431  0.00  0.00    +0.000 C 
ATOM      2  N   UNL     1       4.838   5.695  17.758  0.00  0.00    +0.000 NA
ATOM      3  C   UNL     1       3.639   6.511  17.981  0.00  0.00    +0.000 C 
ATOM      4  C   UNL     1       3.244   6.466  19.485  0.00  0.00    +0.000 C 
ATOM      5  N   UNL     1       1.789   6.434  19.699  0.00  0.00    +0.000 NA
ATOM      6  C   UNL     1       1.416   5.463  20.745  0.00  0.00    +0.000 C 
ATOM      7  C   UNL     1       1.155   4.021  20.214  0.00  0.00    +0.000 C 
ATOM      8  N   UNL     1       2.380   3.262  19.913  0.00  0.00    +0.000 NA
ATOM      9  C   UNL     1       3.119   2.927  21.137  0.00  0.00    +0.000 C 
ATOM     10  C   UNL     1       2.120   2.067  19.093  0.00  0.00    +0.000 C 
ATOM     11  C   UNL     1       3.396   1.437  18.455  0.00  0.00    +0.000 C 
ATOM     12  N   UNL     1       3.904   2.157  17.272  0.00  0.00    +0.000 NA
ATOM     13  C   UNL     1       4.847   3.227  17.645  0.00  0.00    +0.000 C 
ATOM     14  C   UNL     1       4.610   4.550  16.873  0.00  0.00    +0.000 C 
ATOM     15  H   UNL     1       1.330   6.149  18.835  0.00  0.00    +0.000 HD
ATOM     16  H   UNL     1       3.105   2.564  16.789  0.00  0.00    +0.000 HD
ENDROOT
TORSDOF 0
ENDMDL
MODEL 8
REMARK VINA RESULT:      -4.4      1.597      4.043
REMARK  Name = 
REMARK  2 active torsions:
REMARK  status: ('A' for Active; 'I' for Inactive)
REMARK    1  A    between atoms: C_1  and  N_2
REMARK    2  A    between atoms: N_8  and  C_9
REMARK                            x       y       z     vdW  Elec       q    Type
REMARK                         _______ _______ _______ _____ _____    ______ ____
ROOT
ATOM      1  C   UNL     1       1.852   8.588  17.978  0.00  0.00    +0.000 C 
ATOM      2  N   UNL     1       2.584   7.409  18.400  0.00  0.00    +0.000 NA
ATOM      3  C   UNL     1       3.949   7.333  17.866  0.00  0.00    +0.000 C 
ATOM      4  C   UNL     1       4.044   6.176  16.828  0.00  0.00    +0.000 C 
ATOM      5  N   UNL     1       5.320   5.449  16.890  0.00  0.00    +0.000 NA
ATOM      6  C   UNL     1       5.118   3.991  16.795  0.00  0.00    +0.000 C 
ATOM      7  C   UNL     1       4.895   3.286  18.167  0.00  0.00    +0.000 C 
ATOM      8  N   UNL     1       3.542   3.461  18.719  0.00  0.00    +0.000 NA
ATOM      9  C   UNL     1       2.541   2.740  17.923  0.00  0.00    +0.000 C 
ATOM     10  C   UNL     1       3.460   3.106  20.145  0.00  0.00    +0.000 C 
ATOM     11  C   UNL     1       2.164   3.604  20.856  0.00  0.00    +0.000 C 
ATOM     12  N   UNL     1       2.170   5.038  21.198  0.00  0.00    +0.000 NA
ATOM     13  C   UNL     1       1.657   5.868  20.093  0.00  0.00    +0.000 C 
ATOM     14  C   UNL     1       2.503   7.141  19.838  0.00  0.00    +0.000 C 
ATOM     15  H   UNL     1       5.772   5.641  17.782  0.00  0.00    +0.000 HD
ATOM     16  H   UNL     1       3.131   5.305  21.403  0.00  0.00    +0.000 HD
ENDROOT
TORSDOF 0
ENDMDL
MODEL 9
REMARK VINA RESULT:      -4.4      9.208     11.550
REMARK  Name = 
REMARK  2 active torsions:
REMARK  status: ('A' for Active; 'I' for Inactive)
REMARK    1  A    between atoms: C_1  and  N_2
REMARK    2  A    between atoms: N_8  and  C_9
REMARK                            x       y       z     vdW  Elec       q    Type
REMARK                         _______ _______ _______ _____ _____    ______ ____
ROOT
ATOM      1  C   UNL     1       8.631   9.665  18.315  0.00  0.00    +0.000 C 
ATOM      2  N   UNL     1       9.161  10.902  18.855  0.00  0.00    +0.000 NA
ATOM      3  C   UNL     1       9.733  10.767  20.200  0.00  0.00    +0.000 C 
ATOM      4  C   UNL     1       8.832  11.507  21.232  0.00  0.00    +0.000 C 
ATOM      5  N   UNL     1       9.599  12.186  22.286  0.00  0.00    +0.000 NA
ATOM      6  C   UNL     1       9.064  13.532  22.565  0.00  0.00    +0.000 C 
ATOM      7  C   UNL     1       9.681  14.660  21.684  0.00  0.00    +0.000 C 
ATOM      8  N   UNL     1       9.151  14.708  20.311  0.00  0.00    +0.000 NA
ATOM      9  C   UNL     1       7.749  15.142  20.293  0.00  0.00    +0.000 C 
ATOM     10  C   UNL     1       9.983  15.522  19.410  0.00  0.00    +0.000 C 
ATOM     11  C   UNL     1       9.674  15.318  17.895  0.00  0.00    +0.000 C 
ATOM     12  N   UNL     1      10.236  14.081  17.320  0.00  0.00    +0.000 NA
ATOM     13  C   UNL     1       9.315  12.940  17.469  0.00  0.00    +0.000 C 
ATOM     14  C   UNL     1      10.020  11.638  17.925  0.00  0.00    +0.000 C 
ATOM     15  H   UNL     1      10.565  12.295  21.980  0.00  0.00    +0.000 HD
ATOM     16  H   UNL     1      11.107  13.879  17.809  0.00  0.00    +0.000 HD
ENDROOT
TORSDOF 0
ENDMDL
