MODEL 1
REMARK VINA RESULT:      -6.6      0.000      0.000
REMARK  Name = 
REMARK  4 active torsions:
REMARK  status: ('A' for Active; 'I' for Inactive)
REMARK    1  A    between atoms: C_2  and  C_17
REMARK    2  A    between atoms: N_3  and  C_4
REMARK    3  A    between atoms: C_8  and  N_9
REMARK    4  A    between atoms: C_10  and  C_12
REMARK                            x       y       z     vdW  Elec       q    Type
REMARK                         _______ _______ _______ _____ _____    ______ ____
ROOT
ATOM      1  C   UNL     1       2.579   3.092  19.081  0.00  0.00    +0.000 C 
ATOM      2  C   UNL     1       1.201   2.571  18.682  0.00  0.00    +0.000 C 
ATOM      3  O   UNL     1       0.390   2.523  19.859  0.00  0.00    +0.000 OA
ATOM      4  C   UNL     1       1.127   3.128  20.939  0.00  0.00    +0.000 C 
ATOM      5  C   UNL     1       2.259   3.943  20.312  0.00  0.00    +0.000 C 
ENDROOT
BRANCH   1   8
ATOM      6  O   UNL     1       5.342   3.301  18.797  0.00  0.00    +0.000 OA
ATOM      7  C   UNL     1       4.641   3.781  17.912  0.00  0.00    +0.000 C 
ATOM      8  N   UNL     1       3.263   3.796  18.002  0.00  0.00    +0.000 N 
ATOM      9  H   UNL     1       2.726   4.041  17.183  0.00  0.00    +0.000 HD
BRANCH   7  10
ATOM     10  C   UNL     1       5.217   4.367  16.696  0.00  0.00    +0.000 A 
ATOM     11  C   UNL     1       4.987   5.728  16.284  0.00  0.00    +0.000 A 
ATOM     12  C   UNL     1       5.633   6.060  15.115  0.00  0.00    +0.000 A 
ATOM     13  S   UNL     1       6.524   4.749  14.488  0.00  0.00    +0.000 S 
ATOM     14  C   UNL     1       6.041   3.734  15.781  0.00  0.00    +0.000 A 
ENDBRANCH   7  10
ENDBRANCH   1   8
BRANCH   5  15
ATOM     15  N   UNL     1       1.837   5.299  19.954  0.00  0.00    +0.000 N 
ATOM     16  C   UNL     1       2.780   6.270  19.691  0.00  0.00    +0.000 C 
ATOM     17  O   UNL     1       3.985   6.073  19.810  0.00  0.00    +0.000 OA
ATOM     18  H   UNL     1       0.935   5.399  19.508  0.00  0.00    +0.000 HD
BRANCH  16  19
ATOM     19  C   UNL     1       2.237   7.550  19.235  0.00  0.00    +0.000 A 
ATOM     20  C   UNL     1       2.301   8.122  17.918  0.00  0.00    +0.000 A 
ATOM     21  C   UNL     1       1.653   9.334  17.830  0.00  0.00    +0.000 A 
ATOM     22  S   UNL     1       0.969   9.804  19.323  0.00  0.00    +0.000 S 
ATOM     23  C   UNL     1       1.519   8.378  20.083  0.00  0.00    +0.000 A 
ENDBRANCH  16  19
ENDBRANCH   5  15
TORSDOF 4
ENDMDL
MODEL 2
REMARK VINA RESULT:      -6.3      3.159      5.030
REMARK  Name = 
REMARK  4 active torsions:
REMARK  status: ('A' for Active; 'I' for Inactive)
REMARK    1  A    between atoms: C_2  and  C_17
REMARK    2  A    between atoms: N_3  and  C_4
REMARK    3  A    between atoms: C_8  and  N_9
REMARK    4  A    between atoms: C_10  and  C_12
REMARK                            x       y       z     vdW  Elec       q    Type
REMARK                         _______ _______ _______ _____ _____    ______ ____
ROOT
ATOM      1  C   UNL     1       6.943   5.327  16.687  0.00  0.00    +0.000 C 
ATOM      2  C   UNL     1       7.911   4.417  17.439  0.00  0.00    +0.000 C 
ATOM      3  O   UNL     1       7.946   4.842  18.804  0.00  0.00    +0.000 OA
ATOM      4  C   UNL     1       6.942   5.861  18.985  0.00  0.00    +0.000 C 
ATOM      5  C   UNL     1       5.984   5.766  17.796  0.00  0.00    +0.000 C 
ENDROOT
BRANCH   1   8
ATOM      6  O   UNL     1       7.815   5.517  14.049  0.00  0.00    +0.000 OA
ATOM      7  C   UNL     1       6.865   4.777  14.282  0.00  0.00    +0.000 C 
ATOM      8  N   UNL     1       6.312   4.677  15.544  0.00  0.00    +0.000 N 
ATOM      9  H   UNL     1       5.652   3.936  15.727  0.00  0.00    +0.000 HD
BRANCH   7  10
ATOM     10  C   UNL     1       6.254   3.945  13.240  0.00  0.00    +0.000 A 
ATOM     11  C   UNL     1       4.857   4.002  12.893  0.00  0.00    +0.000 A 
ATOM     12  C   UNL     1       4.510   3.134  11.882  0.00  0.00    +0.000 A 
ATOM     13  S   UNL     1       5.848   2.233  11.333  0.00  0.00    +0.000 S 
ATOM     14  C   UNL     1       6.893   3.002  12.452  0.00  0.00    +0.000 A 
ENDBRANCH   7  10
ENDBRANCH   1   8
BRANCH   5  15
ATOM     15  N   UNL     1       4.913   4.791  18.021  0.00  0.00    +0.000 N 
ATOM     16  C   UNL     1       3.750   5.175  18.652  0.00  0.00    +0.000 C 
ATOM     17  O   UNL     1       3.585   6.302  19.110  0.00  0.00    +0.000 OA
ATOM     18  H   UNL     1       4.853   4.015  17.376  0.00  0.00    +0.000 HD
BRANCH  16  19
ATOM     19  C   UNL     1       2.713   4.145  18.717  0.00  0.00    +0.000 A 
ATOM     20  C   UNL     1       2.646   2.909  17.986  0.00  0.00    +0.000 A 
ATOM     21  C   UNL     1       1.542   2.153  18.317  0.00  0.00    +0.000 A 
ATOM     22  S   UNL     1       0.573   2.918  19.498  0.00  0.00    +0.000 S 
ATOM     23  C   UNL     1       1.638   4.249  19.585  0.00  0.00    +0.000 A 
ENDBRANCH  16  19
ENDBRANCH   5  15
TORSDOF 4
ENDMDL
MODEL 3
REMARK VINA RESULT:      -6.3      2.154      2.487
REMARK  Name = 
REMARK  4 active torsions:
REMARK  status: ('A' for Active; 'I' for Inactive)
REMARK    1  A    between atoms: C_2  and  C_17
REMARK    2  A    between atoms: N_3  and  C_4
REMARK    3  A    between atoms: C_8  and  N_9
REMARK    4  A    between atoms: C_10  and  C_12
REMARK                            x       y       z     vdW  Elec       q    Type
REMARK                         _______ _______ _______ _____ _____    ______ ____
ROOT
ATOM      1  C   UNL     1       4.130   2.640  19.079  0.00  0.00    +0.000 C 
ATOM      2  C   UNL     1       3.645   2.103  17.735  0.00  0.00    +0.000 C 
ATOM      3  O   UNL     1       2.278   1.709  17.885  0.00  0.00    +0.000 OA
ATOM      4  C   UNL     1       1.834   2.112  19.196  0.00  0.00    +0.000 C 
ATOM      5  C   UNL     1       2.833   3.149  19.712  0.00  0.00    +0.000 C 
ENDROOT
BRANCH   1   8
ATOM      6  O   UNL     1       4.390   4.456  16.983  0.00  0.00    +0.000 OA
ATOM      7  C   UNL     1       5.191   4.537  17.908  0.00  0.00    +0.000 C 
ATOM      8  N   UNL     1       5.191   3.633  18.953  0.00  0.00    +0.000 N 
ATOM      9  H   UNL     1       5.746   3.837  19.771  0.00  0.00    +0.000 HD
BRANCH   7  10
ATOM     10  C   UNL     1       6.199   5.601  17.974  0.00  0.00    +0.000 A 
ATOM     11  C   UNL     1       7.312   5.587  18.888  0.00  0.00    +0.000 A 
ATOM     12  C   UNL     1       8.132   6.686  18.765  0.00  0.00    +0.000 A 
ATOM     13  S   UNL     1       7.582   7.756  17.558  0.00  0.00    +0.000 S 
ATOM     14  C   UNL     1       6.243   6.749  17.200  0.00  0.00    +0.000 A 
ENDBRANCH   7  10
ENDBRANCH   1   8
BRANCH   5  15
ATOM     15  N   UNL     1       2.500   4.508  19.275  0.00  0.00    +0.000 N 
ATOM     16  C   UNL     1       2.304   5.504  20.207  0.00  0.00    +0.000 C 
ATOM     17  O   UNL     1       2.326   5.295  21.416  0.00  0.00    +0.000 OA
ATOM     18  H   UNL     1       2.820   4.790  18.359  0.00  0.00    +0.000 HD
BRANCH  16  19
ATOM     19  C   UNL     1       2.089   6.839  19.647  0.00  0.00    +0.000 A 
ATOM     20  C   UNL     1       1.541   7.996  20.300  0.00  0.00    +0.000 A 
ATOM     21  C   UNL     1       1.511   9.106  19.484  0.00  0.00    +0.000 A 
ATOM     22  S   UNL     1       2.129   8.772  17.927  0.00  0.00    +0.000 S 
ATOM     23  C   UNL     1       2.459   7.150  18.349  0.00  0.00    +0.000 A 
ENDBRANCH  16  19
ENDBRANCH   5  15
TORSDOF 4
ENDMDL
MODEL 4
REMARK VINA RESULT:      -6.2      1.079      1.158
REMARK  Name = 
REMARK  4 active torsions:
REMARK  status: ('A' for Active; 'I' for Inactive)
REMARK    1  A    between atoms: C_2  and  C_17
REMARK    2  A    between atoms: N_3  and  C_4
REMARK    3  A    between atoms: C_8  and  N_9
REMARK    4  A    between atoms: C_10  and  C_12
REMARK                            x       y       z     vdW  Elec       q    Type
REMARK                         _______ _______ _______ _____ _____    ______ ____
ROOT
ATOM      1  C   UNL     1       2.836   3.460  19.071  0.00  0.00    +0.000 C 
ATOM      2  C   UNL     1       1.444   2.970  18.683  0.00  0.00    +0.000 C 
ATOM      3  O   UNL     1       0.567   3.213  19.786  0.00  0.00    +0.000 OA
ATOM      4  C   UNL     1       1.291   3.965  20.780  0.00  0.00    +0.000 C 
ATOM      5  C   UNL     1       2.521   4.557  20.090  0.00  0.00    +0.000 C 
ENDROOT
BRANCH   1   8
ATOM      6  O   UNL     1       5.593   3.860  19.100  0.00  0.00    +0.000 OA
ATOM      7  C   UNL     1       5.011   3.987  18.028  0.00  0.00    +0.000 C 
ATOM      8  N   UNL     1       3.636   3.886  17.929  0.00  0.00    +0.000 N 
ATOM      9  H   UNL     1       3.219   3.825  17.011  0.00  0.00    +0.000 HD
BRANCH   7  10
ATOM     10  C   UNL     1       5.731   4.251  16.778  0.00  0.00    +0.000 A 
ATOM     11  C   UNL     1       7.060   4.804  16.726  0.00  0.00    +0.000 A 
ATOM     12  C   UNL     1       7.538   4.958  15.445  0.00  0.00    +0.000 A 
ATOM     13  S   UNL     1       6.404   4.448  14.280  0.00  0.00    +0.000 S 
ATOM     14  C   UNL     1       5.270   4.023  15.492  0.00  0.00    +0.000 A 
ENDBRANCH   7  10
ENDBRANCH   1   8
BRANCH   5  15
ATOM     15  N   UNL     1       2.235   5.843  19.449  0.00  0.00    +0.000 N 
ATOM     16  C   UNL     1       1.872   6.931  20.213  0.00  0.00    +0.000 C 
ATOM     17  O   UNL     1       1.704   6.862  21.427  0.00  0.00    +0.000 OA
ATOM     18  H   UNL     1       2.692   6.031  18.567  0.00  0.00    +0.000 HD
BRANCH  16  19
ATOM     19  C   UNL     1       1.722   8.184  19.472  0.00  0.00    +0.000 A 
ATOM     20  C   UNL     1       2.203   8.496  18.154  0.00  0.00    +0.000 A 
ATOM     21  C   UNL     1       1.855   9.765  17.746  0.00  0.00    +0.000 A 
ATOM     22  S   UNL     1       0.958  10.597  18.938  0.00  0.00    +0.000 S 
ATOM     23  C   UNL     1       1.015   9.255  19.991  0.00  0.00    +0.000 A 
ENDBRANCH  16  19
ENDBRANCH   5  15
TORSDOF 4
ENDMDL
MODEL 5
REMARK VINA RESULT:      -6.1      3.252      5.088
REMARK  Name = 
REMARK  4 active torsions:
REMARK  status: ('A' for Active; 'I' for Inactive)
REMARK    1  A    between atoms: C_2  and  C_17
REMARK    2  A    between atoms: N_3  and  C_4
REMARK    3  A    between atoms: C_8  and  N_9
REMARK    4  A    between atoms: C_10  and  C_12
REMARK                            x       y       z     vdW  Elec       q    Type
REMARK                         _______ _______ _______ _____ _____    ______ ____
ROOT
ATOM      1  C   UNL     1       6.969   5.372  16.712  0.00  0.00    +0.000 C 
ATOM      2  C   UNL     1       7.921   4.420  17.432  0.00  0.00    +0.000 C 
ATOM      3  O   UNL     1       7.987   4.816  18.805  0.00  0.00    +0.000 OA
ATOM      4  C   UNL     1       7.016   5.859  19.020  0.00  0.00    +0.000 C 
ATOM      5  C   UNL     1       6.039   5.816  17.843  0.00  0.00    +0.000 C 
ENDROOT
BRANCH   1   8
ATOM      6  O   UNL     1       7.868   5.502  14.079  0.00  0.00    +0.000 OA
ATOM      7  C   UNL     1       6.871   4.826  14.307  0.00  0.00    +0.000 C 
ATOM      8  N   UNL     1       6.305   4.763  15.565  0.00  0.00    +0.000 N 
ATOM      9  H   UNL     1       5.597   4.067  15.745  0.00  0.00    +0.000 HD
BRANCH   7  10
ATOM     10  C   UNL     1       6.213   4.034  13.262  0.00  0.00    +0.000 A 
ATOM     11  C   UNL     1       6.908   3.096  12.418  0.00  0.00    +0.000 A 
ATOM     12  C   UNL     1       6.086   2.463  11.513  0.00  0.00    +0.000 A 
ATOM     13  S   UNL     1       4.468   2.982  11.655  0.00  0.00    +0.000 S 
ATOM     14  C   UNL     1       4.869   4.059  12.927  0.00  0.00    +0.000 A 
ENDBRANCH   7  10
ENDBRANCH   1   8
BRANCH   5  15
ATOM     15  N   UNL     1       4.944   4.868  18.064  0.00  0.00    +0.000 N 
ATOM     16  C   UNL     1       3.882   5.214  18.872  0.00  0.00    +0.000 C 
ATOM     17  O   UNL     1       3.836   6.274  19.488  0.00  0.00    +0.000 OA
ATOM     18  H   UNL     1       4.767   4.189  17.336  0.00  0.00    +0.000 HD
BRANCH  16  19
ATOM     19  C   UNL     1       2.800   4.230  18.924  0.00  0.00    +0.000 A 
ATOM     20  C   UNL     1       1.688   4.088  18.024  0.00  0.00    +0.000 A 
ATOM     21  C   UNL     1       0.869   3.029  18.351  0.00  0.00    +0.000 A 
ATOM     22  S   UNL     1       1.418   2.200  19.740  0.00  0.00    +0.000 S 
ATOM     23  C   UNL     1       2.762   3.242  19.894  0.00  0.00    +0.000 A 
ENDBRANCH  16  19
ENDBRANCH   5  15
TORSDOF 4
ENDMDL
MODEL 6
REMARK VINA RESULT:      -6.0      3.853      4.972
REMARK  Name = 
REMARK  4 active torsions:
REMARK  status: ('A' for Active; 'I' for Inactive)
REMARK    1  A    between atoms: C_2  and  C_17
REMARK    2  A    between atoms: N_3  and  C_4
REMARK    3  A    between atoms: C_8  and  N_9
REMARK    4  A    between atoms: C_10  and  C_12
REMARK                            x       y       z     vdW  Elec       q    Type
REMARK                         _______ _______ _______ _____ _____    ______ ____
ROOT
ATOM      1  C   UNL     1       6.599   6.085  16.759  0.00  0.00    +0.000 C 
ATOM      2  C   UNL     1       6.194   5.907  15.298  0.00  0.00    +0.000 C 
ATOM      3  O   UNL     1       5.245   4.838  15.230  0.00  0.00    +0.000 OA
ATOM      4  C   UNL     1       4.916   4.442  16.577  0.00  0.00    +0.000 C 
ATOM      5  C   UNL     1       5.362   5.575  17.502  0.00  0.00    +0.000 C 
ENDROOT
BRANCH   1   8
ATOM      6  O   UNL     1       8.248   6.815  18.882  0.00  0.00    +0.000 OA
ATOM      7  C   UNL     1       7.879   7.700  18.117  0.00  0.00    +0.000 C 
ATOM      8  N   UNL     1       6.999   7.450  17.083  0.00  0.00    +0.000 N 
ATOM      9  H   UNL     1       6.859   8.162  16.381  0.00  0.00    +0.000 HD
BRANCH   7  10
ATOM     10  C   UNL     1       8.350   9.084  18.244  0.00  0.00    +0.000 A 
ATOM     11  C   UNL     1       9.284   9.517  19.252  0.00  0.00    +0.000 A 
ATOM     12  C   UNL     1       9.586  10.858  19.175  0.00  0.00    +0.000 A 
ATOM     13  S   UNL     1       8.756  11.623  17.898  0.00  0.00    +0.000 S 
ATOM     14  C   UNL     1       7.988  10.158  17.449  0.00  0.00    +0.000 A 
ENDBRANCH   7  10
ENDBRANCH   1   8
BRANCH   5  15
ATOM     15  N   UNL     1       4.337   6.612  17.648  0.00  0.00    +0.000 N 
ATOM     16  C   UNL     1       3.368   6.495  18.622  0.00  0.00    +0.000 C 
ATOM     17  O   UNL     1       3.275   5.510  19.348  0.00  0.00    +0.000 OA
ATOM     18  H   UNL     1       4.580   7.546  17.349  0.00  0.00    +0.000 HD
BRANCH  16  19
ATOM     19  C   UNL     1       2.471   7.644  18.741  0.00  0.00    +0.000 A 
ATOM     20  C   UNL     1       2.018   8.527  17.701  0.00  0.00    +0.000 A 
ATOM     21  C   UNL     1       1.147   9.490  18.160  0.00  0.00    +0.000 A 
ATOM     22  S   UNL     1       0.870   9.354  19.840  0.00  0.00    +0.000 S 
ATOM     23  C   UNL     1       1.895   7.993  19.951  0.00  0.00    +0.000 A 
ENDBRANCH  16  19
ENDBRANCH   5  15
TORSDOF 4
ENDMDL
MODEL 7
REMARK VINA RESULT:      -5.8      2.005      4.932
REMARK  Name = 
REMARK  4 active torsions:
REMARK  status: ('A' for Active; 'I' for Inactive)
REMARK    1  A    between atoms: C_2  and  C_17
REMARK    2  A    between atoms: N_3  and  C_4
REMARK    3  A    between atoms: C_8  and  N_9
REMARK    4  A    between atoms: C_10  and  C_12
REMARK                            x       y       z     vdW  Elec       q    Type
REMARK                         _______ _______ _______ _____ _____    ______ ____
ROOT
ATOM      1  C   UNL     1       2.101   3.609  18.215  0.00  0.00    +0.000 C 
ATOM      2  C   UNL     1       2.215   2.972  19.597  0.00  0.00    +0.000 C 
ATOM      3  O   UNL     1       3.131   1.877  19.505  0.00  0.00    +0.000 OA
ATOM      4  C   UNL     1       3.715   1.889  18.187  0.00  0.00    +0.000 C 
ATOM      5  C   UNL     1       3.458   3.274  17.592  0.00  0.00    +0.000 C 
ENDROOT
BRANCH   1   8
ATOM      6  O   UNL     1       3.089   5.427  20.081  0.00  0.00    +0.000 OA
ATOM      7  C   UNL     1       2.373   5.863  19.186  0.00  0.00    +0.000 C 
ATOM      8  N   UNL     1       1.773   5.029  18.261  0.00  0.00    +0.000 N 
ATOM      9  H   UNL     1       1.338   5.440  17.448  0.00  0.00    +0.000 HD
BRANCH   7  10
ATOM     10  C   UNL     1       2.107   7.297  19.031  0.00  0.00    +0.000 A 
ATOM     11  C   UNL     1       2.408   8.038  17.833  0.00  0.00    +0.000 A 
ATOM     12  C   UNL     1       2.066   9.369  17.914  0.00  0.00    +0.000 A 
ATOM     13  S   UNL     1       1.382   9.757  19.427  0.00  0.00    +0.000 S 
ATOM     14  C   UNL     1       1.547   8.142  19.975  0.00  0.00    +0.000 A 
ENDBRANCH   7  10
ENDBRANCH   1   8
BRANCH   5  15
ATOM     15  N   UNL     1       4.493   4.241  17.966  0.00  0.00    +0.000 N 
ATOM     16  C   UNL     1       5.523   4.524  17.094  0.00  0.00    +0.000 C 
ATOM     17  O   UNL     1       5.662   3.943  16.022  0.00  0.00    +0.000 OA
ATOM     18  H   UNL     1       4.233   4.965  18.622  0.00  0.00    +0.000 HD
BRANCH  16  19
ATOM     19  C   UNL     1       6.429   5.585  17.532  0.00  0.00    +0.000 A 
ATOM     20  C   UNL     1       7.435   5.525  18.558  0.00  0.00    +0.000 A 
ATOM     21  C   UNL     1       8.134   6.705  18.689  0.00  0.00    +0.000 A 
ATOM     22  S   UNL     1       7.590   7.897  17.594  0.00  0.00    +0.000 S 
ATOM     23  C   UNL     1       6.434   6.832  16.928  0.00  0.00    +0.000 A 
ENDBRANCH  16  19
ENDBRANCH   5  15
TORSDOF 4
ENDMDL
MODEL 8
REMARK VINA RESULT:      -5.8      3.720      4.881
REMARK  Name = 
REMARK  4 active torsions:
REMARK  status: ('A' for Active; 'I' for Inactive)
REMARK    1  A    between atoms: C_2  and  C_17
REMARK    2  A    between atoms: N_3  and  C_4
REMARK    3  A    between atoms: C_8  and  N_9
REMARK    4  A    between atoms: C_10  and  C_12
REMARK                            x       y       z     vdW  Elec       q    Type
REMARK                         _______ _______ _______ _____ _____    ______ ____
ROOT
ATOM      1  C   UNL     1       6.609   5.834  16.770  0.00  0.00    +0.000 C 
ATOM      2  C   UNL     1       6.184   5.660  15.315  0.00  0.00    +0.000 C 
ATOM      3  O   UNL     1       5.247   4.581  15.254  0.00  0.00    +0.000 OA
ATOM      4  C   UNL     1       4.943   4.172  16.603  0.00  0.00    +0.000 C 
ATOM      5  C   UNL     1       5.390   5.304  17.529  0.00  0.00    +0.000 C 
ENDROOT
BRANCH   1   8
ATOM      6  O   UNL     1       8.195   6.579  18.936  0.00  0.00    +0.000 OA
ATOM      7  C   UNL     1       7.848   7.459  18.155  0.00  0.00    +0.000 C 
ATOM      8  N   UNL     1       6.998   7.201  17.097  0.00  0.00    +0.000 N 
ATOM      9  H   UNL     1       6.878   7.908  16.387  0.00  0.00    +0.000 HD
BRANCH   7  10
ATOM     10  C   UNL     1       8.313   8.844  18.288  0.00  0.00    +0.000 A 
ATOM     11  C   UNL     1       7.907   9.908  17.406  0.00  0.00    +0.000 A 
ATOM     12  C   UNL     1       8.465  11.125  17.726  0.00  0.00    +0.000 A 
ATOM     13  S   UNL     1       9.489  11.015  19.084  0.00  0.00    +0.000 S 
ATOM     14  C   UNL     1       9.187   9.336  19.243  0.00  0.00    +0.000 A 
ENDBRANCH   7  10
ENDBRANCH   1   8
BRANCH   5  15
ATOM     15  N   UNL     1       4.355   6.328  17.697  0.00  0.00    +0.000 N 
ATOM     16  C   UNL     1       3.510   6.284  18.786  0.00  0.00    +0.000 C 
ATOM     17  O   UNL     1       3.533   5.373  19.607  0.00  0.00    +0.000 OA
ATOM     18  H   UNL     1       4.531   7.234  17.286  0.00  0.00    +0.000 HD
BRANCH  16  19
ATOM     19  C   UNL     1       2.595   7.420  18.902  0.00  0.00    +0.000 A 
ATOM     20  C   UNL     1       1.874   7.861  20.065  0.00  0.00    +0.000 A 
ATOM     21  C   UNL     1       1.123   8.992  19.830  0.00  0.00    +0.000 A 
ATOM     22  S   UNL     1       1.266   9.531  18.216  0.00  0.00    +0.000 S 
ATOM     23  C   UNL     1       2.349   8.268  17.835  0.00  0.00    +0.000 A 
ENDBRANCH  16  19
ENDBRANCH   5  15
TORSDOF 4
ENDMDL
MODEL 9
REMARK VINA RESULT:      -5.7      2.699      4.837
REMARK  Name = 
REMARK  4 active torsions:
REMARK  status: ('A' for Active; 'I' for Inactive)
REMARK    1  A    between atoms: C_2  and  C_17
REMARK    2  A    between atoms: N_3  and  C_4
REMARK    3  A    between atoms: C_8  and  N_9
REMARK    4  A    between atoms: C_10  and  C_12
REMARK                            x       y       z     vdW  Elec       q    Type
REMARK                         _______ _______ _______ _____ _____    ______ ____
ROOT
ATOM      1  C   UNL     1       5.906   5.132  18.345  0.00  0.00    +0.000 C 
ATOM      2  C   UNL     1       6.998   5.759  19.207  0.00  0.00    +0.000 C 
ATOM      3  O   UNL     1       7.755   6.649  18.382  0.00  0.00    +0.000 OA
ATOM      4  C   UNL     1       7.106   6.734  17.097  0.00  0.00    +0.000 C 
ATOM      5  C   UNL     1       5.683   6.202  17.274  0.00  0.00    +0.000 C 
ENDROOT
BRANCH   1   8
ATOM      6  O   UNL     1       4.362   2.858  17.891  0.00  0.00    +0.000 OA
ATOM      7  C   UNL     1       4.062   3.568  18.844  0.00  0.00    +0.000 C 
ATOM      8  N   UNL     1       4.718   4.756  19.103  0.00  0.00    +0.000 N 
ATOM      9  H   UNL     1       4.557   5.217  19.986  0.00  0.00    +0.000 HD
BRANCH   7  10
ATOM     10  C   UNL     1       2.990   3.205  19.778  0.00  0.00    +0.000 A 
ATOM     11  C   UNL     1       1.589   3.350  19.476  0.00  0.00    +0.000 A 
ATOM     12  C   UNL     1       0.765   2.939  20.499  0.00  0.00    +0.000 A 
ATOM     13  S   UNL     1       1.653   2.376  21.841  0.00  0.00    +0.000 S 
ATOM     14  C   UNL     1       3.142   2.686  21.052  0.00  0.00    +0.000 A 
ENDBRANCH   7  10
ENDBRANCH   1   8
BRANCH   5  15
ATOM     15  N   UNL     1       4.752   7.243  17.718  0.00  0.00    +0.000 N 
ATOM     16  C   UNL     1       3.395   6.999  17.725  0.00  0.00    +0.000 C 
ATOM     17  O   UNL     1       2.907   5.954  17.304  0.00  0.00    +0.000 OA
ATOM     18  H   UNL     1       5.101   7.924  18.377  0.00  0.00    +0.000 HD
BRANCH  16  19
ATOM     19  C   UNL     1       2.578   8.071  18.293  0.00  0.00    +0.000 A 
ATOM     20  C   UNL     1       2.198   9.315  17.681  0.00  0.00    +0.000 A 
ATOM     21  C   UNL     1       1.391  10.084  18.492  0.00  0.00    +0.000 A 
ATOM     22  S   UNL     1       1.087   9.330  19.993  0.00  0.00    +0.000 S 
ATOM     23  C   UNL     1       2.015   7.965  19.554  0.00  0.00    +0.000 A 
ENDBRANCH  16  19
ENDBRANCH   5  15
TORSDOF 4
ENDMDL
