MODEL 1
REMARK VINA RESULT:      -8.0      0.000      0.000
REMARK  Name = 
REMARK  8 active torsions:
REMARK  status: ('A' for Active; 'I' for Inactive)
REMARK    1  A    between atoms: C_1  and  O_2
REMARK    2  A    between atoms: O_2  and  C_3
REMARK    3  A    between atoms: C_12  and  N_13
REMARK    4  A    between atoms: N_15  and  C_16
REMARK    5  A    between atoms: C_16  and  C_17
REMARK    6  A    between atoms: C_22  and  C_23
REMARK    7  A    between atoms: C_29  and  O_30
REMARK    8  A    between atoms: O_30  and  C_31
REMARK                            x       y       z     vdW  Elec       q    Type
REMARK                         _______ _______ _______ _____ _____    ______ ____
ROOT
ATOM      1  C   UNL     1       0.201   8.855  21.228  0.00  0.00    +0.000 A 
ATOM      2  C   UNL     1       0.721   7.545  21.064  0.00  0.00    +0.000 A 
ATOM      3  C   UNL     1       1.587   7.223  20.016  0.00  0.00    +0.000 A 
ATOM      4  N   UNL     1       2.036   5.900  19.813  0.00  0.00    +0.000 NA
ATOM      5  C   UNL     1       2.811   5.618  18.798  0.00  0.00    +0.000 A 
ATOM      6  N   UNL     1       3.172   4.293  18.585  0.00  0.00    +0.000 N 
ATOM      7  C   UNL     1       2.654   3.528  17.455  0.00  0.00    +0.000 C 
ATOM      8  C   UNL     1       2.382   2.070  17.834  0.00  0.00    +0.000 C 
ATOM      9  C   UNL     1       3.493   1.406  18.649  0.00  0.00    +0.000 C 
ATOM     10  C   UNL     1       4.029   2.312  19.770  0.00  0.00    +0.000 C 
ATOM     11  C   UNL     1       4.368   3.713  19.211  0.00  0.00    +0.000 C 
ATOM     12  N   UNL     1       3.255   6.616  17.927  0.00  0.00    +0.000 N 
ATOM     13  C   UNL     1       2.898   7.950  18.094  0.00  0.00    +0.000 A 
ATOM     14  O   UNL     1       3.295   8.868  17.376  0.00  0.00    +0.000 OA
ATOM     15  C   UNL     1       1.972   8.256  19.176  0.00  0.00    +0.000 A 
ATOM     16  C   UNL     1       1.498   9.567  19.332  0.00  0.00    +0.000 A 
ATOM     17  C   UNL     1       0.594   9.873  20.343  0.00  0.00    +0.000 A 
ENDROOT
BRANCH  10  18
ATOM     18  N   UNL     1       5.184   1.668  20.417  0.00  0.00    +0.000 NA
ATOM     19  H   UNL     1       5.050   0.658  20.465  0.00  0.00    +0.000 HD
ATOM     20  H   UNL     1       5.232   1.976  21.389  0.00  0.00    +0.000 HD
ENDBRANCH  10  18
BRANCH   1  22
ATOM     21  C   UNL     1      -0.079   9.537  23.492  0.00  0.00    +0.000 C 
ATOM     22  O   UNL     1      -0.648   9.002  22.299  0.00  0.00    +0.000 OA
ENDBRANCH   1  22
BRANCH  17  23
ATOM     23  O   UNL     1       0.149  11.152  20.535  0.00  0.00    +0.000 OA
ATOM     24  C   UNL     1      -0.936  11.570  19.708  0.00  0.00    +0.000 C 
ENDBRANCH  17  23
BRANCH  12  25
ATOM     25  C   UNL     1       4.204   6.375  16.845  0.00  0.00    +0.000 C 
BRANCH  25  26
ATOM     26  C   UNL     1       5.580   5.872  17.277  0.00  0.00    +0.000 A 
ATOM     27  C   UNL     1       6.173   6.255  18.494  0.00  0.00    +0.000 A 
ATOM     28  C   UNL     1       7.441   5.795  18.857  0.00  0.00    +0.000 A 
ATOM     29  C   UNL     1       8.135   4.924  18.024  0.00  0.00    +0.000 A 
ATOM     30  C   UNL     1       7.547   4.488  16.839  0.00  0.00    +0.000 A 
ATOM     31  C   UNL     1       6.275   4.945  16.468  0.00  0.00    +0.000 A 
BRANCH  31  32
ATOM     32  C   UNL     1       5.712   4.452  15.243  0.00  0.00    +0.000 C 
ATOM     33  N   UNL     1       5.231   4.058  14.264  0.00  0.00    +0.000 NA
ENDBRANCH  31  32
ENDBRANCH  25  26
ENDBRANCH  12  25
TORSDOF 6
ENDMDL
MODEL 2
REMARK VINA RESULT:      -7.9      1.582      4.658
REMARK  Name = 
REMARK  8 active torsions:
REMARK  status: ('A' for Active; 'I' for Inactive)
REMARK    1  A    between atoms: C_1  and  O_2
REMARK    2  A    between atoms: O_2  and  C_3
REMARK    3  A    between atoms: C_12  and  N_13
REMARK    4  A    between atoms: N_15  and  C_16
REMARK    5  A    between atoms: C_16  and  C_17
REMARK    6  A    between atoms: C_22  and  C_23
REMARK    7  A    between atoms: C_29  and  O_30
REMARK    8  A    between atoms: O_30  and  C_31
REMARK                            x       y       z     vdW  Elec       q    Type
REMARK                         _______ _______ _______ _____ _____    ______ ____
ROOT
ATOM      1  C   UNL     1       1.031  10.763  18.697  0.00  0.00    +0.000 A 
ATOM      2  C   UNL     1       1.962   9.961  17.988  0.00  0.00    +0.000 A 
ATOM      3  C   UNL     1       2.365   8.710  18.462  0.00  0.00    +0.000 A 
ATOM      4  N   UNL     1       3.351   7.953  17.793  0.00  0.00    +0.000 NA
ATOM      5  C   UNL     1       3.742   6.806  18.282  0.00  0.00    +0.000 A 
ATOM      6  N   UNL     1       4.768   6.123  17.639  0.00  0.00    +0.000 N 
ATOM      7  C   UNL     1       6.094   5.991  18.234  0.00  0.00    +0.000 C 
ATOM      8  C   UNL     1       7.201   6.079  17.179  0.00  0.00    +0.000 C 
ATOM      9  C   UNL     1       6.941   5.258  15.914  0.00  0.00    +0.000 C 
ATOM     10  C   UNL     1       5.499   5.400  15.401  0.00  0.00    +0.000 C 
ATOM     11  C   UNL     1       4.494   5.170  16.554  0.00  0.00    +0.000 C 
ATOM     12  N   UNL     1       3.163   6.276  19.439  0.00  0.00    +0.000 N 
ATOM     13  C   UNL     1       2.151   6.939  20.123  0.00  0.00    +0.000 A 
ATOM     14  O   UNL     1       1.585   6.496  21.122  0.00  0.00    +0.000 OA
ATOM     15  C   UNL     1       1.767   8.254  19.626  0.00  0.00    +0.000 A 
ATOM     16  C   UNL     1       0.822   9.012  20.332  0.00  0.00    +0.000 A 
ATOM     17  C   UNL     1       0.463  10.280  19.887  0.00  0.00    +0.000 A 
ENDROOT
BRANCH  10  18
ATOM     18  N   UNL     1       5.282   4.480  14.273  0.00  0.00    +0.000 NA
ATOM     19  H   UNL     1       4.284   4.364  14.092  0.00  0.00    +0.000 HD
ATOM     20  H   UNL     1       5.613   3.550  14.536  0.00  0.00    +0.000 HD
ENDBRANCH  10  18
BRANCH   1  22
ATOM     21  C   UNL     1       1.650  13.043  18.388  0.00  0.00    +0.000 C 
ATOM     22  O   UNL     1       0.752  11.972  18.103  0.00  0.00    +0.000 OA
ENDBRANCH   1  22
BRANCH  17  23
ATOM     23  O   UNL     1      -0.485  11.020  20.540  0.00  0.00    +0.000 OA
ATOM     24  C   UNL     1      -0.430  10.993  21.966  0.00  0.00    +0.000 C 
ENDBRANCH  17  23
BRANCH  12  25
ATOM     25  C   UNL     1       3.486   4.955  19.967  0.00  0.00    +0.000 C 
BRANCH  25  26
ATOM     26  C   UNL     1       2.576   3.821  19.502  0.00  0.00    +0.000 A 
ATOM     27  C   UNL     1       1.391   4.055  18.781  0.00  0.00    +0.000 A 
ATOM     28  C   UNL     1       0.565   3.000  18.382  0.00  0.00    +0.000 A 
ATOM     29  C   UNL     1       0.916   1.687  18.676  0.00  0.00    +0.000 A 
ATOM     30  C   UNL     1       2.111   1.426  19.342  0.00  0.00    +0.000 A 
ATOM     31  C   UNL     1       2.945   2.478  19.745  0.00  0.00    +0.000 A 
BRANCH  31  32
ATOM     32  C   UNL     1       4.171   2.150  20.415  0.00  0.00    +0.000 C 
ATOM     33  N   UNL     1       5.171   1.873  20.933  0.00  0.00    +0.000 NA
ENDBRANCH  31  32
ENDBRANCH  25  26
ENDBRANCH  12  25
TORSDOF 6
ENDMDL
MODEL 3
REMARK VINA RESULT:      -7.8      1.463      1.654
REMARK  Name = 
REMARK  8 active torsions:
REMARK  status: ('A' for Active; 'I' for Inactive)
REMARK    1  A    between atoms: C_1  and  O_2
REMARK    2  A    between atoms: O_2  and  C_3
REMARK    3  A    between atoms: C_12  and  N_13
REMARK    4  A    between atoms: N_15  and  C_16
REMARK    5  A    between atoms: C_16  and  C_17
REMARK    6  A    between atoms: C_22  and  C_23
REMARK    7  A    between atoms: C_29  and  O_30
REMARK    8  A    between atoms: O_30  and  C_31
REMARK                            x       y       z     vdW  Elec       q    Type
REMARK                         _______ _______ _______ _____ _____    ______ ____
ROOT
ATOM      1  C   UNL     1       0.781  10.463  20.127  0.00  0.00    +0.000 A 
ATOM      2  C   UNL     1       0.849   9.077  20.420  0.00  0.00    +0.000 A 
ATOM      3  C   UNL     1       1.560   8.187  19.609  0.00  0.00    +0.000 A 
ATOM      4  N   UNL     1       1.557   6.799  19.862  0.00  0.00    +0.000 NA
ATOM      5  C   UNL     1       2.193   5.984  19.061  0.00  0.00    +0.000 A 
ATOM      6  N   UNL     1       2.107   4.617  19.296  0.00  0.00    +0.000 N 
ATOM      7  C   UNL     1       1.364   3.730  18.406  0.00  0.00    +0.000 C 
ATOM      8  C   UNL     1       0.638   2.627  19.181  0.00  0.00    +0.000 C 
ATOM      9  C   UNL     1       1.481   1.950  20.264  0.00  0.00    +0.000 C 
ATOM     10  C   UNL     1       2.286   2.955  21.104  0.00  0.00    +0.000 C 
ATOM     11  C   UNL     1       3.055   3.929  20.182  0.00  0.00    +0.000 C 
ATOM     12  N   UNL     1       2.932   6.466  17.977  0.00  0.00    +0.000 N 
ATOM     13  C   UNL     1       3.025   7.824  17.695  0.00  0.00    +0.000 A 
ATOM     14  O   UNL     1       3.692   8.296  16.775  0.00  0.00    +0.000 OA
ATOM     15  C   UNL     1       2.252   8.728  18.538  0.00  0.00    +0.000 A 
ATOM     16  C   UNL     1       2.228  10.099  18.241  0.00  0.00    +0.000 A 
ATOM     17  C   UNL     1       1.476  10.973  19.018  0.00  0.00    +0.000 A 
ENDROOT
BRANCH  10  18
ATOM     18  N   UNL     1       3.175   2.229  22.026  0.00  0.00    +0.000 NA
ATOM     19  H   UNL     1       4.015   2.776  22.218  0.00  0.00    +0.000 HD
ATOM     20  H   UNL     1       3.510   1.383  21.564  0.00  0.00    +0.000 HD
ENDBRANCH  10  18
BRANCH   1  22
ATOM     21  C   UNL     1      -0.556  10.477  22.098  0.00  0.00    +0.000 C 
ATOM     22  O   UNL     1       0.030  11.197  21.015  0.00  0.00    +0.000 OA
ENDBRANCH   1  22
BRANCH  17  23
ATOM     23  O   UNL     1       1.468  12.319  18.769  0.00  0.00    +0.000 OA
ATOM     24  C   UNL     1       2.674  12.864  18.234  0.00  0.00    +0.000 C 
ENDBRANCH  17  23
BRANCH  12  25
ATOM     25  C   UNL     1       3.746   5.613  17.117  0.00  0.00    +0.000 C 
BRANCH  25  26
ATOM     26  C   UNL     1       5.186   5.399  17.576  0.00  0.00    +0.000 A 
ATOM     27  C   UNL     1       5.608   5.687  18.887  0.00  0.00    +0.000 A 
ATOM     28  C   UNL     1       6.936   5.500  19.278  0.00  0.00    +0.000 A 
ATOM     29  C   UNL     1       7.868   5.000  18.375  0.00  0.00    +0.000 A 
ATOM     30  C   UNL     1       7.464   4.656  17.087  0.00  0.00    +0.000 A 
ATOM     31  C   UNL     1       6.133   4.841  16.688  0.00  0.00    +0.000 A 
BRANCH  31  32
ATOM     32  C   UNL     1       5.769   4.457  15.353  0.00  0.00    +0.000 C 
ATOM     33  N   UNL     1       5.499   4.160  14.265  0.00  0.00    +0.000 NA
ENDBRANCH  31  32
ENDBRANCH  25  26
ENDBRANCH  12  25
TORSDOF 6
ENDMDL
MODEL 4
REMARK VINA RESULT:      -7.4      1.384      1.471
REMARK  Name = 
REMARK  8 active torsions:
REMARK  status: ('A' for Active; 'I' for Inactive)
REMARK    1  A    between atoms: C_1  and  O_2
REMARK    2  A    between atoms: O_2  and  C_3
REMARK    3  A    between atoms: C_12  and  N_13
REMARK    4  A    between atoms: N_15  and  C_16
REMARK    5  A    between atoms: C_16  and  C_17
REMARK    6  A    between atoms: C_22  and  C_23
REMARK    7  A    between atoms: C_29  and  O_30
REMARK    8  A    between atoms: O_30  and  C_31
REMARK                            x       y       z     vdW  Elec       q    Type
REMARK                         _______ _______ _______ _____ _____    ______ ____
ROOT
ATOM      1  C   UNL     1       0.593   9.995  21.905  0.00  0.00    +0.000 A 
ATOM      2  C   UNL     1       0.923   8.617  21.856  0.00  0.00    +0.000 A 
ATOM      3  C   UNL     1       1.436   8.023  20.699  0.00  0.00    +0.000 A 
ATOM      4  N   UNL     1       1.687   6.636  20.634  0.00  0.00    +0.000 NA
ATOM      5  C   UNL     1       2.124   6.099  19.524  0.00  0.00    +0.000 A 
ATOM      6  N   UNL     1       2.288   4.720  19.472  0.00  0.00    +0.000 N 
ATOM      7  C   UNL     1       1.411   3.872  18.670  0.00  0.00    +0.000 C 
ATOM      8  C   UNL     1       1.119   2.539  19.365  0.00  0.00    +0.000 C 
ATOM      9  C   UNL     1       2.345   1.859  19.978  0.00  0.00    +0.000 C 
ATOM     10  C   UNL     1       3.249   2.841  20.741  0.00  0.00    +0.000 C 
ATOM     11  C   UNL     1       3.550   4.081  19.868  0.00  0.00    +0.000 C 
ATOM     12  N   UNL     1       2.403   6.883  18.402  0.00  0.00    +0.000 N 
ATOM     13  C   UNL     1       2.231   8.263  18.407  0.00  0.00    +0.000 A 
ATOM     14  O   UNL     1       2.499   8.998  17.458  0.00  0.00    +0.000 OA
ATOM     15  C   UNL     1       1.670   8.854  19.615  0.00  0.00    +0.000 A 
ATOM     16  C   UNL     1       1.381  10.227  19.644  0.00  0.00    +0.000 A 
ATOM     17  C   UNL     1       0.821  10.803  20.779  0.00  0.00    +0.000 A 
ENDROOT
BRANCH  10  18
ATOM     18  N   UNL     1       4.472   2.150  21.179  0.00  0.00    +0.000 NA
ATOM     19  H   UNL     1       5.156   2.820  21.533  0.00  0.00    +0.000 HD
ATOM     20  H   UNL     1       4.918   1.720  20.368  0.00  0.00    +0.000 HD
ENDBRANCH  10  18
BRANCH   1  22
ATOM     21  C   UNL     1      -1.289  10.792  23.128  0.00  0.00    +0.000 C 
ATOM     22  O   UNL     1       0.088  10.418  23.111  0.00  0.00    +0.000 OA
ENDBRANCH   1  22
BRANCH  17  23
ATOM     23  O   UNL     1       0.566  12.147  20.841  0.00  0.00    +0.000 OA
ATOM     24  C   UNL     1      -0.340  12.660  19.865  0.00  0.00    +0.000 C 
ENDBRANCH  17  23
BRANCH  12  25
ATOM     25  C   UNL     1       2.992   6.352  17.177  0.00  0.00    +0.000 C 
BRANCH  25  26
ATOM     26  C   UNL     1       4.517   6.274  17.160  0.00  0.00    +0.000 A 
ATOM     27  C   UNL     1       5.330   7.387  17.443  0.00  0.00    +0.000 A 
ATOM     28  C   UNL     1       6.724   7.294  17.403  0.00  0.00    +0.000 A 
ATOM     29  C   UNL     1       7.336   6.082  17.103  0.00  0.00    +0.000 A 
ATOM     30  C   UNL     1       6.554   4.953  16.873  0.00  0.00    +0.000 A 
ATOM     31  C   UNL     1       5.155   5.038  16.910  0.00  0.00    +0.000 A 
BRANCH  31  32
ATOM     32  C   UNL     1       4.400   3.840  16.679  0.00  0.00    +0.000 C 
ATOM     33  N   UNL     1       3.776   2.875  16.517  0.00  0.00    +0.000 NA
ENDBRANCH  31  32
ENDBRANCH  25  26
ENDBRANCH  12  25
TORSDOF 6
ENDMDL
MODEL 5
REMARK VINA RESULT:      -7.1      5.487      9.442
REMARK  Name = 
REMARK  8 active torsions:
REMARK  status: ('A' for Active; 'I' for Inactive)
REMARK    1  A    between atoms: C_1  and  O_2
REMARK    2  A    between atoms: O_2  and  C_3
REMARK    3  A    between atoms: C_12  and  N_13
REMARK    4  A    between atoms: N_15  and  C_16
REMARK    5  A    between atoms: C_16  and  C_17
REMARK    6  A    between atoms: C_22  and  C_23
REMARK    7  A    between atoms: C_29  and  O_30
REMARK    8  A    between atoms: O_30  and  C_31
REMARK                            x       y       z     vdW  Elec       q    Type
REMARK                         _______ _______ _______ _____ _____    ______ ____
ROOT
ATOM      1  C   UNL     1       1.710  17.087  18.458  0.00  0.00    +0.000 A 
ATOM      2  C   UNL     1       0.443  16.453  18.500  0.00  0.00    +0.000 A 
ATOM      3  C   UNL     1       0.253  15.230  19.149  0.00  0.00    +0.000 A 
ATOM      4  N   UNL     1      -0.993  14.566  19.118  0.00  0.00    +0.000 NA
ATOM      5  C   UNL     1      -1.131  13.402  19.696  0.00  0.00    +0.000 A 
ATOM      6  N   UNL     1      -2.349  12.742  19.581  0.00  0.00    +0.000 N 
ATOM      7  C   UNL     1      -2.494  11.533  18.776  0.00  0.00    +0.000 C 
ATOM      8  C   UNL     1      -3.844  11.492  18.053  0.00  0.00    +0.000 C 
ATOM      9  C   UNL     1      -5.043  11.877  18.922  0.00  0.00    +0.000 C 
ATOM     10  C   UNL     1      -4.773  13.116  19.790  0.00  0.00    +0.000 C 
ATOM     11  C   UNL     1      -3.434  12.960  20.547  0.00  0.00    +0.000 C 
ATOM     12  N   UNL     1      -0.077  12.814  20.400  0.00  0.00    +0.000 N 
ATOM     13  C   UNL     1       1.163  13.431  20.520  0.00  0.00    +0.000 A 
ATOM     14  O   UNL     1       2.108  12.971  21.160  0.00  0.00    +0.000 OA
ATOM     15  C   UNL     1       1.345  14.691  19.810  0.00  0.00    +0.000 A 
ATOM     16  C   UNL     1       2.603  15.311  19.812  0.00  0.00    +0.000 A 
ATOM     17  C   UNL     1       2.802  16.500  19.119  0.00  0.00    +0.000 A 
ENDROOT
BRANCH  10  18
ATOM     18  N   UNL     1      -5.910  13.341  20.697  0.00  0.00    +0.000 NA
ATOM     19  H   UNL     1      -6.085  14.340  20.812  0.00  0.00    +0.000 HD
ATOM     20  H   UNL     1      -5.661  13.007  21.629  0.00  0.00    +0.000 HD
ENDBRANCH  10  18
BRANCH   1  22
ATOM     21  C   UNL     1       0.885  18.360  16.622  0.00  0.00    +0.000 C 
ATOM     22  O   UNL     1       1.731  18.276  17.767  0.00  0.00    +0.000 OA
ENDBRANCH   1  22
BRANCH  17  23
ATOM     23  O   UNL     1       4.012  17.141  19.139  0.00  0.00    +0.000 OA
ATOM     24  C   UNL     1       4.518  17.484  20.428  0.00  0.00    +0.000 C 
ENDBRANCH  17  23
BRANCH  12  25
ATOM     25  C   UNL     1      -0.208  11.570  21.152  0.00  0.00    +0.000 C 
BRANCH  25  26
ATOM     26  C   UNL     1       0.502  10.359  20.549  0.00  0.00    +0.000 A 
ATOM     27  C   UNL     1       0.808  10.273  19.179  0.00  0.00    +0.000 A 
ATOM     28  C   UNL     1       1.442   9.146  18.649  0.00  0.00    +0.000 A 
ATOM     29  C   UNL     1       1.804   8.091  19.479  0.00  0.00    +0.000 A 
ATOM     30  C   UNL     1       1.560   8.176  20.848  0.00  0.00    +0.000 A 
ATOM     31  C   UNL     1       0.924   9.303  21.387  0.00  0.00    +0.000 A 
BRANCH  31  32
ATOM     32  C   UNL     1       0.710   9.343  22.806  0.00  0.00    +0.000 C 
ATOM     33  N   UNL     1       0.529   9.402  23.950  0.00  0.00    +0.000 NA
ENDBRANCH  31  32
ENDBRANCH  25  26
ENDBRANCH  12  25
TORSDOF 6
ENDMDL
MODEL 6
REMARK VINA RESULT:      -7.0      1.745      4.806
REMARK  Name = 
REMARK  8 active torsions:
REMARK  status: ('A' for Active; 'I' for Inactive)
REMARK    1  A    between atoms: C_1  and  O_2
REMARK    2  A    between atoms: O_2  and  C_3
REMARK    3  A    between atoms: C_12  and  N_13
REMARK    4  A    between atoms: N_15  and  C_16
REMARK    5  A    between atoms: C_16  and  C_17
REMARK    6  A    between atoms: C_22  and  C_23
REMARK    7  A    between atoms: C_29  and  O_30
REMARK    8  A    between atoms: O_30  and  C_31
REMARK                            x       y       z     vdW  Elec       q    Type
REMARK                         _______ _______ _______ _____ _____    ______ ____
ROOT
ATOM      1  C   UNL     1       0.942  10.612  18.666  0.00  0.00    +0.000 A 
ATOM      2  C   UNL     1       1.908   9.875  17.933  0.00  0.00    +0.000 A 
ATOM      3  C   UNL     1       2.375   8.634  18.373  0.00  0.00    +0.000 A 
ATOM      4  N   UNL     1       3.394   7.944  17.681  0.00  0.00    +0.000 NA
ATOM      5  C   UNL     1       3.844   6.805  18.139  0.00  0.00    +0.000 A 
ATOM      6  N   UNL     1       4.899   6.191  17.474  0.00  0.00    +0.000 N 
ATOM      7  C   UNL     1       6.233   6.110  18.061  0.00  0.00    +0.000 C 
ATOM      8  C   UNL     1       7.329   6.280  17.005  0.00  0.00    +0.000 C 
ATOM      9  C   UNL     1       7.104   5.481  15.720  0.00  0.00    +0.000 C 
ATOM     10  C   UNL     1       5.654   5.564  15.216  0.00  0.00    +0.000 C 
ATOM     11  C   UNL     1       4.668   5.255  16.366  0.00  0.00    +0.000 C 
ATOM     12  N   UNL     1       3.298   6.218  19.283  0.00  0.00    +0.000 N 
ATOM     13  C   UNL     1       2.256   6.812  19.988  0.00  0.00    +0.000 A 
ATOM     14  O   UNL     1       1.719   6.316  20.977  0.00  0.00    +0.000 OA
ATOM     15  C   UNL     1       1.806   8.119  19.526  0.00  0.00    +0.000 A 
ATOM     16  C   UNL     1       0.827   8.811  20.255  0.00  0.00    +0.000 A 
ATOM     17  C   UNL     1       0.404  10.070  19.845  0.00  0.00    +0.000 A 
ENDROOT
BRANCH  10  18
ATOM     18  N   UNL     1       5.478   4.663  14.065  0.00  0.00    +0.000 NA
ATOM     19  H   UNL     1       4.490   4.447  13.927  0.00  0.00    +0.000 HD
ATOM     20  H   UNL     1       5.919   3.767  14.277  0.00  0.00    +0.000 HD
ENDBRANCH  10  18
BRANCH   1  22
ATOM     21  C   UNL     1       1.270  12.970  18.617  0.00  0.00    +0.000 C 
ATOM     22  O   UNL     1       0.600  11.819  18.105  0.00  0.00    +0.000 OA
ENDBRANCH   1  22
BRANCH  17  23
ATOM     23  O   UNL     1      -0.576  10.745  20.520  0.00  0.00    +0.000 OA
ATOM     24  C   UNL     1      -0.478  10.735  21.943  0.00  0.00    +0.000 C 
ENDBRANCH  17  23
BRANCH  12  25
ATOM     25  C   UNL     1       3.688   4.902  19.775  0.00  0.00    +0.000 C 
BRANCH  25  26
ATOM     26  C   UNL     1       2.894   3.726  19.210  0.00  0.00    +0.000 A 
ATOM     27  C   UNL     1       2.897   3.406  17.840  0.00  0.00    +0.000 A 
ATOM     28  C   UNL     1       2.147   2.336  17.345  0.00  0.00    +0.000 A 
ATOM     29  C   UNL     1       1.396   1.548  18.210  0.00  0.00    +0.000 A 
ATOM     30  C   UNL     1       1.420   1.811  19.578  0.00  0.00    +0.000 A 
ATOM     31  C   UNL     1       2.169   2.883  20.082  0.00  0.00    +0.000 A 
BRANCH  31  32
ATOM     32  C   UNL     1       2.168   3.099  21.501  0.00  0.00    +0.000 C 
ATOM     33  N   UNL     1       2.191   3.288  22.645  0.00  0.00    +0.000 NA
ENDBRANCH  31  32
ENDBRANCH  25  26
ENDBRANCH  12  25
TORSDOF 6
ENDMDL
MODEL 7
REMARK VINA RESULT:      -7.0      5.171      8.778
REMARK  Name = 
REMARK  8 active torsions:
REMARK  status: ('A' for Active; 'I' for Inactive)
REMARK    1  A    between atoms: C_1  and  O_2
REMARK    2  A    between atoms: O_2  and  C_3
REMARK    3  A    between atoms: C_12  and  N_13
REMARK    4  A    between atoms: N_15  and  C_16
REMARK    5  A    between atoms: C_16  and  C_17
REMARK    6  A    between atoms: C_22  and  C_23
REMARK    7  A    between atoms: C_29  and  O_30
REMARK    8  A    between atoms: O_30  and  C_31
REMARK                            x       y       z     vdW  Elec       q    Type
REMARK                         _______ _______ _______ _____ _____    ______ ____
ROOT
ATOM      1  C   UNL     1       1.660  16.543  18.832  0.00  0.00    +0.000 A 
ATOM      2  C   UNL     1       0.578  15.776  18.328  0.00  0.00    +0.000 A 
ATOM      3  C   UNL     1       0.261  14.519  18.851  0.00  0.00    +0.000 A 
ATOM      4  N   UNL     1      -0.766  13.728  18.293  0.00  0.00    +0.000 NA
ATOM      5  C   UNL     1      -1.013  12.537  18.773  0.00  0.00    +0.000 A 
ATOM      6  N   UNL     1      -1.979  11.756  18.151  0.00  0.00    +0.000 N 
ATOM      7  C   UNL     1      -1.627  10.565  17.384  0.00  0.00    +0.000 C 
ATOM      8  C   UNL     1      -2.515  10.404  16.147  0.00  0.00    +0.000 C 
ATOM      9  C   UNL     1      -4.006  10.630  16.400  0.00  0.00    +0.000 C 
ATOM     10  C   UNL     1      -4.279  11.862  17.278  0.00  0.00    +0.000 C 
ATOM     11  C   UNL     1      -3.393  11.825  18.544  0.00  0.00    +0.000 C 
ATOM     12  N   UNL     1      -0.311  12.042  19.876  0.00  0.00    +0.000 N 
ATOM     13  C   UNL     1       0.677  12.784  20.512  0.00  0.00    +0.000 A 
ATOM     14  O   UNL     1       1.294  12.406  21.508  0.00  0.00    +0.000 OA
ATOM     15  C   UNL     1       1.009  14.079  19.931  0.00  0.00    +0.000 A 
ATOM     16  C   UNL     1       2.066  14.829  20.469  0.00  0.00    +0.000 A 
ATOM     17  C   UNL     1       2.414  16.054  19.912  0.00  0.00    +0.000 A 
ENDROOT
BRANCH  10  18
ATOM     18  N   UNL     1      -5.714  11.936  17.596  0.00  0.00    +0.000 NA
ATOM     19  H   UNL     1      -5.885  12.633  18.321  0.00  0.00    +0.000 HD
ATOM     20  H   UNL     1      -6.007  11.048  18.007  0.00  0.00    +0.000 HD
ENDBRANCH  10  18
BRANCH   1  22
ATOM     21  C   UNL     1       0.669  18.454  17.812  0.00  0.00    +0.000 C 
ATOM     22  O   UNL     1       1.847  17.748  18.199  0.00  0.00    +0.000 OA
ENDBRANCH   1  22
BRANCH  17  23
ATOM     23  O   UNL     1       3.416  16.818  20.445  0.00  0.00    +0.000 OA
ATOM     24  C   UNL     1       4.734  16.280  20.350  0.00  0.00    +0.000 C 
ENDBRANCH  17  23
BRANCH  12  25
ATOM     25  C   UNL     1      -0.618  10.768  20.517  0.00  0.00    +0.000 C 
BRANCH  25  26
ATOM     26  C   UNL     1       0.383   9.644  20.259  0.00  0.00    +0.000 A 
ATOM     27  C   UNL     1       0.850   9.334  18.969  0.00  0.00    +0.000 A 
ATOM     28  C   UNL     1       1.753   8.289  18.757  0.00  0.00    +0.000 A 
ATOM     29  C   UNL     1       2.227   7.545  19.832  0.00  0.00    +0.000 A 
ATOM     30  C   UNL     1       1.822   7.867  21.125  0.00  0.00    +0.000 A 
ATOM     31  C   UNL     1       0.916   8.914  21.346  0.00  0.00    +0.000 A 
BRANCH  31  32
ATOM     32  C   UNL     1       0.543   9.210  22.700  0.00  0.00    +0.000 C 
ATOM     33  N   UNL     1       0.257   9.474  23.793  0.00  0.00    +0.000 NA
ENDBRANCH  31  32
ENDBRANCH  25  26
ENDBRANCH  12  25
TORSDOF 6
ENDMDL
MODEL 8
REMARK VINA RESULT:      -6.7      4.763      9.033
REMARK  Name = 
REMARK  8 active torsions:
REMARK  status: ('A' for Active; 'I' for Inactive)
REMARK    1  A    between atoms: C_1  and  O_2
REMARK    2  A    between atoms: O_2  and  C_3
REMARK    3  A    between atoms: C_12  and  N_13
REMARK    4  A    between atoms: N_15  and  C_16
REMARK    5  A    between atoms: C_16  and  C_17
REMARK    6  A    between atoms: C_22  and  C_23
REMARK    7  A    between atoms: C_29  and  O_30
REMARK    8  A    between atoms: O_30  and  C_31
REMARK                            x       y       z     vdW  Elec       q    Type
REMARK                         _______ _______ _______ _____ _____    ______ ____
ROOT
ATOM      1  C   UNL     1       3.203  15.916  18.494  0.00  0.00    +0.000 A 
ATOM      2  C   UNL     1       3.191  14.508  18.667  0.00  0.00    +0.000 A 
ATOM      3  C   UNL     1       2.013  13.810  18.945  0.00  0.00    +0.000 A 
ATOM      4  N   UNL     1       2.022  12.421  19.194  0.00  0.00    +0.000 NA
ATOM      5  C   UNL     1       0.911  11.801  19.496  0.00  0.00    +0.000 A 
ATOM      6  N   UNL     1       0.968  10.448  19.810  0.00  0.00    +0.000 N 
ATOM      7  C   UNL     1       0.741   9.965  21.169  0.00  0.00    +0.000 C 
ATOM      8  C   UNL     1       1.658   8.787  21.512  0.00  0.00    +0.000 C 
ATOM      9  C   UNL     1       1.759   7.720  20.421  0.00  0.00    +0.000 C 
ATOM     10  C   UNL     1       1.922   8.322  19.016  0.00  0.00    +0.000 C 
ATOM     11  C   UNL     1       0.855   9.414  18.773  0.00  0.00    +0.000 C 
ATOM     12  N   UNL     1      -0.311  12.478  19.526  0.00  0.00    +0.000 N 
ATOM     13  C   UNL     1      -0.407  13.835  19.240  0.00  0.00    +0.000 A 
ATOM     14  O   UNL     1      -1.464  14.465  19.216  0.00  0.00    +0.000 OA
ATOM     15  C   UNL     1       0.839  14.546  18.981  0.00  0.00    +0.000 A 
ATOM     16  C   UNL     1       0.816  15.934  18.784  0.00  0.00    +0.000 A 
ATOM     17  C   UNL     1       1.997  16.633  18.561  0.00  0.00    +0.000 A 
ENDROOT
BRANCH  10  18
ATOM     18  N   UNL     1       1.870   7.249  18.009  0.00  0.00    +0.000 NA
ATOM     19  H   UNL     1       1.940   7.637  17.068  0.00  0.00    +0.000 HD
ATOM     20  H   UNL     1       0.951   6.806  18.045  0.00  0.00    +0.000 HD
ENDBRANCH  10  18
BRANCH   1  22
ATOM     21  C   UNL     1       5.167  16.940  19.369  0.00  0.00    +0.000 C 
ATOM     22  O   UNL     1       4.445  16.449  18.241  0.00  0.00    +0.000 OA
ENDBRANCH   1  22
BRANCH  17  23
ATOM     23  O   UNL     1       1.992  17.982  18.329  0.00  0.00    +0.000 OA
ATOM     24  C   UNL     1       0.725  18.631  18.428  0.00  0.00    +0.000 C 
ENDBRANCH  17  23
BRANCH  12  25
ATOM     25  C   UNL     1      -1.591  11.815  19.751  0.00  0.00    +0.000 C 
BRANCH  25  26
ATOM     26  C   UNL     1      -2.423  11.547  18.498  0.00  0.00    +0.000 A 
ATOM     27  C   UNL     1      -1.872  10.969  17.340  0.00  0.00    +0.000 A 
ATOM     28  C   UNL     1      -2.650  10.750  16.200  0.00  0.00    +0.000 A 
ATOM     29  C   UNL     1      -3.999  11.084  16.199  0.00  0.00    +0.000 A 
ATOM     30  C   UNL     1      -4.581  11.609  17.351  0.00  0.00    +0.000 A 
ATOM     31  C   UNL     1      -3.807  11.831  18.499  0.00  0.00    +0.000 A 
BRANCH  31  32
ATOM     32  C   UNL     1      -4.461  12.361  19.661  0.00  0.00    +0.000 C 
ATOM     33  N   UNL     1      -5.012  12.772  20.596  0.00  0.00    +0.000 NA
ENDBRANCH  31  32
ENDBRANCH  25  26
ENDBRANCH  12  25
TORSDOF 6
ENDMDL
MODEL 9
REMARK VINA RESULT:      -6.6      1.584      1.679
REMARK  Name = 
REMARK  8 active torsions:
REMARK  status: ('A' for Active; 'I' for Inactive)
REMARK    1  A    between atoms: C_1  and  O_2
REMARK    2  A    between atoms: O_2  and  C_3
REMARK    3  A    between atoms: C_12  and  N_13
REMARK    4  A    between atoms: N_15  and  C_16
REMARK    5  A    between atoms: C_16  and  C_17
REMARK    6  A    between atoms: C_22  and  C_23
REMARK    7  A    between atoms: C_29  and  O_30
REMARK    8  A    between atoms: O_30  and  C_31
REMARK                            x       y       z     vdW  Elec       q    Type
REMARK                         _______ _______ _______ _____ _____    ______ ____
ROOT
ATOM      1  C   UNL     1       0.185   9.970  21.648  0.00  0.00    +0.000 A 
ATOM      2  C   UNL     1       0.403   8.569  21.690  0.00  0.00    +0.000 A 
ATOM      3  C   UNL     1       1.129   7.907  20.697  0.00  0.00    +0.000 A 
ATOM      4  N   UNL     1       1.274   6.503  20.704  0.00  0.00    +0.000 NA
ATOM      5  C   UNL     1       1.920   5.904  19.738  0.00  0.00    +0.000 A 
ATOM      6  N   UNL     1       1.979   4.516  19.737  0.00  0.00    +0.000 N 
ATOM      7  C   UNL     1       1.255   3.718  18.752  0.00  0.00    +0.000 C 
ATOM      8  C   UNL     1       0.696   2.431  19.365  0.00  0.00    +0.000 C 
ATOM      9  C   UNL     1       1.676   1.674  20.262  0.00  0.00    +0.000 C 
ATOM     10  C   UNL     1       2.447   2.603  21.214  0.00  0.00    +0.000 C 
ATOM     11  C   UNL     1       3.051   3.792  20.432  0.00  0.00    +0.000 C 
ATOM     12  N   UNL     1       2.526   6.634  18.712  0.00  0.00    +0.000 N 
ATOM     13  C   UNL     1       2.472   8.023  18.665  0.00  0.00    +0.000 A 
ATOM     14  O   UNL     1       3.021   8.709  17.805  0.00  0.00    +0.000 OA
ATOM     15  C   UNL     1       1.685   8.688  19.697  0.00  0.00    +0.000 A 
ATOM     16  C   UNL     1       1.512  10.079  19.645  0.00  0.00    +0.000 A 
ATOM     17  C   UNL     1       0.743  10.728  20.605  0.00  0.00    +0.000 A 
ENDROOT
BRANCH  10  18
ATOM     18  N   UNL     1       3.467   1.830  21.942  0.00  0.00    +0.000 NA
ATOM     19  H   UNL     1       3.216   1.744  22.928  0.00  0.00    +0.000 HD
ATOM     20  H   UNL     1       4.344   2.352  21.936  0.00  0.00    +0.000 HD
ENDBRANCH  10  18
BRANCH   1  22
ATOM     21  C   UNL     1      -1.415  11.567  22.398  0.00  0.00    +0.000 C 
ATOM     22  O   UNL     1      -0.561  10.463  22.692  0.00  0.00    +0.000 OA
ENDBRANCH   1  22
BRANCH  17  23
ATOM     23  O   UNL     1       0.593  12.088  20.594  0.00  0.00    +0.000 OA
ATOM     24  C   UNL     1       1.556  12.820  19.838  0.00  0.00    +0.000 C 
ENDBRANCH  17  23
BRANCH  12  25
ATOM     25  C   UNL     1       3.348   6.026  17.671  0.00  0.00    +0.000 C 
BRANCH  25  26
ATOM     26  C   UNL     1       4.846   5.970  17.963  0.00  0.00    +0.000 A 
ATOM     27  C   UNL     1       5.354   5.528  19.198  0.00  0.00    +0.000 A 
ATOM     28  C   UNL     1       6.729   5.503  19.448  0.00  0.00    +0.000 A 
ATOM     29  C   UNL     1       7.626   5.898  18.462  0.00  0.00    +0.000 A 
ATOM     30  C   UNL     1       7.150   6.290  17.213  0.00  0.00    +0.000 A 
ATOM     31  C   UNL     1       5.773   6.317  16.955  0.00  0.00    +0.000 A 
BRANCH  31  32
ATOM     32  C   UNL     1       5.339   6.716  15.646  0.00  0.00    +0.000 C 
ATOM     33  N   UNL     1       5.003   7.016  14.577  0.00  0.00    +0.000 NA
ENDBRANCH  31  32
ENDBRANCH  25  26
ENDBRANCH  12  25
TORSDOF 6
ENDMDL
