MODEL 1
REMARK VINA RESULT:      -7.5      0.000      0.000
REMARK  Name = 
REMARK  7 active torsions:
REMARK  status: ('A' for Active; 'I' for Inactive)
REMARK    1  A    between atoms: C_2  and  C_3
REMARK    2  A    between atoms: C_6  and  C_7
REMARK    3  A    between atoms: N_9  and  C_10
REMARK    4  A    between atoms: C_12  and  C_13
REMARK    5  A    between atoms: C_13  and  O_15
REMARK    6  A    between atoms: C_18  and  C_19
REMARK    7  A    between atoms: C_19  and  O_21
REMARK                            x       y       z     vdW  Elec       q    Type
REMARK                         _______ _______ _______ _____ _____    ______ ____
ROOT
ATOM      1  C   UNL     1       3.660   5.461  19.014  0.00  0.00    +0.000 A 
ATOM      2  C   UNL     1       5.045   5.685  18.942  0.00  0.00    +0.000 A 
ATOM      3  C   UNL     1       5.874   4.845  18.182  0.00  0.00    +0.000 A 
ATOM      4  C   UNL     1       5.322   3.751  17.510  0.00  0.00    +0.000 A 
ATOM      5  C   UNL     1       3.945   3.524  17.571  0.00  0.00    +0.000 A 
ATOM      6  C   UNL     1       3.109   4.379  18.311  0.00  0.00    +0.000 A 
ENDROOT
BRANCH   1   9
ATOM      7  C   UNL     1       2.276   7.461  19.276  0.00  0.00    +0.000 C 
ATOM      8  O   UNL     1       2.268   7.679  18.067  0.00  0.00    +0.000 OA
ATOM      9  N   UNL     1       2.860   6.321  19.819  0.00  0.00    +0.000 N 
ATOM     10  H   UNL     1       2.475   5.943  20.679  0.00  0.00    +0.000 HD
BRANCH   7  14
ATOM     11  C   UNL     1       0.113  10.244  21.753  0.00  0.00    +0.000 A 
ATOM     12  C   UNL     1       0.152  10.391  20.365  0.00  0.00    +0.000 A 
ATOM     13  C   UNL     1       0.859   9.467  19.589  0.00  0.00    +0.000 A 
ATOM     14  C   UNL     1       1.536   8.388  20.184  0.00  0.00    +0.000 A 
ATOM     15  C   UNL     1       1.509   8.257  21.578  0.00  0.00    +0.000 A 
ATOM     16  C   UNL     1       0.795   9.182  22.355  0.00  0.00    +0.000 A 
BRANCH  11  18
ATOM     17  N   UNL     1      -1.228  11.923  23.208  0.00  0.00    +0.000 NA
ATOM     18  C   UNL     1      -0.630  11.175  22.558  0.00  0.00    +0.000 C 
ENDBRANCH  11  18
ENDBRANCH   7  14
ENDBRANCH   1   9
BRANCH   3  19
ATOM     19  C   UNL     1       7.335   5.114  18.185  0.00  0.00    +0.000 C 
ATOM     20  O   UNL     1       7.808   6.154  18.612  0.00  0.00    +0.000 OA
BRANCH  19  21
ATOM     21  O   UNL     1       8.083   4.124  17.658  0.00  0.00    +0.000 OA
ATOM     22  H   UNL     1       7.592   3.405  17.225  0.00  0.00    +0.000 HD
ENDBRANCH  19  21
ENDBRANCH   3  19
BRANCH   6  23
ATOM     23  C   UNL     1       1.653   4.120  18.217  0.00  0.00    +0.000 C 
ATOM     24  O   UNL     1       1.033   4.194  17.171  0.00  0.00    +0.000 OA
BRANCH  23  25
ATOM     25  O   UNL     1       1.076   3.847  19.408  0.00  0.00    +0.000 OA
ATOM     26  H   UNL     1       1.329   2.979  19.785  0.00  0.00    +0.000 HD
ENDBRANCH  23  25
ENDBRANCH   6  23
TORSDOF 7
ENDMDL
MODEL 2
REMARK VINA RESULT:      -7.3      1.081      1.472
REMARK  Name = 
REMARK  7 active torsions:
REMARK  status: ('A' for Active; 'I' for Inactive)
REMARK    1  A    between atoms: C_2  and  C_3
REMARK    2  A    between atoms: C_6  and  C_7
REMARK    3  A    between atoms: N_9  and  C_10
REMARK    4  A    between atoms: C_12  and  C_13
REMARK    5  A    between atoms: C_13  and  O_15
REMARK    6  A    between atoms: C_18  and  C_19
REMARK    7  A    between atoms: C_19  and  O_21
REMARK                            x       y       z     vdW  Elec       q    Type
REMARK                         _______ _______ _______ _____ _____    ______ ____
ROOT
ATOM      1  C   UNL     1       3.512   5.965  18.244  0.00  0.00    +0.000 A 
ATOM      2  C   UNL     1       4.740   6.466  17.779  0.00  0.00    +0.000 A 
ATOM      3  C   UNL     1       5.568   5.694  16.950  0.00  0.00    +0.000 A 
ATOM      4  C   UNL     1       5.184   4.395  16.604  0.00  0.00    +0.000 A 
ATOM      5  C   UNL     1       3.963   3.891  17.057  0.00  0.00    +0.000 A 
ATOM      6  C   UNL     1       3.120   4.672  17.867  0.00  0.00    +0.000 A 
ENDROOT
BRANCH   1   9
ATOM      7  C   UNL     1       2.114   7.933  18.634  0.00  0.00    +0.000 C 
ATOM      8  O   UNL     1       2.087   8.217  17.439  0.00  0.00    +0.000 OA
ATOM      9  N   UNL     1       2.717   6.772  19.106  0.00  0.00    +0.000 N 
ATOM     10  H   UNL     1       2.347   6.344  19.949  0.00  0.00    +0.000 HD
BRANCH   7  14
ATOM     11  C   UNL     1       0.019  10.317  21.549  0.00  0.00    +0.000 A 
ATOM     12  C   UNL     1       0.713   9.164  21.922  0.00  0.00    +0.000 A 
ATOM     13  C   UNL     1       1.388   8.416  20.953  0.00  0.00    +0.000 A 
ATOM     14  C   UNL     1       1.378   8.803  19.601  0.00  0.00    +0.000 A 
ATOM     15  C   UNL     1       0.664   9.949  19.229  0.00  0.00    +0.000 A 
ATOM     16  C   UNL     1      -0.008  10.702  20.204  0.00  0.00    +0.000 A 
BRANCH  11  18
ATOM     17  N   UNL     1      -1.205  11.744  23.337  0.00  0.00    +0.000 NA
ATOM     18  C   UNL     1      -0.658  11.106  22.540  0.00  0.00    +0.000 C 
ENDBRANCH  11  18
ENDBRANCH   7  14
ENDBRANCH   1   9
BRANCH   3  19
ATOM     19  C   UNL     1       6.872   6.270  16.531  0.00  0.00    +0.000 C 
ATOM     20  O   UNL     1       7.320   7.296  17.014  0.00  0.00    +0.000 OA
BRANCH  19  21
ATOM     21  O   UNL     1       7.499   5.575  15.560  0.00  0.00    +0.000 OA
ATOM     22  H   UNL     1       7.127   4.701  15.355  0.00  0.00    +0.000 HD
ENDBRANCH  19  21
ENDBRANCH   3  19
BRANCH   6  23
ATOM     23  C   UNL     1       1.799   4.088  18.197  0.00  0.00    +0.000 C 
ATOM     24  O   UNL     1       0.984   3.772  17.349  0.00  0.00    +0.000 OA
BRANCH  23  25
ATOM     25  O   UNL     1       1.567   3.993  19.525  0.00  0.00    +0.000 OA
ATOM     26  H   UNL     1       0.890   4.618  19.858  0.00  0.00    +0.000 HD
ENDBRANCH  23  25
ENDBRANCH   6  23
TORSDOF 7
ENDMDL
MODEL 3
REMARK VINA RESULT:      -7.3      0.344      1.189
REMARK  Name = 
REMARK  7 active torsions:
REMARK  status: ('A' for Active; 'I' for Inactive)
REMARK    1  A    between atoms: C_2  and  C_3
REMARK    2  A    between atoms: C_6  and  C_7
REMARK    3  A    between atoms: N_9  and  C_10
REMARK    4  A    between atoms: C_12  and  C_13
REMARK    5  A    between atoms: C_13  and  O_15
REMARK    6  A    between atoms: C_18  and  C_19
REMARK    7  A    between atoms: C_19  and  O_21
REMARK                            x       y       z     vdW  Elec       q    Type
REMARK                         _______ _______ _______ _____ _____    ______ ____
ROOT
ATOM      1  C   UNL     1       3.548   5.427  19.020  0.00  0.00    +0.000 A 
ATOM      2  C   UNL     1       4.941   5.613  18.967  0.00  0.00    +0.000 A 
ATOM      3  C   UNL     1       5.765   4.706  18.285  0.00  0.00    +0.000 A 
ATOM      4  C   UNL     1       5.203   3.583  17.673  0.00  0.00    +0.000 A 
ATOM      5  C   UNL     1       3.819   3.392  17.715  0.00  0.00    +0.000 A 
ATOM      6  C   UNL     1       2.988   4.313  18.376  0.00  0.00    +0.000 A 
ENDROOT
BRANCH   1   9
ATOM      7  C   UNL     1       2.235   7.487  19.123  0.00  0.00    +0.000 C 
ATOM      8  O   UNL     1       2.283   7.643  17.905  0.00  0.00    +0.000 OA
ATOM      9  N   UNL     1       2.752   6.356  19.746  0.00  0.00    +0.000 N 
ATOM     10  H   UNL     1       2.318   6.038  20.607  0.00  0.00    +0.000 HD
BRANCH   7  14
ATOM     11  C   UNL     1       0.100  10.253  21.644  0.00  0.00    +0.000 A 
ATOM     12  C   UNL     1       0.593   9.048  22.149  0.00  0.00    +0.000 A 
ATOM     13  C   UNL     1       1.287   8.174  21.305  0.00  0.00    +0.000 A 
ATOM     14  C   UNL     1       1.496   8.487  19.951  0.00  0.00    +0.000 A 
ATOM     15  C   UNL     1       0.983   9.688  19.446  0.00  0.00    +0.000 A 
ATOM     16  C   UNL     1       0.291  10.566  20.294  0.00  0.00    +0.000 A 
BRANCH  11  18
ATOM     17  N   UNL     1      -1.154  11.907  23.201  0.00  0.00    +0.000 NA
ATOM     18  C   UNL     1      -0.595  11.168  22.507  0.00  0.00    +0.000 C 
ENDBRANCH  11  18
ENDBRANCH   7  14
ENDBRANCH   1   9
BRANCH   3  19
ATOM     19  C   UNL     1       7.232   4.941  18.307  0.00  0.00    +0.000 C 
ATOM     20  O   UNL     1       7.944   4.727  17.339  0.00  0.00    +0.000 OA
BRANCH  19  21
ATOM     21  O   UNL     1       7.706   5.385  19.488  0.00  0.00    +0.000 OA
ATOM     22  H   UNL     1       7.339   4.959  20.282  0.00  0.00    +0.000 HD
ENDBRANCH  19  21
ENDBRANCH   3  19
BRANCH   6  23
ATOM     23  C   UNL     1       1.529   4.081  18.264  0.00  0.00    +0.000 C 
ATOM     24  O   UNL     1       0.925   4.157  17.208  0.00  0.00    +0.000 OA
BRANCH  23  25
ATOM     25  O   UNL     1       0.929   3.833  19.448  0.00  0.00    +0.000 OA
ATOM     26  H   UNL     1       1.543   3.538  20.153  0.00  0.00    +0.000 HD
ENDBRANCH  23  25
ENDBRANCH   6  23
TORSDOF 7
ENDMDL
MODEL 4
REMARK VINA RESULT:      -7.2      0.585      1.329
REMARK  Name = 
REMARK  7 active torsions:
REMARK  status: ('A' for Active; 'I' for Inactive)
REMARK    1  A    between atoms: C_2  and  C_3
REMARK    2  A    between atoms: C_6  and  C_7
REMARK    3  A    between atoms: N_9  and  C_10
REMARK    4  A    between atoms: C_12  and  C_13
REMARK    5  A    between atoms: C_13  and  O_15
REMARK    6  A    between atoms: C_18  and  C_19
REMARK    7  A    between atoms: C_19  and  O_21
REMARK                            x       y       z     vdW  Elec       q    Type
REMARK                         _______ _______ _______ _____ _____    ______ ____
ROOT
ATOM      1  C   UNL     1       3.509   5.525  19.398  0.00  0.00    +0.000 A 
ATOM      2  C   UNL     1       4.876   5.809  19.236  0.00  0.00    +0.000 A 
ATOM      3  C   UNL     1       5.730   4.903  18.590  0.00  0.00    +0.000 A 
ATOM      4  C   UNL     1       5.226   3.684  18.127  0.00  0.00    +0.000 A 
ATOM      5  C   UNL     1       3.868   3.395  18.279  0.00  0.00    +0.000 A 
ATOM      6  C   UNL     1       3.005   4.313  18.903  0.00  0.00    +0.000 A 
ENDROOT
BRANCH   1   9
ATOM      7  C   UNL     1       2.160   7.563  19.420  0.00  0.00    +0.000 C 
ATOM      8  O   UNL     1       2.228   7.686  18.200  0.00  0.00    +0.000 OA
ATOM      9  N   UNL     1       2.684   6.460  20.084  0.00  0.00    +0.000 N 
ATOM     10  H   UNL     1       2.240   6.158  20.946  0.00  0.00    +0.000 HD
BRANCH   7  14
ATOM     11  C   UNL     1      -0.047  10.371  21.832  0.00  0.00    +0.000 A 
ATOM     12  C   UNL     1       0.593   9.271  22.407  0.00  0.00    +0.000 A 
ATOM     13  C   UNL     1       1.306   8.382  21.597  0.00  0.00    +0.000 A 
ATOM     14  C   UNL     1       1.389   8.573  20.206  0.00  0.00    +0.000 A 
ATOM     15  C   UNL     1       0.728   9.667  19.633  0.00  0.00    +0.000 A 
ATOM     16  C   UNL     1       0.018  10.562  20.447  0.00  0.00    +0.000 A 
BRANCH  11  18
ATOM     17  N   UNL     1      -1.339  12.057  23.321  0.00  0.00    +0.000 NA
ATOM     18  C   UNL     1      -0.763  11.304  22.657  0.00  0.00    +0.000 C 
ENDBRANCH  11  18
ENDBRANCH   7  14
ENDBRANCH   1   9
BRANCH   3  19
ATOM     19  C   UNL     1       7.172   5.249  18.491  0.00  0.00    +0.000 C 
ATOM     20  O   UNL     1       7.897   5.318  19.469  0.00  0.00    +0.000 OA
BRANCH  19  21
ATOM     21  O   UNL     1       7.598   5.500  17.236  0.00  0.00    +0.000 OA
ATOM     22  H   UNL     1       7.582   4.746  16.622  0.00  0.00    +0.000 HD
ENDBRANCH  19  21
ENDBRANCH   3  19
BRANCH   6  23
ATOM     23  C   UNL     1       1.565   3.961  18.911  0.00  0.00    +0.000 C 
ATOM     24  O   UNL     1       0.874   4.022  19.912  0.00  0.00    +0.000 OA
BRANCH  23  25
ATOM     25  O   UNL     1       1.111   3.518  17.718  0.00  0.00    +0.000 OA
ATOM     26  H   UNL     1       1.764   2.990  17.214  0.00  0.00    +0.000 HD
ENDBRANCH  23  25
ENDBRANCH   6  23
TORSDOF 7
ENDMDL
MODEL 5
REMARK VINA RESULT:      -7.2      1.371      1.943
REMARK  Name = 
REMARK  7 active torsions:
REMARK  status: ('A' for Active; 'I' for Inactive)
REMARK    1  A    between atoms: C_2  and  C_3
REMARK    2  A    between atoms: C_6  and  C_7
REMARK    3  A    between atoms: N_9  and  C_10
REMARK    4  A    between atoms: C_12  and  C_13
REMARK    5  A    between atoms: C_13  and  O_15
REMARK    6  A    between atoms: C_18  and  C_19
REMARK    7  A    between atoms: C_19  and  O_21
REMARK                            x       y       z     vdW  Elec       q    Type
REMARK                         _______ _______ _______ _____ _____    ______ ____
ROOT
ATOM      1  C   UNL     1       3.107   5.196  20.057  0.00  0.00    +0.000 A 
ATOM      2  C   UNL     1       4.220   5.500  19.254  0.00  0.00    +0.000 A 
ATOM      3  C   UNL     1       5.016   4.482  18.708  0.00  0.00    +0.000 A 
ATOM      4  C   UNL     1       4.719   3.145  18.987  0.00  0.00    +0.000 A 
ATOM      5  C   UNL     1       3.611   2.833  19.779  0.00  0.00    +0.000 A 
ATOM      6  C   UNL     1       2.798   3.851  20.307  0.00  0.00    +0.000 A 
ENDROOT
BRANCH   1   9
ATOM      7  C   UNL     1       2.004   7.368  19.845  0.00  0.00    +0.000 C 
ATOM      8  O   UNL     1       2.180   7.400  18.630  0.00  0.00    +0.000 OA
ATOM      9  N   UNL     1       2.344   6.261  20.614  0.00  0.00    +0.000 N 
ATOM     10  H   UNL     1       1.802   6.069  21.451  0.00  0.00    +0.000 HD
BRANCH   7  14
ATOM     11  C   UNL     1      -0.039  10.561  21.894  0.00  0.00    +0.000 A 
ATOM     12  C   UNL     1       0.472   9.465  22.592  0.00  0.00    +0.000 A 
ATOM     13  C   UNL     1       1.135   8.448  21.898  0.00  0.00    +0.000 A 
ATOM     14  C   UNL     1       1.295   8.507  20.503  0.00  0.00    +0.000 A 
ATOM     15  C   UNL     1       0.763   9.599  19.806  0.00  0.00    +0.000 A 
ATOM     16  C   UNL     1       0.103  10.622  20.504  0.00  0.00    +0.000 A 
BRANCH  11  18
ATOM     17  N   UNL     1      -1.236  12.479  23.167  0.00  0.00    +0.000 NA
ATOM     18  C   UNL     1      -0.702  11.622  22.601  0.00  0.00    +0.000 C 
ENDBRANCH  11  18
ENDBRANCH   7  14
ENDBRANCH   1   9
BRANCH   3  19
ATOM     19  C   UNL     1       6.202   4.875  17.904  0.00  0.00    +0.000 C 
ATOM     20  O   UNL     1       6.139   5.693  17.002  0.00  0.00    +0.000 OA
BRANCH  19  21
ATOM     21  O   UNL     1       7.339   4.236  18.243  0.00  0.00    +0.000 OA
ATOM     22  H   UNL     1       7.963   4.062  17.518  0.00  0.00    +0.000 HD
ENDBRANCH  19  21
ENDBRANCH   3  19
BRANCH   6  23
ATOM     23  C   UNL     1       1.584   3.412  21.036  0.00  0.00    +0.000 C 
ATOM     24  O   UNL     1       1.629   2.813  22.095  0.00  0.00    +0.000 OA
BRANCH  23  25
ATOM     25  O   UNL     1       0.433   3.693  20.387  0.00  0.00    +0.000 OA
ATOM     26  H   UNL     1      -0.282   4.025  20.968  0.00  0.00    +0.000 HD
ENDBRANCH  23  25
ENDBRANCH   6  23
TORSDOF 7
ENDMDL
MODEL 6
REMARK VINA RESULT:      -7.0      1.316      1.709
REMARK  Name = 
REMARK  7 active torsions:
REMARK  status: ('A' for Active; 'I' for Inactive)
REMARK    1  A    between atoms: C_2  and  C_3
REMARK    2  A    between atoms: C_6  and  C_7
REMARK    3  A    between atoms: N_9  and  C_10
REMARK    4  A    between atoms: C_12  and  C_13
REMARK    5  A    between atoms: C_13  and  O_15
REMARK    6  A    between atoms: C_18  and  C_19
REMARK    7  A    between atoms: C_19  and  O_21
REMARK                            x       y       z     vdW  Elec       q    Type
REMARK                         _______ _______ _______ _____ _____    ______ ____
ROOT
ATOM      1  C   UNL     1       3.654   5.555  17.569  0.00  0.00    +0.000 A 
ATOM      2  C   UNL     1       4.993   5.715  17.173  0.00  0.00    +0.000 A 
ATOM      3  C   UNL     1       5.759   4.615  16.758  0.00  0.00    +0.000 A 
ATOM      4  C   UNL     1       5.196   3.336  16.766  0.00  0.00    +0.000 A 
ATOM      5  C   UNL     1       3.864   3.168  17.152  0.00  0.00    +0.000 A 
ATOM      6  C   UNL     1       3.087   4.272  17.545  0.00  0.00    +0.000 A 
ENDROOT
BRANCH   1   9
ATOM      7  C   UNL     1       2.615   6.863  19.355  0.00  0.00    +0.000 C 
ATOM      8  O   UNL     1       3.104   6.155  20.232  0.00  0.00    +0.000 OA
ATOM      9  N   UNL     1       2.922   6.693  18.010  0.00  0.00    +0.000 N 
ATOM     10  H   UNL     1       2.900   7.507  17.403  0.00  0.00    +0.000 HD
BRANCH   7  14
ATOM     11  C   UNL     1       0.091  10.103  20.659  0.00  0.00    +0.000 A 
ATOM     12  C   UNL     1       0.399   9.039  21.509  0.00  0.00    +0.000 A 
ATOM     13  C   UNL     1       1.226   8.006  21.058  0.00  0.00    +0.000 A 
ATOM     14  C   UNL     1       1.754   8.016  19.755  0.00  0.00    +0.000 A 
ATOM     15  C   UNL     1       1.426   9.076  18.900  0.00  0.00    +0.000 A 
ATOM     16  C   UNL     1       0.601  10.115  19.356  0.00  0.00    +0.000 A 
BRANCH  11  18
ATOM     17  N   UNL     1      -1.410  12.048  21.493  0.00  0.00    +0.000 NA
ATOM     18  C   UNL     1      -0.739  11.181  21.121  0.00  0.00    +0.000 C 
ENDBRANCH  11  18
ENDBRANCH   7  14
ENDBRANCH   1   9
BRANCH   3  19
ATOM     19  C   UNL     1       7.180   4.849  16.394  0.00  0.00    +0.000 C 
ATOM     20  O   UNL     1       7.508   5.586  15.479  0.00  0.00    +0.000 OA
BRANCH  19  21
ATOM     21  O   UNL     1       8.066   4.163  17.144  0.00  0.00    +0.000 OA
ATOM     22  H   UNL     1       8.565   4.684  17.796  0.00  0.00    +0.000 HD
ENDBRANCH  19  21
ENDBRANCH   3  19
BRANCH   6  23
ATOM     23  C   UNL     1       1.657   4.003  17.825  0.00  0.00    +0.000 C 
ATOM     24  O   UNL     1       0.759   4.361  17.084  0.00  0.00    +0.000 OA
BRANCH  23  25
ATOM     25  O   UNL     1       1.446   3.375  19.002  0.00  0.00    +0.000 OA
ATOM     26  H   UNL     1       1.914   2.519  19.087  0.00  0.00    +0.000 HD
ENDBRANCH  23  25
ENDBRANCH   6  23
TORSDOF 7
ENDMDL
MODEL 7
REMARK VINA RESULT:      -7.0      1.325      1.479
REMARK  Name = 
REMARK  7 active torsions:
REMARK  status: ('A' for Active; 'I' for Inactive)
REMARK    1  A    between atoms: C_2  and  C_3
REMARK    2  A    between atoms: C_6  and  C_7
REMARK    3  A    between atoms: N_9  and  C_10
REMARK    4  A    between atoms: C_12  and  C_13
REMARK    5  A    between atoms: C_13  and  O_15
REMARK    6  A    between atoms: C_18  and  C_19
REMARK    7  A    between atoms: C_19  and  O_21
REMARK                            x       y       z     vdW  Elec       q    Type
REMARK                         _______ _______ _______ _____ _____    ______ ____
ROOT
ATOM      1  C   UNL     1       3.646   5.580  17.666  0.00  0.00    +0.000 A 
ATOM      2  C   UNL     1       4.994   5.720  17.294  0.00  0.00    +0.000 A 
ATOM      3  C   UNL     1       5.741   4.615  16.859  0.00  0.00    +0.000 A 
ATOM      4  C   UNL     1       5.150   3.349  16.824  0.00  0.00    +0.000 A 
ATOM      5  C   UNL     1       3.810   3.201  17.187  0.00  0.00    +0.000 A 
ATOM      6  C   UNL     1       3.051   4.311  17.599  0.00  0.00    +0.000 A 
ENDROOT
BRANCH   1   9
ATOM      7  C   UNL     1       2.537   6.823  19.457  0.00  0.00    +0.000 C 
ATOM      8  O   UNL     1       2.931   6.040  20.318  0.00  0.00    +0.000 OA
ATOM      9  N   UNL     1       2.933   6.722  18.127  0.00  0.00    +0.000 N 
ATOM     10  H   UNL     1       2.989   7.572  17.575  0.00  0.00    +0.000 HD
BRANCH   7  14
ATOM     11  C   UNL     1       0.162  10.266  20.491  0.00  0.00    +0.000 A 
ATOM     12  C   UNL     1       0.717  10.127  19.218  0.00  0.00    +0.000 A 
ATOM     13  C   UNL     1       1.478   8.995  18.912  0.00  0.00    +0.000 A 
ATOM     14  C   UNL     1       1.699   7.989  19.869  0.00  0.00    +0.000 A 
ATOM     15  C   UNL     1       1.157   8.143  21.151  0.00  0.00    +0.000 A 
ATOM     16  C   UNL     1       0.389   9.277  21.455  0.00  0.00    +0.000 A 
BRANCH  11  18
ATOM     17  N   UNL     1      -1.287  12.341  21.063  0.00  0.00    +0.000 NA
ATOM     18  C   UNL     1      -0.641  11.415  20.809  0.00  0.00    +0.000 C 
ENDBRANCH  11  18
ENDBRANCH   7  14
ENDBRANCH   1   9
BRANCH   3  19
ATOM     19  C   UNL     1       7.172   4.827  16.522  0.00  0.00    +0.000 C 
ATOM     20  O   UNL     1       8.076   4.258  17.112  0.00  0.00    +0.000 OA
BRANCH  19  21
ATOM     21  O   UNL     1       7.383   5.715  15.529  0.00  0.00    +0.000 OA
ATOM     22  H   UNL     1       7.091   5.439  14.643  0.00  0.00    +0.000 HD
ENDBRANCH  19  21
ENDBRANCH   3  19
BRANCH   6  23
ATOM     23  C   UNL     1       1.611   4.067  17.851  0.00  0.00    +0.000 C 
ATOM     24  O   UNL     1       0.741   4.355  17.050  0.00  0.00    +0.000 OA
BRANCH  23  25
ATOM     25  O   UNL     1       1.357   3.548  19.072  0.00  0.00    +0.000 OA
ATOM     26  H   UNL     1       1.590   4.143  19.815  0.00  0.00    +0.000 HD
ENDBRANCH  23  25
ENDBRANCH   6  23
TORSDOF 7
ENDMDL
MODEL 8
REMARK VINA RESULT:      -6.9      2.474      4.036
REMARK  Name = 
REMARK  7 active torsions:
REMARK  status: ('A' for Active; 'I' for Inactive)
REMARK    1  A    between atoms: C_2  and  C_3
REMARK    2  A    between atoms: C_6  and  C_7
REMARK    3  A    between atoms: N_9  and  C_10
REMARK    4  A    between atoms: C_12  and  C_13
REMARK    5  A    between atoms: C_13  and  O_15
REMARK    6  A    between atoms: C_18  and  C_19
REMARK    7  A    between atoms: C_19  and  O_21
REMARK                            x       y       z     vdW  Elec       q    Type
REMARK                         _______ _______ _______ _____ _____    ______ ____
ROOT
ATOM      1  C   UNL     1       5.588   5.922  16.846  0.00  0.00    +0.000 A 
ATOM      2  C   UNL     1       5.340   5.492  15.531  0.00  0.00    +0.000 A 
ATOM      3  C   UNL     1       6.181   4.559  14.906  0.00  0.00    +0.000 A 
ATOM      4  C   UNL     1       7.299   4.069  15.587  0.00  0.00    +0.000 A 
ATOM      5  C   UNL     1       7.550   4.485  16.896  0.00  0.00    +0.000 A 
ATOM      6  C   UNL     1       6.695   5.402  17.533  0.00  0.00    +0.000 A 
ENDROOT
BRANCH   1   9
ATOM      7  C   UNL     1       3.510   6.514  17.990  0.00  0.00    +0.000 C 
ATOM      8  O   UNL     1       3.208   5.336  18.167  0.00  0.00    +0.000 OA
ATOM      9  N   UNL     1       4.726   6.891  17.432  0.00  0.00    +0.000 N 
ATOM     10  H   UNL     1       5.131   7.780  17.711  0.00  0.00    +0.000 HD
BRANCH   7  14
ATOM     11  C   UNL     1       0.839   9.489  19.598  0.00  0.00    +0.000 A 
ATOM     12  C   UNL     1       1.288   8.422  20.380  0.00  0.00    +0.000 A 
ATOM     13  C   UNL     1       2.159   7.477  19.829  0.00  0.00    +0.000 A 
ATOM     14  C   UNL     1       2.592   7.579  18.496  0.00  0.00    +0.000 A 
ATOM     15  C   UNL     1       2.123   8.640  17.711  0.00  0.00    +0.000 A 
ATOM     16  C   UNL     1       1.254   9.591  18.266  0.00  0.00    +0.000 A 
BRANCH  11  18
ATOM     17  N   UNL     1      -0.742  11.277  20.615  0.00  0.00    +0.000 NA
ATOM     18  C   UNL     1      -0.038  10.479  20.161  0.00  0.00    +0.000 C 
ENDBRANCH  11  18
ENDBRANCH   7  14
ENDBRANCH   1   9
BRANCH   3  19
ATOM     19  C   UNL     1       5.886   4.182  13.500  0.00  0.00    +0.000 C 
ATOM     20  O   UNL     1       4.785   3.795  13.144  0.00  0.00    +0.000 OA
BRANCH  19  21
ATOM     21  O   UNL     1       6.939   4.282  12.665  0.00  0.00    +0.000 OA
ATOM     22  H   UNL     1       7.343   3.442  12.386  0.00  0.00    +0.000 HD
ENDBRANCH  19  21
ENDBRANCH   3  19
BRANCH   6  23
ATOM     23  C   UNL     1       6.983   5.690  18.958  0.00  0.00    +0.000 C 
ATOM     24  O   UNL     1       6.268   5.312  19.868  0.00  0.00    +0.000 OA
BRANCH  23  25
ATOM     25  O   UNL     1       8.082   6.455  19.143  0.00  0.00    +0.000 OA
ATOM     26  H   UNL     1       8.572   6.656  18.318  0.00  0.00    +0.000 HD
ENDBRANCH  23  25
ENDBRANCH   6  23
TORSDOF 7
ENDMDL
MODEL 9
REMARK VINA RESULT:      -6.8      3.506      8.272
REMARK  Name = 
REMARK  7 active torsions:
REMARK  status: ('A' for Active; 'I' for Inactive)
REMARK    1  A    between atoms: C_2  and  C_3
REMARK    2  A    between atoms: C_6  and  C_7
REMARK    3  A    between atoms: N_9  and  C_10
REMARK    4  A    between atoms: C_12  and  C_13
REMARK    5  A    between atoms: C_13  and  O_15
REMARK    6  A    between atoms: C_18  and  C_19
REMARK    7  A    between atoms: C_19  and  O_21
REMARK                            x       y       z     vdW  Elec       q    Type
REMARK                         _______ _______ _______ _____ _____    ______ ____
ROOT
ATOM      1  C   UNL     1      -0.059  10.225  19.024  0.00  0.00    +0.000 A 
ATOM      2  C   UNL     1      -0.976  10.200  17.960  0.00  0.00    +0.000 A 
ATOM      3  C   UNL     1      -1.848  11.276  17.733  0.00  0.00    +0.000 A 
ATOM      4  C   UNL     1      -1.828  12.378  18.592  0.00  0.00    +0.000 A 
ATOM      5  C   UNL     1      -0.915  12.415  19.649  0.00  0.00    +0.000 A 
ATOM      6  C   UNL     1      -0.023  11.349  19.864  0.00  0.00    +0.000 A 
ENDROOT
BRANCH   1   9
ATOM      7  C   UNL     1       1.771   8.769  18.310  0.00  0.00    +0.000 C 
ATOM      8  O   UNL     1       2.073   9.514  17.380  0.00  0.00    +0.000 OA
ATOM      9  N   UNL     1       0.788   9.101  19.235  0.00  0.00    +0.000 N 
ATOM     10  H   UNL     1       0.875   8.744  20.182  0.00  0.00    +0.000 HD
BRANCH   7  14
ATOM     11  C   UNL     1       3.978   5.150  19.081  0.00  0.00    +0.000 A 
ATOM     12  C   UNL     1       2.968   5.578  19.945  0.00  0.00    +0.000 A 
ATOM     13  C   UNL     1       2.267   6.754  19.663  0.00  0.00    +0.000 A 
ATOM     14  C   UNL     1       2.562   7.519  18.521  0.00  0.00    +0.000 A 
ATOM     15  C   UNL     1       3.589   7.095  17.669  0.00  0.00    +0.000 A 
ATOM     16  C   UNL     1       4.289   5.912  17.949  0.00  0.00    +0.000 A 
BRANCH  11  18
ATOM     17  N   UNL     1       5.265   2.949  19.566  0.00  0.00    +0.000 NA
ATOM     18  C   UNL     1       4.690   3.930  19.349  0.00  0.00    +0.000 C 
ENDBRANCH  11  18
ENDBRANCH   7  14
ENDBRANCH   1   9
BRANCH   3  19
ATOM     19  C   UNL     1      -2.822  11.164  16.616  0.00  0.00    +0.000 C 
ATOM     20  O   UNL     1      -2.646  10.418  15.667  0.00  0.00    +0.000 OA
BRANCH  19  21
ATOM     21  O   UNL     1      -3.896  11.970  16.733  0.00  0.00    +0.000 OA
ATOM     22  H   UNL     1      -4.553  11.910  16.019  0.00  0.00    +0.000 HD
ENDBRANCH  19  21
ENDBRANCH   3  19
BRANCH   6  23
ATOM     23  C   UNL     1       0.979  11.537  20.938  0.00  0.00    +0.000 C 
ATOM     24  O   UNL     1       1.708  12.510  21.002  0.00  0.00    +0.000 OA
BRANCH  23  25
ATOM     25  O   UNL     1       1.043  10.502  21.805  0.00  0.00    +0.000 OA
ATOM     26  H   UNL     1       0.290   9.877  21.737  0.00  0.00    +0.000 HD
ENDBRANCH  23  25
ENDBRANCH   6  23
TORSDOF 7
ENDMDL
