MODEL 1
REMARK VINA RESULT:      -7.9      0.000      0.000
REMARK  Name = 
REMARK  8 active torsions:
REMARK  status: ('A' for Active; 'I' for Inactive)
REMARK    1  A    between atoms: C_1  and  C_2
REMARK    2  A    between atoms: C_5  and  C_6
REMARK    3  A    between atoms: C_7  and  C_8
REMARK    4  A    between atoms: C_8  and  S_9
REMARK    5  A    between atoms: S_9  and  C_10
REMARK    6  A    between atoms: C_12  and  C_13
REMARK    7  A    between atoms: N_16  and  C_17
REMARK    8  A    between atoms: C_20  and  C_21
REMARK                            x       y       z     vdW  Elec       q    Type
REMARK                         _______ _______ _______ _____ _____    ______ ____
ROOT
ATOM      1  C   UNL     1       2.573   6.789  19.329  0.00  0.00    +0.000 A 
ATOM      2  N   UNL     1       3.506   6.408  18.528  0.00  0.00    +0.000 NA
ATOM      3  C   UNL     1       4.066   5.153  18.720  0.00  0.00    +0.000 A 
ATOM      4  C   UNL     1       3.689   4.310  19.706  0.00  0.00    +0.000 A 
ATOM      5  C   UNL     1       2.614   4.773  20.612  0.00  0.00    +0.000 A 
ATOM      6  O   UNL     1       2.182   4.090  21.535  0.00  0.00    +0.000 OA
ATOM      7  N   UNL     1       2.115   6.020  20.355  0.00  0.00    +0.000 N 
ATOM      8  H   UNL     1       1.385   6.364  20.959  0.00  0.00    +0.000 HD
ENDROOT
BRANCH   3   9
ATOM      9  C   UNL     1       5.150   4.805  17.696  0.00  0.00    +0.000 C 
ATOM     10  C   UNL     1       6.045   6.015  17.388  0.00  0.00    +0.000 C 
ATOM     11  C   UNL     1       7.049   5.695  16.283  0.00  0.00    +0.000 C 
ATOM     12  N   UNL     1       6.371   5.215  15.072  0.00  0.00    +0.000 NA
ATOM     13  C   UNL     1       7.351   4.958  14.016  0.00  0.00    +0.000 C 
ATOM     14  C   UNL     1       5.585   4.003  15.339  0.00  0.00    +0.000 C 
ATOM     15  C   UNL     1       4.522   4.258  16.406  0.00  0.00    +0.000 C 
ENDBRANCH   3   9
BRANCH   4  16
ATOM     16  C   UNL     1       4.243   3.012  19.913  0.00  0.00    +0.000 C 
ATOM     17  N   UNL     1       4.733   1.972  20.056  0.00  0.00    +0.000 NA
ENDBRANCH   4  16
BRANCH   1  18
ATOM     18  S   UNL     1       1.798   8.343  19.230  0.00  0.00    +0.000 S 
BRANCH  18  19
ATOM     19  C   UNL     1       1.022   8.509  20.878  0.00  0.00    +0.000 C 
BRANCH  19  26
ATOM     20  C   UNL     1      -1.297  12.355  18.565  0.00  0.00    +0.000 C 
ATOM     21  C   UNL     1      -0.977  11.629  19.840  0.00  0.00    +0.000 A 
ATOM     22  C   UNL     1      -1.472  12.078  21.064  0.00  0.00    +0.000 A 
ATOM     23  C   UNL     1      -1.162  11.387  22.236  0.00  0.00    +0.000 A 
ATOM     24  C   UNL     1      -0.357  10.231  22.210  0.00  0.00    +0.000 A 
ATOM     25  C   UNL     1      -0.053   9.538  23.509  0.00  0.00    +0.000 C 
ATOM     26  C   UNL     1       0.150   9.759  20.978  0.00  0.00    +0.000 A 
ATOM     27  C   UNL     1      -0.173  10.477  19.807  0.00  0.00    +0.000 A 
ENDBRANCH  19  26
ENDBRANCH  18  19
ENDBRANCH   1  18
TORSDOF 5
ENDMDL
MODEL 2
REMARK VINA RESULT:      -7.5      1.372      1.898
REMARK  Name = 
REMARK  8 active torsions:
REMARK  status: ('A' for Active; 'I' for Inactive)
REMARK    1  A    between atoms: C_1  and  C_2
REMARK    2  A    between atoms: C_5  and  C_6
REMARK    3  A    between atoms: C_7  and  C_8
REMARK    4  A    between atoms: C_8  and  S_9
REMARK    5  A    between atoms: S_9  and  C_10
REMARK    6  A    between atoms: C_12  and  C_13
REMARK    7  A    between atoms: N_16  and  C_17
REMARK    8  A    between atoms: C_20  and  C_21
REMARK                            x       y       z     vdW  Elec       q    Type
REMARK                         _______ _______ _______ _____ _____    ______ ____
ROOT
ATOM      1  C   UNL     1       2.510   7.710  18.498  0.00  0.00    +0.000 A 
ATOM      2  N   UNL     1       3.472   7.156  17.847  0.00  0.00    +0.000 NA
ATOM      3  C   UNL     1       3.884   5.889  18.236  0.00  0.00    +0.000 A 
ATOM      4  C   UNL     1       3.334   5.207  19.264  0.00  0.00    +0.000 A 
ATOM      5  C   UNL     1       2.230   5.869  19.994  0.00  0.00    +0.000 A 
ATOM      6  O   UNL     1       1.647   5.342  20.938  0.00  0.00    +0.000 OA
ATOM      7  N   UNL     1       1.883   7.113  19.550  0.00  0.00    +0.000 N 
ATOM      8  H   UNL     1       1.138   7.591  20.032  0.00  0.00    +0.000 HD
ENDROOT
BRANCH   3   9
ATOM      9  C   UNL     1       5.020   5.326  17.376  0.00  0.00    +0.000 C 
ATOM     10  C   UNL     1       5.994   6.430  16.936  0.00  0.00    +0.000 C 
ATOM     11  C   UNL     1       7.057   5.883  15.985  0.00  0.00    +0.000 C 
ATOM     12  N   UNL     1       6.445   5.222  14.826  0.00  0.00    +0.000 NA
ATOM     13  C   UNL     1       7.484   4.748  13.911  0.00  0.00    +0.000 C 
ATOM     14  C   UNL     1       5.582   4.107  15.235  0.00  0.00    +0.000 C 
ATOM     15  C   UNL     1       4.459   4.584  16.154  0.00  0.00    +0.000 C 
ENDBRANCH   3   9
BRANCH   4  16
ATOM     16  C   UNL     1       3.735   3.899  19.671  0.00  0.00    +0.000 C 
ATOM     17  N   UNL     1       4.102   2.844  19.976  0.00  0.00    +0.000 NA
ENDBRANCH   4  16
BRANCH   1  18
ATOM     18  S   UNL     1       1.906   9.303  18.147  0.00  0.00    +0.000 S 
BRANCH  18  19
ATOM     19  C   UNL     1       0.717   9.590  19.506  0.00  0.00    +0.000 C 
BRANCH  19  26
ATOM     20  C   UNL     1      -2.846  10.087  15.961  0.00  0.00    +0.000 C 
ATOM     21  C   UNL     1      -2.287  10.515  17.287  0.00  0.00    +0.000 A 
ATOM     22  C   UNL     1      -2.917  11.501  18.047  0.00  0.00    +0.000 A 
ATOM     23  C   UNL     1      -2.378  11.883  19.276  0.00  0.00    +0.000 A 
ATOM     24  C   UNL     1      -1.204  11.286  19.774  0.00  0.00    +0.000 A 
ATOM     25  C   UNL     1      -0.671  11.749  21.102  0.00  0.00    +0.000 C 
ATOM     26  C   UNL     1      -0.554  10.283  19.021  0.00  0.00    +0.000 A 
ATOM     27  C   UNL     1      -1.114   9.917  17.779  0.00  0.00    +0.000 A 
ENDBRANCH  19  26
ENDBRANCH  18  19
ENDBRANCH   1  18
TORSDOF 5
ENDMDL
MODEL 3
REMARK VINA RESULT:      -7.3      3.721      5.099
REMARK  Name = 
REMARK  8 active torsions:
REMARK  status: ('A' for Active; 'I' for Inactive)
REMARK    1  A    between atoms: C_1  and  C_2
REMARK    2  A    between atoms: C_5  and  C_6
REMARK    3  A    between atoms: C_7  and  C_8
REMARK    4  A    between atoms: C_8  and  S_9
REMARK    5  A    between atoms: S_9  and  C_10
REMARK    6  A    between atoms: C_12  and  C_13
REMARK    7  A    between atoms: N_16  and  C_17
REMARK    8  A    between atoms: C_20  and  C_21
REMARK                            x       y       z     vdW  Elec       q    Type
REMARK                         _______ _______ _______ _____ _____    ______ ____
ROOT
ATOM      1  C   UNL     1       4.566   3.080  18.023  0.00  0.00    +0.000 A 
ATOM      2  N   UNL     1       4.792   3.414  16.800  0.00  0.00    +0.000 NA
ATOM      3  C   UNL     1       5.655   4.473  16.557  0.00  0.00    +0.000 A 
ATOM      4  C   UNL     1       6.268   5.178  17.534  0.00  0.00    +0.000 A 
ATOM      5  C   UNL     1       5.990   4.771  18.929  0.00  0.00    +0.000 A 
ATOM      6  O   UNL     1       6.496   5.330  19.898  0.00  0.00    +0.000 OA
ATOM      7  N   UNL     1       5.131   3.720  19.084  0.00  0.00    +0.000 N 
ATOM      8  H   UNL     1       4.918   3.425  20.024  0.00  0.00    +0.000 HD
ENDROOT
BRANCH   3   9
ATOM      9  C   UNL     1       5.861   4.763  15.068  0.00  0.00    +0.000 C 
ATOM     10  C   UNL     1       5.125   3.741  14.187  0.00  0.00    +0.000 C 
ATOM     11  C   UNL     1       5.427   3.966  12.706  0.00  0.00    +0.000 C 
ATOM     12  N   UNL     1       6.873   3.945  12.450  0.00  0.00    +0.000 NA
ATOM     13  C   UNL     1       7.132   4.118  11.020  0.00  0.00    +0.000 C 
ATOM     14  C   UNL     1       7.572   4.981  13.221  0.00  0.00    +0.000 C 
ATOM     15  C   UNL     1       7.356   4.794  14.721  0.00  0.00    +0.000 C 
ENDBRANCH   3   9
BRANCH   4  16
ATOM     16  C   UNL     1       7.167   6.261  17.304  0.00  0.00    +0.000 C 
ATOM     17  N   UNL     1       7.859   7.171  17.117  0.00  0.00    +0.000 NA
ENDBRANCH   4  16
BRANCH   1  18
ATOM     18  S   UNL     1       3.488   1.796  18.483  0.00  0.00    +0.000 S 
BRANCH  18  19
ATOM     19  C   UNL     1       1.849   2.605  18.418  0.00  0.00    +0.000 C 
BRANCH  19  26
ATOM     20  C   UNL     1       2.442   7.589  17.851  0.00  0.00    +0.000 C 
ATOM     21  C   UNL     1       2.160   6.425  18.756  0.00  0.00    +0.000 A 
ATOM     22  C   UNL     1       1.915   6.617  20.116  0.00  0.00    +0.000 A 
ATOM     23  C   UNL     1       1.655   5.520  20.938  0.00  0.00    +0.000 A 
ATOM     24  C   UNL     1       1.629   4.211  20.421  0.00  0.00    +0.000 A 
ATOM     25  C   UNL     1       1.351   3.071  21.363  0.00  0.00    +0.000 C 
ATOM     26  C   UNL     1       1.871   3.997  19.045  0.00  0.00    +0.000 A 
ATOM     27  C   UNL     1       2.136   5.120  18.234  0.00  0.00    +0.000 A 
ENDBRANCH  19  26
ENDBRANCH  18  19
ENDBRANCH   1  18
TORSDOF 5
ENDMDL
MODEL 4
REMARK VINA RESULT:      -7.3      1.848      2.100
REMARK  Name = 
REMARK  8 active torsions:
REMARK  status: ('A' for Active; 'I' for Inactive)
REMARK    1  A    between atoms: C_1  and  C_2
REMARK    2  A    between atoms: C_5  and  C_6
REMARK    3  A    between atoms: C_7  and  C_8
REMARK    4  A    between atoms: C_8  and  S_9
REMARK    5  A    between atoms: S_9  and  C_10
REMARK    6  A    between atoms: C_12  and  C_13
REMARK    7  A    between atoms: N_16  and  C_17
REMARK    8  A    between atoms: C_20  and  C_21
REMARK                            x       y       z     vdW  Elec       q    Type
REMARK                         _______ _______ _______ _____ _____    ______ ____
ROOT
ATOM      1  C   UNL     1       2.273   6.801  20.044  0.00  0.00    +0.000 A 
ATOM      2  N   UNL     1       3.216   6.549  19.205  0.00  0.00    +0.000 NA
ATOM      3  C   UNL     1       3.720   5.257  19.152  0.00  0.00    +0.000 A 
ATOM      4  C   UNL     1       3.278   4.250  19.937  0.00  0.00    +0.000 A 
ATOM      5  C   UNL     1       2.194   4.569  20.891  0.00  0.00    +0.000 A 
ATOM      6  O   UNL     1       1.706   3.733  21.647  0.00  0.00    +0.000 OA
ATOM      7  N   UNL     1       1.753   5.862  20.882  0.00  0.00    +0.000 N 
ATOM      8  H   UNL     1       1.018   6.110  21.526  0.00  0.00    +0.000 HD
ENDROOT
BRANCH   3   9
ATOM      9  C   UNL     1       4.822   5.075  18.104  0.00  0.00    +0.000 C 
ATOM     10  C   UNL     1       5.248   6.419  17.494  0.00  0.00    +0.000 C 
ATOM     11  C   UNL     1       6.263   6.220  16.369  0.00  0.00    +0.000 C 
ATOM     12  N   UNL     1       5.744   5.310  15.340  0.00  0.00    +0.000 NA
ATOM     13  C   UNL     1       6.717   5.172  14.255  0.00  0.00    +0.000 C 
ATOM     14  C   UNL     1       5.420   3.992  15.900  0.00  0.00    +0.000 C 
ATOM     15  C   UNL     1       4.370   4.103  17.004  0.00  0.00    +0.000 C 
ENDBRANCH   3   9
BRANCH   4  16
ATOM     16  C   UNL     1       3.774   2.913  19.888  0.00  0.00    +0.000 C 
ATOM     17  N   UNL     1       4.186   1.834  19.801  0.00  0.00    +0.000 NA
ENDBRANCH   4  16
BRANCH   1  18
ATOM     18  S   UNL     1       1.564   8.376  20.245  0.00  0.00    +0.000 S 
BRANCH  18  19
ATOM     19  C   UNL     1       1.553   9.032  18.538  0.00  0.00    +0.000 C 
BRANCH  19  26
ATOM     20  C   UNL     1      -3.133   9.887  16.856  0.00  0.00    +0.000 C 
ATOM     21  C   UNL     1      -1.879  10.419  17.486  0.00  0.00    +0.000 A 
ATOM     22  C   UNL     1      -1.776  11.760  17.856  0.00  0.00    +0.000 A 
ATOM     23  C   UNL     1      -0.600  12.233  18.440  0.00  0.00    +0.000 A 
ATOM     24  C   UNL     1       0.495  11.377  18.672  0.00  0.00    +0.000 A 
ATOM     25  C   UNL     1       1.736  11.952  19.297  0.00  0.00    +0.000 C 
ATOM     26  C   UNL     1       0.408  10.015  18.308  0.00  0.00    +0.000 A 
ATOM     27  C   UNL     1      -0.789   9.561  17.714  0.00  0.00    +0.000 A 
ENDBRANCH  19  26
ENDBRANCH  18  19
ENDBRANCH   1  18
TORSDOF 5
ENDMDL
MODEL 5
REMARK VINA RESULT:      -7.3      3.812      9.459
REMARK  Name = 
REMARK  8 active torsions:
REMARK  status: ('A' for Active; 'I' for Inactive)
REMARK    1  A    between atoms: C_1  and  C_2
REMARK    2  A    between atoms: C_5  and  C_6
REMARK    3  A    between atoms: C_7  and  C_8
REMARK    4  A    between atoms: C_8  and  S_9
REMARK    5  A    between atoms: S_9  and  C_10
REMARK    6  A    between atoms: C_12  and  C_13
REMARK    7  A    between atoms: N_16  and  C_17
REMARK    8  A    between atoms: C_20  and  C_21
REMARK                            x       y       z     vdW  Elec       q    Type
REMARK                         _______ _______ _______ _____ _____    ______ ____
ROOT
ATOM      1  C   UNL     1       0.240  10.183  18.379  0.00  0.00    +0.000 A 
ATOM      2  N   UNL     1      -0.148  10.918  19.363  0.00  0.00    +0.000 NA
ATOM      3  C   UNL     1      -1.463  11.359  19.374  0.00  0.00    +0.000 A 
ATOM      4  C   UNL     1      -2.359  11.064  18.407  0.00  0.00    +0.000 A 
ATOM      5  C   UNL     1      -1.886  10.217  17.289  0.00  0.00    +0.000 A 
ATOM      6  O   UNL     1      -2.612   9.876  16.360  0.00  0.00    +0.000 OA
ATOM      7  N   UNL     1      -0.579   9.824  17.352  0.00  0.00    +0.000 N 
ATOM      8  H   UNL     1      -0.227   9.250  16.601  0.00  0.00    +0.000 HD
ENDROOT
BRANCH   3   9
ATOM      9  C   UNL     1      -1.812  12.207  20.601  0.00  0.00    +0.000 C 
ATOM     10  C   UNL     1      -1.437  13.683  20.391  0.00  0.00    +0.000 C 
ATOM     11  C   UNL     1      -1.679  14.501  21.658  0.00  0.00    +0.000 C 
ATOM     12  N   UNL     1      -0.963  13.929  22.805  0.00  0.00    +0.000 NA
ATOM     13  C   UNL     1      -1.176  14.757  23.994  0.00  0.00    +0.000 C 
ATOM     14  C   UNL     1      -1.383  12.547  23.068  0.00  0.00    +0.000 C 
ATOM     15  C   UNL     1      -1.127  11.651  21.858  0.00  0.00    +0.000 C 
ENDBRANCH   3   9
BRANCH   4  16
ATOM     16  C   UNL     1      -3.719  11.498  18.407  0.00  0.00    +0.000 C 
ATOM     17  N   UNL     1      -4.813  11.875  18.448  0.00  0.00    +0.000 NA
ENDBRANCH   4  16
BRANCH   1  18
ATOM     18  S   UNL     1       1.863   9.580  18.214  0.00  0.00    +0.000 S 
BRANCH  18  19
ATOM     19  C   UNL     1       1.882   8.158  19.363  0.00  0.00    +0.000 C 
BRANCH  19  26
ATOM     20  C   UNL     1       5.169   6.384  15.963  0.00  0.00    +0.000 C 
ATOM     21  C   UNL     1       4.275   6.123  17.140  0.00  0.00    +0.000 A 
ATOM     22  C   UNL     1       4.183   4.851  17.703  0.00  0.00    +0.000 A 
ATOM     23  C   UNL     1       3.345   4.632  18.797  0.00  0.00    +0.000 A 
ATOM     24  C   UNL     1       2.587   5.680  19.356  0.00  0.00    +0.000 A 
ATOM     25  C   UNL     1       1.697   5.376  20.530  0.00  0.00    +0.000 C 
ATOM     26  C   UNL     1       2.670   6.977  18.802  0.00  0.00    +0.000 A 
ATOM     27  C   UNL     1       3.520   7.173  17.693  0.00  0.00    +0.000 A 
ENDBRANCH  19  26
ENDBRANCH  18  19
ENDBRANCH   1  18
TORSDOF 5
ENDMDL
MODEL 6
REMARK VINA RESULT:      -7.1      3.447      8.800
REMARK  Name = 
REMARK  8 active torsions:
REMARK  status: ('A' for Active; 'I' for Inactive)
REMARK    1  A    between atoms: C_1  and  C_2
REMARK    2  A    between atoms: C_5  and  C_6
REMARK    3  A    between atoms: C_7  and  C_8
REMARK    4  A    between atoms: C_8  and  S_9
REMARK    5  A    between atoms: S_9  and  C_10
REMARK    6  A    between atoms: C_12  and  C_13
REMARK    7  A    between atoms: N_16  and  C_17
REMARK    8  A    between atoms: C_20  and  C_21
REMARK                            x       y       z     vdW  Elec       q    Type
REMARK                         _______ _______ _______ _____ _____    ______ ____
ROOT
ATOM      1  C   UNL     1       1.356   9.521  19.238  0.00  0.00    +0.000 A 
ATOM      2  N   UNL     1       1.359  10.808  19.232  0.00  0.00    +0.000 NA
ATOM      3  C   UNL     1       0.695  11.471  20.255  0.00  0.00    +0.000 A 
ATOM      4  C   UNL     1       0.041  10.839  21.254  0.00  0.00    +0.000 A 
ATOM      5  C   UNL     1       0.056   9.359  21.236  0.00  0.00    +0.000 A 
ATOM      6  O   UNL     1      -0.493   8.678  22.096  0.00  0.00    +0.000 OA
ATOM      7  N   UNL     1       0.731   8.783  20.197  0.00  0.00    +0.000 N 
ATOM      8  H   UNL     1       0.753   7.776  20.155  0.00  0.00    +0.000 HD
ENDROOT
BRANCH   3   9
ATOM      9  C   UNL     1       0.784  12.996  20.151  0.00  0.00    +0.000 C 
ATOM     10  C   UNL     1      -0.159  13.544  19.068  0.00  0.00    +0.000 C 
ATOM     11  C   UNL     1       0.018  15.050  18.890  0.00  0.00    +0.000 C 
ATOM     12  N   UNL     1       1.417  15.391  18.598  0.00  0.00    +0.000 NA
ATOM     13  C   UNL     1       1.549  16.833  18.388  0.00  0.00    +0.000 C 
ATOM     14  C   UNL     1       2.314  14.950  19.674  0.00  0.00    +0.000 C 
ATOM     15  C   UNL     1       2.229  13.439  19.881  0.00  0.00    +0.000 C 
ENDBRANCH   3   9
BRANCH   4  16
ATOM     16  C   UNL     1      -0.636  11.502  22.321  0.00  0.00    +0.000 C 
ATOM     17  N   UNL     1      -1.177  12.083  23.164  0.00  0.00    +0.000 NA
ENDBRANCH   4  16
BRANCH   1  18
ATOM     18  S   UNL     1       2.119   8.554  18.009  0.00  0.00    +0.000 S 
BRANCH  18  19
ATOM     19  C   UNL     1       2.394   6.961  18.865  0.00  0.00    +0.000 C 
BRANCH  19  26
ATOM     20  C   UNL     1       6.901   6.161  16.730  0.00  0.00    +0.000 C 
ATOM     21  C   UNL     1       5.522   5.658  17.041  0.00  0.00    +0.000 A 
ATOM     22  C   UNL     1       5.111   4.389  16.632  0.00  0.00    +0.000 A 
ATOM     23  C   UNL     1       3.824   3.943  16.932  0.00  0.00    +0.000 A 
ATOM     24  C   UNL     1       2.921   4.751  17.650  0.00  0.00    +0.000 A 
ATOM     25  C   UNL     1       1.545   4.214  17.934  0.00  0.00    +0.000 C 
ATOM     26  C   UNL     1       3.320   6.038  18.077  0.00  0.00    +0.000 A 
ATOM     27  C   UNL     1       4.624   6.469  17.758  0.00  0.00    +0.000 A 
ENDBRANCH  19  26
ENDBRANCH  18  19
ENDBRANCH   1  18
TORSDOF 5
ENDMDL
MODEL 7
REMARK VINA RESULT:      -7.1      3.461      8.685
REMARK  Name = 
REMARK  8 active torsions:
REMARK  status: ('A' for Active; 'I' for Inactive)
REMARK    1  A    between atoms: C_1  and  C_2
REMARK    2  A    between atoms: C_5  and  C_6
REMARK    3  A    between atoms: C_7  and  C_8
REMARK    4  A    between atoms: C_8  and  S_9
REMARK    5  A    between atoms: S_9  and  C_10
REMARK    6  A    between atoms: C_12  and  C_13
REMARK    7  A    between atoms: N_16  and  C_17
REMARK    8  A    between atoms: C_20  and  C_21
REMARK                            x       y       z     vdW  Elec       q    Type
REMARK                         _______ _______ _______ _____ _____    ______ ____
ROOT
ATOM      1  C   UNL     1       1.244   9.340  19.364  0.00  0.00    +0.000 A 
ATOM      2  N   UNL     1       1.222  10.626  19.310  0.00  0.00    +0.000 NA
ATOM      3  C   UNL     1       0.579  11.315  20.328  0.00  0.00    +0.000 A 
ATOM      4  C   UNL     1      -0.030  10.711  21.372  0.00  0.00    +0.000 A 
ATOM      5  C   UNL     1       0.011   9.232  21.408  0.00  0.00    +0.000 A 
ATOM      6  O   UNL     1      -0.498   8.575  22.311  0.00  0.00    +0.000 OA
ATOM      7  N   UNL     1       0.663   8.629  20.370  0.00  0.00    +0.000 N 
ATOM      8  H   UNL     1       0.703   7.621  20.366  0.00  0.00    +0.000 HD
ENDROOT
BRANCH   3   9
ATOM      9  C   UNL     1       0.636  12.837  20.165  0.00  0.00    +0.000 C 
ATOM     10  C   UNL     1      -0.017  13.288  18.849  0.00  0.00    +0.000 C 
ATOM     11  C   UNL     1       0.145  14.792  18.637  0.00  0.00    +0.000 C 
ATOM     12  N   UNL     1       1.558  15.187  18.690  0.00  0.00    +0.000 NA
ATOM     13  C   UNL     1       1.688  16.623  18.440  0.00  0.00    +0.000 C 
ATOM     14  C   UNL     1       2.166  14.840  19.981  0.00  0.00    +0.000 C 
ATOM     15  C   UNL     1       2.086  13.338  20.245  0.00  0.00    +0.000 C 
ENDBRANCH   3   9
BRANCH   4  16
ATOM     16  C   UNL     1      -0.685  11.403  22.434  0.00  0.00    +0.000 C 
ATOM     17  N   UNL     1      -1.239  11.993  23.262  0.00  0.00    +0.000 NA
ENDBRANCH   4  16
BRANCH   1  18
ATOM     18  S   UNL     1       1.985   8.340  18.149  0.00  0.00    +0.000 S 
BRANCH  18  19
ATOM     19  C   UNL     1       2.881   7.095  19.145  0.00  0.00    +0.000 C 
BRANCH  19  26
ATOM     20  C   UNL     1       0.739   2.540  18.724  0.00  0.00    +0.000 C 
ATOM     21  C   UNL     1       1.810   3.499  18.292  0.00  0.00    +0.000 A 
ATOM     22  C   UNL     1       2.744   3.141  17.320  0.00  0.00    +0.000 A 
ATOM     23  C   UNL     1       3.731   4.049  16.934  0.00  0.00    +0.000 A 
ATOM     24  C   UNL     1       3.803   5.334  17.506  0.00  0.00    +0.000 A 
ATOM     25  C   UNL     1       4.897   6.262  17.053  0.00  0.00    +0.000 C 
ATOM     26  C   UNL     1       2.864   5.716  18.490  0.00  0.00    +0.000 A 
ATOM     27  C   UNL     1       1.878   4.780  18.867  0.00  0.00    +0.000 A 
ENDBRANCH  19  26
ENDBRANCH  18  19
ENDBRANCH   1  18
TORSDOF 5
ENDMDL
MODEL 8
REMARK VINA RESULT:      -7.1      2.645      7.294
REMARK  Name = 
REMARK  8 active torsions:
REMARK  status: ('A' for Active; 'I' for Inactive)
REMARK    1  A    between atoms: C_1  and  C_2
REMARK    2  A    between atoms: C_5  and  C_6
REMARK    3  A    between atoms: C_7  and  C_8
REMARK    4  A    between atoms: C_8  and  S_9
REMARK    5  A    between atoms: S_9  and  C_10
REMARK    6  A    between atoms: C_12  and  C_13
REMARK    7  A    between atoms: N_16  and  C_17
REMARK    8  A    between atoms: C_20  and  C_21
REMARK                            x       y       z     vdW  Elec       q    Type
REMARK                         _______ _______ _______ _____ _____    ______ ____
ROOT
ATOM      1  C   UNL     1       5.551   4.671  19.307  0.00  0.00    +0.000 A 
ATOM      2  N   UNL     1       4.636   5.571  19.207  0.00  0.00    +0.000 NA
ATOM      3  C   UNL     1       3.332   5.159  18.969  0.00  0.00    +0.000 A 
ATOM      4  C   UNL     1       2.971   3.864  18.830  0.00  0.00    +0.000 A 
ATOM      5  C   UNL     1       4.043   2.851  18.951  0.00  0.00    +0.000 A 
ATOM      6  O   UNL     1       3.833   1.646  18.854  0.00  0.00    +0.000 OA
ATOM      7  N   UNL     1       5.299   3.338  19.186  0.00  0.00    +0.000 N 
ATOM      8  H   UNL     1       6.051   2.671  19.267  0.00  0.00    +0.000 HD
ENDROOT
BRANCH   3   9
ATOM      9  C   UNL     1       2.332   6.315  18.889  0.00  0.00    +0.000 C 
ATOM     10  C   UNL     1       2.767   7.368  17.857  0.00  0.00    +0.000 C 
ATOM     11  C   UNL     1       1.828   8.573  17.865  0.00  0.00    +0.000 C 
ATOM     12  N   UNL     1       1.724   9.157  19.208  0.00  0.00    +0.000 NA
ATOM     13  C   UNL     1       0.856  10.334  19.178  0.00  0.00    +0.000 C 
ATOM     14  C   UNL     1       1.222   8.181  20.183  0.00  0.00    +0.000 C 
ATOM     15  C   UNL     1       2.138   6.962  20.268  0.00  0.00    +0.000 C 
ENDBRANCH   3   9
BRANCH   4  16
ATOM     16  C   UNL     1       1.635   3.420  18.598  0.00  0.00    +0.000 C 
ATOM     17  N   UNL     1       0.536   3.106  18.411  0.00  0.00    +0.000 NA
ENDBRANCH   4  16
BRANCH   1  18
ATOM     18  S   UNL     1       7.230   5.035  19.574  0.00  0.00    +0.000 S 
BRANCH  18  19
ATOM     19  C   UNL     1       7.976   4.716  17.935  0.00  0.00    +0.000 C 
BRANCH  19  26
ATOM     20  C   UNL     1       5.334   3.479  13.812  0.00  0.00    +0.000 C 
ATOM     21  C   UNL     1       5.774   4.533  14.785  0.00  0.00    +0.000 A 
ATOM     22  C   UNL     1       5.348   5.855  14.652  0.00  0.00    +0.000 A 
ATOM     23  C   UNL     1       5.771   6.818  15.568  0.00  0.00    +0.000 A 
ATOM     24  C   UNL     1       6.622   6.483  16.639  0.00  0.00    +0.000 A 
ATOM     25  C   UNL     1       7.047   7.571  17.587  0.00  0.00    +0.000 C 
ATOM     26  C   UNL     1       7.060   5.149  16.793  0.00  0.00    +0.000 A 
ATOM     27  C   UNL     1       6.624   4.193  15.852  0.00  0.00    +0.000 A 
ENDBRANCH  19  26
ENDBRANCH  18  19
ENDBRANCH   1  18
TORSDOF 5
ENDMDL
MODEL 9
REMARK VINA RESULT:      -7.1      1.394      2.112
REMARK  Name = 
REMARK  8 active torsions:
REMARK  status: ('A' for Active; 'I' for Inactive)
REMARK    1  A    between atoms: C_1  and  C_2
REMARK    2  A    between atoms: C_5  and  C_6
REMARK    3  A    between atoms: C_7  and  C_8
REMARK    4  A    between atoms: C_8  and  S_9
REMARK    5  A    between atoms: S_9  and  C_10
REMARK    6  A    between atoms: C_12  and  C_13
REMARK    7  A    between atoms: N_16  and  C_17
REMARK    8  A    between atoms: C_20  and  C_21
REMARK                            x       y       z     vdW  Elec       q    Type
REMARK                         _______ _______ _______ _____ _____    ______ ____
ROOT
ATOM      1  C   UNL     1       1.912   7.025  20.325  0.00  0.00    +0.000 A 
ATOM      2  N   UNL     1       2.722   7.003  19.325  0.00  0.00    +0.000 NA
ATOM      3  C   UNL     1       3.441   5.839  19.089  0.00  0.00    +0.000 A 
ATOM      4  C   UNL     1       3.341   4.730  19.854  0.00  0.00    +0.000 A 
ATOM      5  C   UNL     1       2.401   4.785  20.995  0.00  0.00    +0.000 A 
ATOM      6  O   UNL     1       2.218   3.836  21.752  0.00  0.00    +0.000 OA
ATOM      7  N   UNL     1       1.731   5.965  21.160  0.00  0.00    +0.000 N 
ATOM      8  H   UNL     1       1.088   6.033  21.933  0.00  0.00    +0.000 HD
ENDROOT
BRANCH   3   9
ATOM      9  C   UNL     1       4.356   5.926  17.864  0.00  0.00    +0.000 C 
ATOM     10  C   UNL     1       4.037   4.824  16.842  0.00  0.00    +0.000 C 
ATOM     11  C   UNL     1       5.027   4.843  15.679  0.00  0.00    +0.000 C 
ATOM     12  N   UNL     1       6.411   4.740  16.156  0.00  0.00    +0.000 NA
ATOM     13  C   UNL     1       7.334   4.717  15.021  0.00  0.00    +0.000 C 
ATOM     14  C   UNL     1       6.752   5.844  17.064  0.00  0.00    +0.000 C 
ATOM     15  C   UNL     1       5.832   5.862  18.283  0.00  0.00    +0.000 C 
ENDBRANCH   3   9
BRANCH   4  16
ATOM     16  C   UNL     1       4.061   3.521  19.620  0.00  0.00    +0.000 C 
ATOM     17  N   UNL     1       4.647   2.532  19.478  0.00  0.00    +0.000 NA
ENDBRANCH   4  16
BRANCH   1  18
ATOM     18  S   UNL     1       0.967   8.419  20.763  0.00  0.00    +0.000 S 
BRANCH  18  19
ATOM     19  C   UNL     1       1.229   9.543  19.345  0.00  0.00    +0.000 C 
BRANCH  19  26
ATOM     20  C   UNL     1      -2.689   9.895  16.177  0.00  0.00    +0.000 C 
ATOM     21  C   UNL     1      -1.963  10.417  17.382  0.00  0.00    +0.000 A 
ATOM     22  C   UNL     1      -2.457  11.505  18.101  0.00  0.00    +0.000 A 
ATOM     23  C   UNL     1      -1.765  11.974  19.218  0.00  0.00    +0.000 A 
ATOM     24  C   UNL     1      -0.570  11.363  19.645  0.00  0.00    +0.000 A 
ATOM     25  C   UNL     1       0.132  11.922  20.852  0.00  0.00    +0.000 C 
ATOM     26  C   UNL     1      -0.056  10.256  18.932  0.00  0.00    +0.000 A 
ATOM     27  C   UNL     1      -0.770   9.803  17.803  0.00  0.00    +0.000 A 
ENDBRANCH  19  26
ENDBRANCH  18  19
ENDBRANCH   1  18
TORSDOF 5
ENDMDL
