MODEL 1
REMARK VINA RESULT:      -6.6      0.000      0.000
REMARK  Name = 
REMARK  7 active torsions:
REMARK  status: ('A' for Active; 'I' for Inactive)
REMARK    1  A    between atoms: C_1  and  O_2
REMARK    2  A    between atoms: O_2  and  C_3
REMARK    3  A    between atoms: C_6  and  C_7
REMARK    4  A    between atoms: C_11  and  C_12
REMARK    5  A    between atoms: C_11  and  C_13
REMARK    6  A    between atoms: C_23  and  C_24
REMARK    7  A    between atoms: C_23  and  C_25
REMARK                            x       y       z     vdW  Elec       q    Type
REMARK                         _______ _______ _______ _____ _____    ______ ____
ROOT
ATOM      1  C   UNL     1      -0.317  11.621  18.789  0.00  0.00    +0.000 C 
ATOM      2  C   UNL     1       0.036  12.816  19.672  0.00  0.00    +0.000 C 
ATOM      3  C   UNL     1      -0.916  13.673  20.104  0.00  0.00    +0.000 C 
ATOM      4  C   UNL     1      -0.614  14.909  20.931  0.00  0.00    +0.000 C 
ATOM      5  C   UNL     1       0.879  15.312  20.962  0.00  0.00    +0.000 C 
ATOM      6  C   UNL     1       1.288  16.017  19.650  0.00  0.00    +0.000 C 
ATOM      7  C   UNL     1       1.132  16.285  22.125  0.00  0.00    +0.000 C 
ATOM      8  C   UNL     1       1.721  14.046  21.164  0.00  0.00    +0.000 C 
ATOM      9  C   UNL     1       1.460  13.077  20.035  0.00  0.00    +0.000 C 
ATOM     10  O   UNL     1       2.390  12.538  19.444  0.00  0.00    +0.000 OA
ATOM     11  N   UNL     1      -2.243  13.447  19.780  0.00  0.00    +0.000 N 
ATOM     12  C   UNL     1      -2.701  12.304  19.145  0.00  0.00    +0.000 C 
ATOM     13  C   UNL     1      -1.822  11.373  18.709  0.00  0.00    +0.000 C 
ATOM     14  C   UNL     1      -2.348  10.115  18.093  0.00  0.00    +0.000 C 
ATOM     15  O   UNL     1      -1.624   9.325  17.494  0.00  0.00    +0.000 OA
ATOM     16  C   UNL     1      -3.827   9.837  18.226  0.00  0.00    +0.000 C 
ATOM     17  C   UNL     1      -4.615  11.114  17.916  0.00  0.00    +0.000 C 
ATOM     18  C   UNL     1      -4.330  11.577  16.468  0.00  0.00    +0.000 C 
ATOM     19  C   UNL     1      -6.120  10.830  18.033  0.00  0.00    +0.000 C 
ATOM     20  C   UNL     1      -4.201  12.190  18.944  0.00  0.00    +0.000 C 
ATOM     21  H   UNL     1      -2.936  14.102  20.135  0.00  0.00    +0.000 HD
ENDROOT
BRANCH   1  25
ATOM     22  C   UNL     1       1.844   8.029  19.872  0.00  0.00    +0.000 A 
ATOM     23  C   UNL     1       1.012   8.672  20.787  0.00  0.00    +0.000 A 
ATOM     24  C   UNL     1       0.326   9.825  20.418  0.00  0.00    +0.000 A 
ATOM     25  C   UNL     1       0.481  10.377  19.137  0.00  0.00    +0.000 A 
ATOM     26  C   UNL     1       1.357   9.764  18.230  0.00  0.00    +0.000 A 
ATOM     27  C   UNL     1       2.032   8.595  18.604  0.00  0.00    +0.000 A 
ATOM     28 BR   UNL     1       3.179   7.794  17.317  0.00  0.00    +0.000 Br
BRANCH  22  30
ATOM     29  C   UNL     1       1.675   5.755  20.464  0.00  0.00    +0.000 C 
ATOM     30  O   UNL     1       2.516   6.870  20.173  0.00  0.00    +0.000 OA
ENDBRANCH  22  30
ENDBRANCH   1  25
TORSDOF 2
ENDMDL
MODEL 2
REMARK VINA RESULT:      -6.5      4.047      7.749
REMARK  Name = 
REMARK  7 active torsions:
REMARK  status: ('A' for Active; 'I' for Inactive)
REMARK    1  A    between atoms: C_1  and  O_2
REMARK    2  A    between atoms: O_2  and  C_3
REMARK    3  A    between atoms: C_6  and  C_7
REMARK    4  A    between atoms: C_11  and  C_12
REMARK    5  A    between atoms: C_11  and  C_13
REMARK    6  A    between atoms: C_23  and  C_24
REMARK    7  A    between atoms: C_23  and  C_25
REMARK                            x       y       z     vdW  Elec       q    Type
REMARK                         _______ _______ _______ _____ _____    ______ ____
ROOT
ATOM      1  C   UNL     1       2.824   5.891  18.168  0.00  0.00    +0.000 C 
ATOM      2  C   UNL     1       2.415   7.295  18.610  0.00  0.00    +0.000 C 
ATOM      3  C   UNL     1       1.813   7.507  19.802  0.00  0.00    +0.000 C 
ATOM      4  C   UNL     1       1.331   8.870  20.263  0.00  0.00    +0.000 C 
ATOM      5  C   UNL     1       1.264   9.939  19.148  0.00  0.00    +0.000 C 
ATOM      6  C   UNL     1       0.018   9.733  18.259  0.00  0.00    +0.000 C 
ATOM      7  C   UNL     1       1.177  11.340  19.773  0.00  0.00    +0.000 C 
ATOM      8  C   UNL     1       2.537   9.838  18.299  0.00  0.00    +0.000 C 
ATOM      9  C   UNL     1       2.640   8.455  17.699  0.00  0.00    +0.000 C 
ATOM     10  O   UNL     1       2.891   8.306  16.506  0.00  0.00    +0.000 OA
ATOM     11  N   UNL     1       1.598   6.444  20.663  0.00  0.00    +0.000 N 
ATOM     12  C   UNL     1       2.089   5.165  20.451  0.00  0.00    +0.000 C 
ATOM     13  C   UNL     1       2.736   4.870  19.301  0.00  0.00    +0.000 C 
ATOM     14  C   UNL     1       3.320   3.503  19.131  0.00  0.00    +0.000 C 
ATOM     15  O   UNL     1       3.736   3.096  18.050  0.00  0.00    +0.000 OA
ATOM     16  C   UNL     1       3.381   2.612  20.350  0.00  0.00    +0.000 C 
ATOM     17  C   UNL     1       2.047   2.682  21.099  0.00  0.00    +0.000 C 
ATOM     18  C   UNL     1       0.899   2.189  20.187  0.00  0.00    +0.000 C 
ATOM     19  C   UNL     1       2.099   1.764  22.329  0.00  0.00    +0.000 C 
ATOM     20  C   UNL     1       1.825   4.146  21.543  0.00  0.00    +0.000 C 
ATOM     21  H   UNL     1       1.159   6.641  21.559  0.00  0.00    +0.000 HD
ENDROOT
BRANCH   1  25
ATOM     22  C   UNL     1       6.546   5.820  15.957  0.00  0.00    +0.000 A 
ATOM     23  C   UNL     1       5.430   5.113  15.511  0.00  0.00    +0.000 A 
ATOM     24  C   UNL     1       4.243   5.150  16.237  0.00  0.00    +0.000 A 
ATOM     25  C   UNL     1       4.156   5.869  17.439  0.00  0.00    +0.000 A 
ATOM     26  C   UNL     1       5.290   6.539  17.919  0.00  0.00    +0.000 A 
ATOM     27  C   UNL     1       6.476   6.509  17.175  0.00  0.00    +0.000 A 
ATOM     28 BR   UNL     1       7.968   7.465  17.863  0.00  0.00    +0.000 Br
BRANCH  22  30
ATOM     29  C   UNL     1       7.682   5.210  13.986  0.00  0.00    +0.000 C 
ATOM     30  O   UNL     1       7.730   5.846  15.261  0.00  0.00    +0.000 OA
ENDBRANCH  22  30
ENDBRANCH   1  25
TORSDOF 2
ENDMDL
MODEL 3
REMARK VINA RESULT:      -6.5      1.129      1.445
REMARK  Name = 
REMARK  7 active torsions:
REMARK  status: ('A' for Active; 'I' for Inactive)
REMARK    1  A    between atoms: C_1  and  O_2
REMARK    2  A    between atoms: O_2  and  C_3
REMARK    3  A    between atoms: C_6  and  C_7
REMARK    4  A    between atoms: C_11  and  C_12
REMARK    5  A    between atoms: C_11  and  C_13
REMARK    6  A    between atoms: C_23  and  C_24
REMARK    7  A    between atoms: C_23  and  C_25
REMARK                            x       y       z     vdW  Elec       q    Type
REMARK                         _______ _______ _______ _____ _____    ______ ____
ROOT
ATOM      1  C   UNL     1      -0.645  11.856  18.688  0.00  0.00    +0.000 C 
ATOM      2  C   UNL     1      -0.282  12.940  19.701  0.00  0.00    +0.000 C 
ATOM      3  C   UNL     1      -1.238  13.671  20.317  0.00  0.00    +0.000 C 
ATOM      4  C   UNL     1      -0.932  14.800  21.284  0.00  0.00    +0.000 C 
ATOM      5  C   UNL     1       0.536  15.286  21.260  0.00  0.00    +0.000 C 
ATOM      6  C   UNL     1       0.802  16.185  20.033  0.00  0.00    +0.000 C 
ATOM      7  C   UNL     1       0.835  16.106  22.525  0.00  0.00    +0.000 C 
ATOM      8  C   UNL     1       1.455  14.058  21.220  0.00  0.00    +0.000 C 
ATOM      9  C   UNL     1       1.152  13.235  19.990  0.00  0.00    +0.000 C 
ATOM     10  O   UNL     1       2.057  12.839  19.262  0.00  0.00    +0.000 OA
ATOM     11  N   UNL     1      -2.574  13.410  20.064  0.00  0.00    +0.000 N 
ATOM     12  C   UNL     1      -3.024  12.337  19.311  0.00  0.00    +0.000 C 
ATOM     13  C   UNL     1      -2.137  11.529  18.686  0.00  0.00    +0.000 C 
ATOM     14  C   UNL     1      -2.648  10.336  17.941  0.00  0.00    +0.000 C 
ATOM     15  O   UNL     1      -1.936   9.680  17.186  0.00  0.00    +0.000 OA
ATOM     16  C   UNL     1      -4.095   9.953  18.143  0.00  0.00    +0.000 C 
ATOM     17  C   UNL     1      -4.969  11.209  18.073  0.00  0.00    +0.000 C 
ATOM     18  C   UNL     1      -4.826  11.880  16.686  0.00  0.00    +0.000 C 
ATOM     19  C   UNL     1      -6.444  10.821  18.260  0.00  0.00    +0.000 C 
ATOM     20  C   UNL     1      -4.527  12.160  19.208  0.00  0.00    +0.000 C 
ATOM     21  H   UNL     1      -3.267  13.967  20.557  0.00  0.00    +0.000 HD
ENDROOT
BRANCH   1  25
ATOM     22  C   UNL     1       1.983   8.422  18.920  0.00  0.00    +0.000 A 
ATOM     23  C   UNL     1       1.931   9.213  17.773  0.00  0.00    +0.000 A 
ATOM     24  C   UNL     1       1.079  10.312  17.719  0.00  0.00    +0.000 A 
ATOM     25  C   UNL     1       0.240  10.627  18.799  0.00  0.00    +0.000 A 
ATOM     26  C   UNL     1       0.251   9.805  19.936  0.00  0.00    +0.000 A 
ATOM     27  C   UNL     1       1.121   8.710  19.988  0.00  0.00    +0.000 A 
ATOM     28 BR   UNL     1       1.111   7.655  21.569  0.00  0.00    +0.000 Br
BRANCH  22  30
ATOM     29  C   UNL     1       2.518   6.250  18.184  0.00  0.00    +0.000 C 
ATOM     30  O   UNL     1       2.830   7.348  19.039  0.00  0.00    +0.000 OA
ENDBRANCH  22  30
ENDBRANCH   1  25
TORSDOF 2
ENDMDL
MODEL 4
REMARK VINA RESULT:      -6.5      7.696     10.811
REMARK  Name = 
REMARK  7 active torsions:
REMARK  status: ('A' for Active; 'I' for Inactive)
REMARK    1  A    between atoms: C_1  and  O_2
REMARK    2  A    between atoms: O_2  and  C_3
REMARK    3  A    between atoms: C_6  and  C_7
REMARK    4  A    between atoms: C_11  and  C_12
REMARK    5  A    between atoms: C_11  and  C_13
REMARK    6  A    between atoms: C_23  and  C_24
REMARK    7  A    between atoms: C_23  and  C_25
REMARK                            x       y       z     vdW  Elec       q    Type
REMARK                         _______ _______ _______ _____ _____    ______ ____
ROOT
ATOM      1  C   UNL     1       8.021  14.527  21.776  0.00  0.00    +0.000 C 
ATOM      2  C   UNL     1       8.909  13.790  20.776  0.00  0.00    +0.000 C 
ATOM      3  C   UNL     1       9.416  12.568  21.057  0.00  0.00    +0.000 C 
ATOM      4  C   UNL     1      10.352  11.819  20.127  0.00  0.00    +0.000 C 
ATOM      5  C   UNL     1      10.959  12.681  18.995  0.00  0.00    +0.000 C 
ATOM      6  C   UNL     1      12.105  13.568  19.530  0.00  0.00    +0.000 C 
ATOM      7  C   UNL     1      11.535  11.772  17.898  0.00  0.00    +0.000 C 
ATOM      8  C   UNL     1       9.850  13.557  18.402  0.00  0.00    +0.000 C 
ATOM      9  C   UNL     1       9.265  14.439  19.480  0.00  0.00    +0.000 C 
ATOM     10  O   UNL     1       9.103  15.640  19.288  0.00  0.00    +0.000 OA
ATOM     11  N   UNL     1       9.095  11.948  22.252  0.00  0.00    +0.000 N 
ATOM     12  C   UNL     1       8.158  12.436  23.150  0.00  0.00    +0.000 C 
ATOM     13  C   UNL     1       7.572  13.635  22.932  0.00  0.00    +0.000 C 
ATOM     14  C   UNL     1       6.510  14.103  23.878  0.00  0.00    +0.000 C 
ATOM     15  O   UNL     1       6.083  15.254  23.868  0.00  0.00    +0.000 OA
ATOM     16  C   UNL     1       5.970  13.102  24.872  0.00  0.00    +0.000 C 
ATOM     17  C   UNL     1       7.133  12.329  25.501  0.00  0.00    +0.000 C 
ATOM     18  C   UNL     1       8.077  13.302  26.247  0.00  0.00    +0.000 C 
ATOM     19  C   UNL     1       6.588  11.323  26.525  0.00  0.00    +0.000 C 
ATOM     20  C   UNL     1       7.874  11.580  24.370  0.00  0.00    +0.000 C 
ATOM     21  H   UNL     1       9.480  11.023  22.425  0.00  0.00    +0.000 HD
ENDROOT
BRANCH   1  25
ATOM     22  C   UNL     1       4.850  16.767  19.857  0.00  0.00    +0.000 A 
ATOM     23  C   UNL     1       5.801  17.404  20.655  0.00  0.00    +0.000 A 
ATOM     24  C   UNL     1       6.811  16.664  21.263  0.00  0.00    +0.000 A 
ATOM     25  C   UNL     1       6.877  15.271  21.110  0.00  0.00    +0.000 A 
ATOM     26  C   UNL     1       5.893  14.619  20.351  0.00  0.00    +0.000 A 
ATOM     27  C   UNL     1       4.888  15.372  19.731  0.00  0.00    +0.000 A 
ATOM     28 BR   UNL     1       3.605  14.433  18.690  0.00  0.00    +0.000 Br
BRANCH  22  30
ATOM     29  C   UNL     1       2.735  17.789  20.026  0.00  0.00    +0.000 C 
ATOM     30  O   UNL     1       3.853  17.452  19.208  0.00  0.00    +0.000 OA
ENDBRANCH  22  30
ENDBRANCH   1  25
TORSDOF 2
ENDMDL
MODEL 5
REMARK VINA RESULT:      -6.4      3.412      6.232
REMARK  Name = 
REMARK  7 active torsions:
REMARK  status: ('A' for Active; 'I' for Inactive)
REMARK    1  A    between atoms: C_1  and  O_2
REMARK    2  A    between atoms: O_2  and  C_3
REMARK    3  A    between atoms: C_6  and  C_7
REMARK    4  A    between atoms: C_11  and  C_12
REMARK    5  A    between atoms: C_11  and  C_13
REMARK    6  A    between atoms: C_23  and  C_24
REMARK    7  A    between atoms: C_23  and  C_25
REMARK                            x       y       z     vdW  Elec       q    Type
REMARK                         _______ _______ _______ _____ _____    ______ ____
ROOT
ATOM      1  C   UNL     1      -2.384  12.554  20.985  0.00  0.00    +0.000 C 
ATOM      2  C   UNL     1      -1.276  11.863  20.192  0.00  0.00    +0.000 C 
ATOM      3  C   UNL     1      -1.537  11.234  19.024  0.00  0.00    +0.000 C 
ATOM      4  C   UNL     1      -0.487  10.481  18.229  0.00  0.00    +0.000 C 
ATOM      5  C   UNL     1       0.819  10.190  19.003  0.00  0.00    +0.000 C 
ATOM      6  C   UNL     1       0.630   9.011  19.982  0.00  0.00    +0.000 C 
ATOM      7  C   UNL     1       1.937   9.815  18.017  0.00  0.00    +0.000 C 
ATOM      8  C   UNL     1       1.221  11.454  19.773  0.00  0.00    +0.000 C 
ATOM      9  C   UNL     1       0.116  11.840  20.729  0.00  0.00    +0.000 C 
ATOM     10  O   UNL     1       0.367  12.112  21.899  0.00  0.00    +0.000 OA
ATOM     11  N   UNL     1      -2.822  11.248  18.509  0.00  0.00    +0.000 N 
ATOM     12  C   UNL     1      -3.862  11.992  19.042  0.00  0.00    +0.000 C 
ATOM     13  C   UNL     1      -3.682  12.684  20.190  0.00  0.00    +0.000 C 
ATOM     14  C   UNL     1      -4.798  13.538  20.702  0.00  0.00    +0.000 C 
ATOM     15  O   UNL     1      -4.788  14.026  21.829  0.00  0.00    +0.000 OA
ATOM     16  C   UNL     1      -5.968  13.787  19.779  0.00  0.00    +0.000 C 
ATOM     17  C   UNL     1      -6.383  12.469  19.117  0.00  0.00    +0.000 C 
ATOM     18  C   UNL     1      -6.815  11.445  20.194  0.00  0.00    +0.000 C 
ATOM     19  C   UNL     1      -7.585  12.715  18.191  0.00  0.00    +0.000 C 
ATOM     20  C   UNL     1      -5.182  11.950  18.295  0.00  0.00    +0.000 C 
ATOM     21  H   UNL     1      -2.981  10.779  17.620  0.00  0.00    +0.000 HD
ENDROOT
BRANCH   1  25
ATOM     22  C   UNL     1      -1.148  16.349  22.663  0.00  0.00    +0.000 A 
ATOM     23  C   UNL     1      -1.148  16.137  21.285  0.00  0.00    +0.000 A 
ATOM     24  C   UNL     1      -1.549  14.909  20.767  0.00  0.00    +0.000 A 
ATOM     25  C   UNL     1      -1.931  13.859  21.615  0.00  0.00    +0.000 A 
ATOM     26  C   UNL     1      -1.883  14.050  23.004  0.00  0.00    +0.000 A 
ATOM     27  C   UNL     1      -1.492  15.292  23.517  0.00  0.00    +0.000 A 
ATOM     28 BR   UNL     1      -1.481  15.498  25.407  0.00  0.00    +0.000 Br
BRANCH  22  30
ATOM     29  C   UNL     1       0.580  17.897  23.069  0.00  0.00    +0.000 C 
ATOM     30  O   UNL     1      -0.795  17.551  23.225  0.00  0.00    +0.000 OA
ENDBRANCH  22  30
ENDBRANCH   1  25
TORSDOF 2
ENDMDL
MODEL 6
REMARK VINA RESULT:      -6.3      3.577      6.479
REMARK  Name = 
REMARK  7 active torsions:
REMARK  status: ('A' for Active; 'I' for Inactive)
REMARK    1  A    between atoms: C_1  and  O_2
REMARK    2  A    between atoms: O_2  and  C_3
REMARK    3  A    between atoms: C_6  and  C_7
REMARK    4  A    between atoms: C_11  and  C_12
REMARK    5  A    between atoms: C_11  and  C_13
REMARK    6  A    between atoms: C_23  and  C_24
REMARK    7  A    between atoms: C_23  and  C_25
REMARK                            x       y       z     vdW  Elec       q    Type
REMARK                         _______ _______ _______ _____ _____    ______ ____
ROOT
ATOM      1  C   UNL     1      -2.578  12.761  20.909  0.00  0.00    +0.000 C 
ATOM      2  C   UNL     1      -2.902  12.245  19.509  0.00  0.00    +0.000 C 
ATOM      3  C   UNL     1      -4.180  12.103  19.092  0.00  0.00    +0.000 C 
ATOM      4  C   UNL     1      -4.559  11.538  17.736  0.00  0.00    +0.000 C 
ATOM      5  C   UNL     1      -3.407  10.819  16.995  0.00  0.00    +0.000 C 
ATOM      6  C   UNL     1      -3.166   9.411  17.581  0.00  0.00    +0.000 C 
ATOM      7  C   UNL     1      -3.761  10.662  15.508  0.00  0.00    +0.000 C 
ATOM      8  C   UNL     1      -2.137  11.668  17.130  0.00  0.00    +0.000 C 
ATOM      9  C   UNL     1      -1.795  11.845  18.591  0.00  0.00    +0.000 C 
ATOM     10  O   UNL     1      -0.651  11.656  18.994  0.00  0.00    +0.000 OA
ATOM     11  N   UNL     1      -5.221  12.471  19.928  0.00  0.00    +0.000 N 
ATOM     12  C   UNL     1      -5.047  13.119  21.141  0.00  0.00    +0.000 C 
ATOM     13  C   UNL     1      -3.801  13.336  21.621  0.00  0.00    +0.000 C 
ATOM     14  C   UNL     1      -3.641  14.103  22.896  0.00  0.00    +0.000 C 
ATOM     15  O   UNL     1      -2.573  14.162  23.497  0.00  0.00    +0.000 OA
ATOM     16  C   UNL     1      -4.857  14.815  23.440  0.00  0.00    +0.000 C 
ATOM     17  C   UNL     1      -6.069  13.880  23.369  0.00  0.00    +0.000 C 
ATOM     18  C   UNL     1      -5.816  12.615  24.224  0.00  0.00    +0.000 C 
ATOM     19  C   UNL     1      -7.304  14.594  23.939  0.00  0.00    +0.000 C 
ATOM     20  C   UNL     1      -6.307  13.520  21.885  0.00  0.00    +0.000 C 
ATOM     21  H   UNL     1      -6.170  12.368  19.577  0.00  0.00    +0.000 HD
ENDROOT
BRANCH   1  25
ATOM     22  C   UNL     1       0.938  15.288  20.978  0.00  0.00    +0.000 A 
ATOM     23  C   UNL     1       0.899  14.089  21.689  0.00  0.00    +0.000 A 
ATOM     24  C   UNL     1      -0.241  13.292  21.653  0.00  0.00    +0.000 A 
ATOM     25  C   UNL     1      -1.377  13.690  20.931  0.00  0.00    +0.000 A 
ATOM     26  C   UNL     1      -1.362  14.919  20.257  0.00  0.00    +0.000 A 
ATOM     27  C   UNL     1      -0.206  15.709  20.286  0.00  0.00    +0.000 A 
ATOM     28 BR   UNL     1      -0.239  17.349  19.325  0.00  0.00    +0.000 Br
BRANCH  22  30
ATOM     29  C   UNL     1       3.119  15.603  20.148  0.00  0.00    +0.000 C 
ATOM     30  O   UNL     1       2.048  16.095  20.952  0.00  0.00    +0.000 OA
ENDBRANCH  22  30
ENDBRANCH   1  25
TORSDOF 2
ENDMDL
MODEL 7
REMARK VINA RESULT:      -6.3      3.899      6.416
REMARK  Name = 
REMARK  7 active torsions:
REMARK  status: ('A' for Active; 'I' for Inactive)
REMARK    1  A    between atoms: C_1  and  O_2
REMARK    2  A    between atoms: O_2  and  C_3
REMARK    3  A    between atoms: C_6  and  C_7
REMARK    4  A    between atoms: C_11  and  C_12
REMARK    5  A    between atoms: C_11  and  C_13
REMARK    6  A    between atoms: C_23  and  C_24
REMARK    7  A    between atoms: C_23  and  C_25
REMARK                            x       y       z     vdW  Elec       q    Type
REMARK                         _______ _______ _______ _____ _____    ______ ____
ROOT
ATOM      1  C   UNL     1      -0.918  12.965  22.001  0.00  0.00    +0.000 C 
ATOM      2  C   UNL     1      -0.610  14.023  20.944  0.00  0.00    +0.000 C 
ATOM      3  C   UNL     1       0.225  13.762  19.913  0.00  0.00    +0.000 C 
ATOM      4  C   UNL     1       0.613  14.794  18.870  0.00  0.00    +0.000 C 
ATOM      5  C   UNL     1       0.265  16.252  19.250  0.00  0.00    +0.000 C 
ATOM      6  C   UNL     1       1.279  16.815  20.270  0.00  0.00    +0.000 C 
ATOM      7  C   UNL     1       0.308  17.141  17.996  0.00  0.00    +0.000 C 
ATOM      8  C   UNL     1      -1.148  16.277  19.844  0.00  0.00    +0.000 C 
ATOM      9  C   UNL     1      -1.202  15.388  21.064  0.00  0.00    +0.000 C 
ATOM     10  O   UNL     1      -1.709  15.787  22.109  0.00  0.00    +0.000 OA
ATOM     11  N   UNL     1       0.782  12.501  19.782  0.00  0.00    +0.000 N 
ATOM     12  C   UNL     1       0.434  11.416  20.571  0.00  0.00    +0.000 C 
ATOM     13  C   UNL     1      -0.424  11.576  21.604  0.00  0.00    +0.000 C 
ATOM     14  C   UNL     1      -0.840  10.373  22.391  0.00  0.00    +0.000 C 
ATOM     15  O   UNL     1      -1.443  10.462  23.456  0.00  0.00    +0.000 OA
ATOM     16  C   UNL     1      -0.485   9.015  21.832  0.00  0.00    +0.000 C 
ATOM     17  C   UNL     1       0.968   9.028  21.346  0.00  0.00    +0.000 C 
ATOM     18  C   UNL     1       1.920   9.338  22.525  0.00  0.00    +0.000 C 
ATOM     19  C   UNL     1       1.337   7.643  20.793  0.00  0.00    +0.000 C 
ATOM     20  C   UNL     1       1.087  10.090  20.230  0.00  0.00    +0.000 C 
ATOM     21  H   UNL     1       1.393  12.333  18.986  0.00  0.00    +0.000 HD
ENDROOT
BRANCH   1  25
ATOM     22  C   UNL     1      -5.024  13.129  23.367  0.00  0.00    +0.000 A 
ATOM     23  C   UNL     1      -3.964  13.372  24.241  0.00  0.00    +0.000 A 
ATOM     24  C   UNL     1      -2.652  13.314  23.780  0.00  0.00    +0.000 A 
ATOM     25  C   UNL     1      -2.370  12.984  22.446  0.00  0.00    +0.000 A 
ATOM     26  C   UNL     1      -3.429  12.687  21.576  0.00  0.00    +0.000 A 
ATOM     27  C   UNL     1      -4.747  12.762  22.043  0.00  0.00    +0.000 A 
ATOM     28 BR   UNL     1      -6.140  12.381  20.806  0.00  0.00    +0.000 Br
BRANCH  22  30
ATOM     29  C   UNL     1      -6.848  14.534  23.861  0.00  0.00    +0.000 C 
ATOM     30  O   UNL     1      -6.337  13.207  23.760  0.00  0.00    +0.000 OA
ENDBRANCH  22  30
ENDBRANCH   1  25
TORSDOF 2
ENDMDL
MODEL 8
REMARK VINA RESULT:      -6.2      3.607      6.230
REMARK  Name = 
REMARK  7 active torsions:
REMARK  status: ('A' for Active; 'I' for Inactive)
REMARK    1  A    between atoms: C_1  and  O_2
REMARK    2  A    between atoms: O_2  and  C_3
REMARK    3  A    between atoms: C_6  and  C_7
REMARK    4  A    between atoms: C_11  and  C_12
REMARK    5  A    between atoms: C_11  and  C_13
REMARK    6  A    between atoms: C_23  and  C_24
REMARK    7  A    between atoms: C_23  and  C_25
REMARK                            x       y       z     vdW  Elec       q    Type
REMARK                         _______ _______ _______ _____ _____    ______ ____
ROOT
ATOM      1  C   UNL     1      -2.555  12.573  21.369  0.00  0.00    +0.000 C 
ATOM      2  C   UNL     1      -1.435  11.986  20.512  0.00  0.00    +0.000 C 
ATOM      3  C   UNL     1      -1.680  11.494  19.277  0.00  0.00    +0.000 C 
ATOM      4  C   UNL     1      -0.618  10.845  18.411  0.00  0.00    +0.000 C 
ATOM      5  C   UNL     1       0.684  10.474  19.159  0.00  0.00    +0.000 C 
ATOM      6  C   UNL     1       0.494   9.189  19.994  0.00  0.00    +0.000 C 
ATOM      7  C   UNL     1       1.814  10.223  18.148  0.00  0.00    +0.000 C 
ATOM      8  C   UNL     1       1.069  11.643  20.074  0.00  0.00    +0.000 C 
ATOM      9  C   UNL     1      -0.047  11.909  21.057  0.00  0.00    +0.000 C 
ATOM     10  O   UNL     1       0.190  12.046  22.253  0.00  0.00    +0.000 OA
ATOM     11  N   UNL     1      -2.960  11.559  18.754  0.00  0.00    +0.000 N 
ATOM     12  C   UNL     1      -4.011  12.231  19.358  0.00  0.00    +0.000 C 
ATOM     13  C   UNL     1      -3.846  12.786  20.581  0.00  0.00    +0.000 C 
ATOM     14  C   UNL     1      -4.974  13.568  21.177  0.00  0.00    +0.000 C 
ATOM     15  O   UNL     1      -4.978  13.923  22.352  0.00  0.00    +0.000 OA
ATOM     16  C   UNL     1      -6.137  13.915  20.277  0.00  0.00    +0.000 C 
ATOM     17  C   UNL     1      -6.536  12.679  19.463  0.00  0.00    +0.000 C 
ATOM     18  C   UNL     1      -6.971  11.536  20.410  0.00  0.00    +0.000 C 
ATOM     19  C   UNL     1      -7.731  13.023  18.560  0.00  0.00    +0.000 C 
ATOM     20  C   UNL     1      -5.324  12.266  18.598  0.00  0.00    +0.000 C 
ATOM     21  H   UNL     1      -3.108  11.195  17.815  0.00  0.00    +0.000 HD
ENDROOT
BRANCH   1  25
ATOM     22  C   UNL     1      -1.247  15.978  23.702  0.00  0.00    +0.000 A 
ATOM     23  C   UNL     1      -1.661  14.799  24.319  0.00  0.00    +0.000 A 
ATOM     24  C   UNL     1      -2.078  13.716  23.550  0.00  0.00    +0.000 A 
ATOM     25  C   UNL     1      -2.117  13.799  22.150  0.00  0.00    +0.000 A 
ATOM     26  C   UNL     1      -1.751  15.001  21.526  0.00  0.00    +0.000 A 
ATOM     27  C   UNL     1      -1.319  16.080  22.305  0.00  0.00    +0.000 A 
ATOM     28 BR   UNL     1      -0.805  17.669  21.397  0.00  0.00    +0.000 Br
BRANCH  22  30
ATOM     29  C   UNL     1      -1.295  17.151  25.743  0.00  0.00    +0.000 C 
ATOM     30  O   UNL     1      -0.794  17.063  24.411  0.00  0.00    +0.000 OA
ENDBRANCH  22  30
ENDBRANCH   1  25
TORSDOF 2
ENDMDL
MODEL 9
REMARK VINA RESULT:      -6.2      3.176      6.092
REMARK  Name = 
REMARK  7 active torsions:
REMARK  status: ('A' for Active; 'I' for Inactive)
REMARK    1  A    between atoms: C_1  and  O_2
REMARK    2  A    between atoms: O_2  and  C_3
REMARK    3  A    between atoms: C_6  and  C_7
REMARK    4  A    between atoms: C_11  and  C_12
REMARK    5  A    between atoms: C_11  and  C_13
REMARK    6  A    between atoms: C_23  and  C_24
REMARK    7  A    between atoms: C_23  and  C_25
REMARK                            x       y       z     vdW  Elec       q    Type
REMARK                         _______ _______ _______ _____ _____    ______ ____
ROOT
ATOM      1  C   UNL     1      -2.166  12.624  20.833  0.00  0.00    +0.000 C 
ATOM      2  C   UNL     1      -1.108  11.851  20.048  0.00  0.00    +0.000 C 
ATOM      3  C   UNL     1      -1.438  11.118  18.961  0.00  0.00    +0.000 C 
ATOM      4  C   UNL     1      -0.439  10.283  18.182  0.00  0.00    +0.000 C 
ATOM      5  C   UNL     1       0.908  10.051  18.906  0.00  0.00    +0.000 C 
ATOM      6  C   UNL     1       0.768   8.971  20.001  0.00  0.00    +0.000 C 
ATOM      7  C   UNL     1       1.967   9.575  17.899  0.00  0.00    +0.000 C 
ATOM      8  C   UNL     1       1.359  11.377  19.532  0.00  0.00    +0.000 C 
ATOM      9  C   UNL     1       0.312  11.862  20.507  0.00  0.00    +0.000 C 
ATOM     10  O   UNL     1       0.629  12.240  21.631  0.00  0.00    +0.000 OA
ATOM     11  N   UNL     1      -2.750  11.097  18.518  0.00  0.00    +0.000 N 
ATOM     12  C   UNL     1      -3.754  11.900  19.035  0.00  0.00    +0.000 C 
ATOM     13  C   UNL     1      -3.505  12.693  20.102  0.00  0.00    +0.000 C 
ATOM     14  C   UNL     1      -4.587  13.603  20.593  0.00  0.00    +0.000 C 
ATOM     15  O   UNL     1      -4.511  14.193  21.667  0.00  0.00    +0.000 OA
ATOM     16  C   UNL     1      -5.806  13.777  19.717  0.00  0.00    +0.000 C 
ATOM     17  C   UNL     1      -6.264  12.408  19.205  0.00  0.00    +0.000 C 
ATOM     18  C   UNL     1      -6.641  11.494  20.396  0.00  0.00    +0.000 C 
ATOM     19  C   UNL     1      -7.514  12.580  18.329  0.00  0.00    +0.000 C 
ATOM     20  C   UNL     1      -5.114  11.802  18.370  0.00  0.00    +0.000 C 
ATOM     21  H   UNL     1      -2.961  10.550  17.687  0.00  0.00    +0.000 HD
ENDROOT
BRANCH   1  25
ATOM     22  C   UNL     1      -0.690  16.413  22.320  0.00  0.00    +0.000 A 
ATOM     23  C   UNL     1      -1.090  15.403  23.194  0.00  0.00    +0.000 A 
ATOM     24  C   UNL     1      -1.561  14.193  22.695  0.00  0.00    +0.000 A 
ATOM     25  C   UNL     1      -1.671  13.977  21.312  0.00  0.00    +0.000 A 
ATOM     26  C   UNL     1      -1.319  15.008  20.429  0.00  0.00    +0.000 A 
ATOM     27  C   UNL     1      -0.832  16.217  20.939  0.00  0.00    +0.000 A 
ATOM     28 BR   UNL     1      -0.342  17.563  19.689  0.00  0.00    +0.000 Br
BRANCH  22  30
ATOM     29  C   UNL     1      -1.077  18.366  23.578  0.00  0.00    +0.000 C 
ATOM     30  O   UNL     1      -0.186  17.613  22.758  0.00  0.00    +0.000 OA
ENDBRANCH  22  30
ENDBRANCH   1  25
TORSDOF 2
ENDMDL
