MODEL 1
REMARK VINA RESULT:      -7.4      0.000      0.000
REMARK  Name = 
REMARK  10 active torsions:
REMARK  status: ('A' for Active; 'I' for Inactive)
REMARK    1  A    between atoms: C_1  and  O_2
REMARK    2  A    between atoms: O_2  and  C_3
REMARK    3  A    between atoms: C_5  and  C_6
REMARK    4  A    between atoms: C_6  and  C_8
REMARK    5  A    between atoms: C_10  and  N_11
REMARK    6  A    between atoms: C_18  and  C_19
REMARK    7  A    between atoms: C_25  and  O_26
REMARK    8  A    between atoms: O_26  and  C_27
REMARK    9  A    between atoms: C_28  and  O_29
REMARK   10  A    between atoms: O_29  and  C_30
REMARK                            x       y       z     vdW  Elec       q    Type
REMARK                         _______ _______ _______ _____ _____    ______ ____
ROOT
ATOM      1  C   UNL     1       1.987   8.636  18.881  0.00  0.00    +0.000 A 
ATOM      2  C   UNL     1       2.846   7.974  17.975  0.00  0.00    +0.000 A 
ATOM      3  C   UNL     1       3.325   6.685  18.220  0.00  0.00    +0.000 A 
ATOM      4  C   UNL     1       3.062   6.110  19.465  0.00  0.00    +0.000 A 
ATOM      5  C   UNL     1       2.274   6.794  20.403  0.00  0.00    +0.000 A 
ATOM      6  C   UNL     1       1.692   8.047  20.125  0.00  0.00    +0.000 A 
ENDROOT
BRANCH   3   7
ATOM      7  N   UNL     1       4.021   5.971  17.200  0.00  0.00    +0.000 N 
ATOM      8  C   UNL     1       4.068   4.602  17.019  0.00  0.00    +0.000 A 
ATOM      9  C   UNL     1       4.908   4.383  15.954  0.00  0.00    +0.000 A 
ATOM     10  N   UNL     1       5.385   5.562  15.464  0.00  0.00    +0.000 NA
ATOM     11  C   UNL     1       4.848   6.490  16.228  0.00  0.00    +0.000 A 
ENDBRANCH   3   7
BRANCH   6  12
ATOM     12  C   UNL     1       0.797   8.639  21.117  0.00  0.00    +0.000 A 
ATOM     13  C   UNL     1      -0.503   8.404  21.528  0.00  0.00    +0.000 A 
ATOM     14  C   UNL     1      -0.805   9.373  22.514  0.00  0.00    +0.000 A 
ATOM     15  C   UNL     1       0.336  10.116  22.676  0.00  0.00    +0.000 A 
ATOM     16  O   UNL     1       1.317   9.674  21.847  0.00  0.00    +0.000 OA
ENDBRANCH   6  12
BRANCH   1  17
ATOM     17  C   UNL     1       1.476   9.986  18.486  0.00  0.00    +0.000 C 
ATOM     18  O   UNL     1       2.248  10.839  18.062  0.00  0.00    +0.000 OA
BRANCH  17  21
ATOM     19  C   UNL     1      -1.738  11.835  19.061  0.00  0.00    +0.000 A 
ATOM     20  C   UNL     1      -0.463  11.294  19.266  0.00  0.00    +0.000 A 
ATOM     21  C   UNL     1       0.013  10.273  18.448  0.00  0.00    +0.000 A 
ATOM     22  C   UNL     1      -0.854   9.668  17.542  0.00  0.00    +0.000 A 
ATOM     23  C   UNL     1      -2.135  10.190  17.317  0.00  0.00    +0.000 A 
ATOM     24  C   UNL     1      -2.587  11.300  18.064  0.00  0.00    +0.000 A 
BRANCH  19  26
ATOM     25  C   UNL     1      -2.619  12.534  21.151  0.00  0.00    +0.000 C 
ATOM     26  O   UNL     1      -2.178  12.878  19.837  0.00  0.00    +0.000 OA
ENDBRANCH  19  26
BRANCH  23  27
ATOM     27  O   UNL     1      -2.757   9.521  16.293  0.00  0.00    +0.000 OA
ATOM     28  C   UNL     1      -2.817  10.108  15.003  0.00  0.00    +0.000 C 
ENDBRANCH  23  27
BRANCH  24  29
ATOM     29  O   UNL     1      -3.844  11.763  17.773  0.00  0.00    +0.000 OA
ATOM     30  C   UNL     1      -4.968  11.178  18.415  0.00  0.00    +0.000 C 
ENDBRANCH  24  29
ENDBRANCH  17  21
ENDBRANCH   1  17
TORSDOF 7
ENDMDL
MODEL 2
REMARK VINA RESULT:      -7.2      1.820      2.838
REMARK  Name = 
REMARK  10 active torsions:
REMARK  status: ('A' for Active; 'I' for Inactive)
REMARK    1  A    between atoms: C_1  and  O_2
REMARK    2  A    between atoms: O_2  and  C_3
REMARK    3  A    between atoms: C_5  and  C_6
REMARK    4  A    between atoms: C_6  and  C_8
REMARK    5  A    between atoms: C_10  and  N_11
REMARK    6  A    between atoms: C_18  and  C_19
REMARK    7  A    between atoms: C_25  and  O_26
REMARK    8  A    between atoms: O_26  and  C_27
REMARK    9  A    between atoms: C_28  and  O_29
REMARK   10  A    between atoms: O_29  and  C_30
REMARK                            x       y       z     vdW  Elec       q    Type
REMARK                         _______ _______ _______ _____ _____    ______ ____
ROOT
ATOM      1  C   UNL     1       0.314  10.307  20.096  0.00  0.00    +0.000 A 
ATOM      2  C   UNL     1       1.056   9.278  19.472  0.00  0.00    +0.000 A 
ATOM      3  C   UNL     1       1.635   8.238  20.205  0.00  0.00    +0.000 A 
ATOM      4  C   UNL     1       1.599   8.314  21.599  0.00  0.00    +0.000 A 
ATOM      5  C   UNL     1       0.931   9.376  22.228  0.00  0.00    +0.000 A 
ATOM      6  C   UNL     1       0.247  10.371  21.499  0.00  0.00    +0.000 A 
ENDROOT
BRANCH   3   7
ATOM      7  N   UNL     1       2.201   7.114  19.533  0.00  0.00    +0.000 N 
ATOM      8  C   UNL     1       2.736   7.083  18.260  0.00  0.00    +0.000 A 
ATOM      9  C   UNL     1       3.095   5.777  18.025  0.00  0.00    +0.000 A 
ATOM     10  N   UNL     1       2.807   4.995  19.105  0.00  0.00    +0.000 NA
ATOM     11  C   UNL     1       2.268   5.814  19.984  0.00  0.00    +0.000 A 
ENDBRANCH   3   7
BRANCH   6  12
ATOM     12  C   UNL     1      -0.513  11.378  22.237  0.00  0.00    +0.000 A 
ATOM     13  C   UNL     1      -1.644  11.364  23.033  0.00  0.00    +0.000 A 
ATOM     14  C   UNL     1      -1.898  12.703  23.413  0.00  0.00    +0.000 A 
ATOM     15  C   UNL     1      -0.888  13.450  22.862  0.00  0.00    +0.000 A 
ATOM     16  O   UNL     1      -0.037  12.660  22.159  0.00  0.00    +0.000 OA
ENDBRANCH   6  12
BRANCH   1  17
ATOM     17  C   UNL     1      -0.323  11.331  19.209  0.00  0.00    +0.000 C 
ATOM     18  O   UNL     1       0.365  12.182  18.655  0.00  0.00    +0.000 OA
BRANCH  17  21
ATOM     19  C   UNL     1      -3.956  12.265  19.119  0.00  0.00    +0.000 A 
ATOM     20  C   UNL     1      -2.654  12.040  19.584  0.00  0.00    +0.000 A 
ATOM     21  C   UNL     1      -1.770  11.249  18.856  0.00  0.00    +0.000 A 
ATOM     22  C   UNL     1      -2.241  10.534  17.759  0.00  0.00    +0.000 A 
ATOM     23  C   UNL     1      -3.540  10.741  17.273  0.00  0.00    +0.000 A 
ATOM     24  C   UNL     1      -4.411  11.630  17.939  0.00  0.00    +0.000 A 
BRANCH  19  26
ATOM     25  C   UNL     1      -4.991  12.771  21.193  0.00  0.00    +0.000 C 
ATOM     26  O   UNL     1      -4.804  13.090  19.815  0.00  0.00    +0.000 OA
ENDBRANCH  19  26
BRANCH  23  27
ATOM     27  O   UNL     1      -3.739  10.036  16.112  0.00  0.00    +0.000 OA
ATOM     28  C   UNL     1      -3.142  10.484  14.906  0.00  0.00    +0.000 C 
ENDBRANCH  23  27
BRANCH  24  29
ATOM     29  O   UNL     1      -5.657  11.793  17.392  0.00  0.00    +0.000 OA
ATOM     30  C   UNL     1      -6.788  11.261  18.067  0.00  0.00    +0.000 C 
ENDBRANCH  24  29
ENDBRANCH  17  21
ENDBRANCH   1  17
TORSDOF 7
ENDMDL
MODEL 3
REMARK VINA RESULT:      -7.0      2.031      4.034
REMARK  Name = 
REMARK  10 active torsions:
REMARK  status: ('A' for Active; 'I' for Inactive)
REMARK    1  A    between atoms: C_1  and  O_2
REMARK    2  A    between atoms: O_2  and  C_3
REMARK    3  A    between atoms: C_5  and  C_6
REMARK    4  A    between atoms: C_6  and  C_8
REMARK    5  A    between atoms: C_10  and  N_11
REMARK    6  A    between atoms: C_18  and  C_19
REMARK    7  A    between atoms: C_25  and  O_26
REMARK    8  A    between atoms: O_26  and  C_27
REMARK    9  A    between atoms: C_28  and  O_29
REMARK   10  A    between atoms: O_29  and  C_30
REMARK                            x       y       z     vdW  Elec       q    Type
REMARK                         _______ _______ _______ _____ _____    ______ ____
ROOT
ATOM      1  C   UNL     1      -0.023  10.890  20.552  0.00  0.00    +0.000 A 
ATOM      2  C   UNL     1       0.763   9.890  19.936  0.00  0.00    +0.000 A 
ATOM      3  C   UNL     1       1.218   8.771  20.639  0.00  0.00    +0.000 A 
ATOM      4  C   UNL     1       1.009   8.730  22.019  0.00  0.00    +0.000 A 
ATOM      5  C   UNL     1       0.296   9.760  22.653  0.00  0.00    +0.000 A 
ATOM      6  C   UNL     1      -0.264  10.837  21.937  0.00  0.00    +0.000 A 
ENDROOT
BRANCH   3   7
ATOM      7  N   UNL     1       1.834   7.688  19.945  0.00  0.00    +0.000 N 
ATOM      8  C   UNL     1       2.346   7.699  18.662  0.00  0.00    +0.000 A 
ATOM      9  C   UNL     1       2.774   6.418  18.407  0.00  0.00    +0.000 A 
ATOM     10  N   UNL     1       2.551   5.611  19.483  0.00  0.00    +0.000 NA
ATOM     11  C   UNL     1       1.984   6.389  20.380  0.00  0.00    +0.000 A 
ENDBRANCH   3   7
BRANCH   6  12
ATOM     12  C   UNL     1      -1.085  11.806  22.661  0.00  0.00    +0.000 A 
ATOM     13  C   UNL     1      -2.380  11.826  23.147  0.00  0.00    +0.000 A 
ATOM     14  C   UNL     1      -2.586  13.103  23.720  0.00  0.00    +0.000 A 
ATOM     15  C   UNL     1      -1.398  13.774  23.587  0.00  0.00    +0.000 A 
ATOM     16  O   UNL     1      -0.477  12.997  22.960  0.00  0.00    +0.000 OA
ENDBRANCH   6  12
BRANCH   1  17
ATOM     17  C   UNL     1      -0.516  12.008  19.689  0.00  0.00    +0.000 C 
ATOM     18  O   UNL     1       0.249  12.899  19.334  0.00  0.00    +0.000 OA
BRANCH  17  21
ATOM     19  C   UNL     1      -3.393  10.898  17.550  0.00  0.00    +0.000 A 
ATOM     20  C   UNL     1      -2.097  11.229  17.964  0.00  0.00    +0.000 A 
ATOM     21  C   UNL     1      -1.892  11.986  19.114  0.00  0.00    +0.000 A 
ATOM     22  C   UNL     1      -2.986  12.568  19.747  0.00  0.00    +0.000 A 
ATOM     23  C   UNL     1      -4.294  12.253  19.354  0.00  0.00    +0.000 A 
ATOM     24  C   UNL     1      -4.514  11.393  18.256  0.00  0.00    +0.000 A 
BRANCH  19  26
ATOM     25  C   UNL     1      -3.251  10.696  15.190  0.00  0.00    +0.000 C 
ATOM     26  O   UNL     1      -3.583  10.104  16.446  0.00  0.00    +0.000 OA
ENDBRANCH  19  26
BRANCH  23  27
ATOM     27  O   UNL     1      -5.207  12.832  20.200  0.00  0.00    +0.000 OA
ATOM     28  C   UNL     1      -5.874  14.021  19.808  0.00  0.00    +0.000 C 
ENDBRANCH  23  27
BRANCH  24  29
ATOM     29  O   UNL     1      -5.820  11.118  17.944  0.00  0.00    +0.000 OA
ATOM     30  C   UNL     1      -6.564  10.238  18.775  0.00  0.00    +0.000 C 
ENDBRANCH  24  29
ENDBRANCH  17  21
ENDBRANCH   1  17
TORSDOF 7
ENDMDL
MODEL 4
REMARK VINA RESULT:      -6.9      2.280      4.446
REMARK  Name = 
REMARK  10 active torsions:
REMARK  status: ('A' for Active; 'I' for Inactive)
REMARK    1  A    between atoms: C_1  and  O_2
REMARK    2  A    between atoms: O_2  and  C_3
REMARK    3  A    between atoms: C_5  and  C_6
REMARK    4  A    between atoms: C_6  and  C_8
REMARK    5  A    between atoms: C_10  and  N_11
REMARK    6  A    between atoms: C_18  and  C_19
REMARK    7  A    between atoms: C_25  and  O_26
REMARK    8  A    between atoms: O_26  and  C_27
REMARK    9  A    between atoms: C_28  and  O_29
REMARK   10  A    between atoms: O_29  and  C_30
REMARK                            x       y       z     vdW  Elec       q    Type
REMARK                         _______ _______ _______ _____ _____    ______ ____
ROOT
ATOM      1  C   UNL     1      -0.442  11.041  20.851  0.00  0.00    +0.000 A 
ATOM      2  C   UNL     1       0.372  10.033  20.287  0.00  0.00    +0.000 A 
ATOM      3  C   UNL     1       0.806   8.933  21.032  0.00  0.00    +0.000 A 
ATOM      4  C   UNL     1       0.546   8.921  22.403  0.00  0.00    +0.000 A 
ATOM      5  C   UNL     1      -0.196   9.960  22.987  0.00  0.00    +0.000 A 
ATOM      6  C   UNL     1      -0.734  11.018  22.227  0.00  0.00    +0.000 A 
ENDROOT
BRANCH   3   7
ATOM      7  N   UNL     1       1.453   7.838  20.385  0.00  0.00    +0.000 N 
ATOM      8  C   UNL     1       1.512   6.527  20.817  0.00  0.00    +0.000 A 
ATOM      9  C   UNL     1       2.293   5.856  19.906  0.00  0.00    +0.000 A 
ATOM     10  N   UNL     1       2.720   6.699  18.923  0.00  0.00    +0.000 NA
ATOM     11  C   UNL     1       2.214   7.872  19.237  0.00  0.00    +0.000 A 
ENDBRANCH   3   7
BRANCH   6  12
ATOM     12  C   UNL     1      -1.586  11.998  22.898  0.00  0.00    +0.000 A 
ATOM     13  C   UNL     1      -1.476  13.341  23.212  0.00  0.00    +0.000 A 
ATOM     14  C   UNL     1      -2.647  13.695  23.923  0.00  0.00    +0.000 A 
ATOM     15  C   UNL     1      -3.419  12.563  23.968  0.00  0.00    +0.000 A 
ATOM     16  O   UNL     1      -2.796  11.532  23.340  0.00  0.00    +0.000 OA
ENDBRANCH   6  12
BRANCH   1  17
ATOM     17  C   UNL     1      -0.908  12.137  19.945  0.00  0.00    +0.000 C 
ATOM     18  O   UNL     1      -0.120  12.990  19.549  0.00  0.00    +0.000 OA
BRANCH  17  21
ATOM     19  C   UNL     1      -3.775  11.144  17.737  0.00  0.00    +0.000 A 
ATOM     20  C   UNL     1      -2.484  11.469  18.170  0.00  0.00    +0.000 A 
ATOM     21  C   UNL     1      -2.288  12.131  19.378  0.00  0.00    +0.000 A 
ATOM     22  C   UNL     1      -3.390  12.632  20.065  0.00  0.00    +0.000 A 
ATOM     23  C   UNL     1      -4.694  12.320  19.654  0.00  0.00    +0.000 A 
ATOM     24  C   UNL     1      -4.902  11.550  18.489  0.00  0.00    +0.000 A 
BRANCH  19  26
ATOM     25  C   UNL     1      -3.055  10.756  15.510  0.00  0.00    +0.000 C 
ATOM     26  O   UNL     1      -3.956  10.442  16.571  0.00  0.00    +0.000 OA
ENDBRANCH  19  26
BRANCH  23  27
ATOM     27  O   UNL     1      -5.612  12.804  20.552  0.00  0.00    +0.000 OA
ATOM     28  C   UNL     1      -5.383  14.050  21.190  0.00  0.00    +0.000 C 
ENDBRANCH  23  27
BRANCH  24  29
ATOM     29  O   UNL     1      -6.204  11.273  18.163  0.00  0.00    +0.000 OA
ATOM     30  C   UNL     1      -6.882  10.222  18.838  0.00  0.00    +0.000 C 
ENDBRANCH  24  29
ENDBRANCH  17  21
ENDBRANCH   1  17
TORSDOF 7
ENDMDL
MODEL 5
REMARK VINA RESULT:      -6.9      1.156      2.708
REMARK  Name = 
REMARK  10 active torsions:
REMARK  status: ('A' for Active; 'I' for Inactive)
REMARK    1  A    between atoms: C_1  and  O_2
REMARK    2  A    between atoms: O_2  and  C_3
REMARK    3  A    between atoms: C_5  and  C_6
REMARK    4  A    between atoms: C_6  and  C_8
REMARK    5  A    between atoms: C_10  and  N_11
REMARK    6  A    between atoms: C_18  and  C_19
REMARK    7  A    between atoms: C_25  and  O_26
REMARK    8  A    between atoms: O_26  and  C_27
REMARK    9  A    between atoms: C_28  and  O_29
REMARK   10  A    between atoms: O_29  and  C_30
REMARK                            x       y       z     vdW  Elec       q    Type
REMARK                         _______ _______ _______ _____ _____    ______ ____
ROOT
ATOM      1  C   UNL     1       1.178   9.405  19.479  0.00  0.00    +0.000 A 
ATOM      2  C   UNL     1       1.911   8.470  18.713  0.00  0.00    +0.000 A 
ATOM      3  C   UNL     1       2.279   7.224  19.227  0.00  0.00    +0.000 A 
ATOM      4  C   UNL     1       2.041   6.971  20.580  0.00  0.00    +0.000 A 
ATOM      5  C   UNL     1       1.382   7.928  21.367  0.00  0.00    +0.000 A 
ATOM      6  C   UNL     1       0.907   9.143  20.834  0.00  0.00    +0.000 A 
ENDROOT
BRANCH   3   7
ATOM      7  N   UNL     1       2.838   6.230  18.370  0.00  0.00    +0.000 N 
ATOM      8  C   UNL     1       2.411   4.927  18.209  0.00  0.00    +0.000 A 
ATOM      9  C   UNL     1       3.292   4.337  17.334  0.00  0.00    +0.000 A 
ATOM     10  N   UNL     1       4.250   5.225  16.942  0.00  0.00    +0.000 NA
ATOM     11  C   UNL     1       3.962   6.340  17.579  0.00  0.00    +0.000 A 
ENDBRANCH   3   7
BRANCH   6  12
ATOM     12  C   UNL     1       0.136  10.033  21.700  0.00  0.00    +0.000 A 
ATOM     13  C   UNL     1      -0.945   9.880  22.550  0.00  0.00    +0.000 A 
ATOM     14  C   UNL     1      -1.249  11.162  23.066  0.00  0.00    +0.000 A 
ATOM     15  C   UNL     1      -0.315  12.014  22.535  0.00  0.00    +0.000 A 
ATOM     16  O   UNL     1       0.537  11.342  21.718  0.00  0.00    +0.000 OA
ENDBRANCH   6  12
BRANCH   1  17
ATOM     17  C   UNL     1       0.775  10.680  18.807  0.00  0.00    +0.000 C 
ATOM     18  O   UNL     1       1.626  11.493  18.460  0.00  0.00    +0.000 OA
BRANCH  17  21
ATOM     19  C   UNL     1      -2.492  10.156  17.036  0.00  0.00    +0.000 A 
ATOM     20  C   UNL     1      -1.117  10.236  17.289  0.00  0.00    +0.000 A 
ATOM     21  C   UNL     1      -0.641  10.922  18.403  0.00  0.00    +0.000 A 
ATOM     22  C   UNL     1      -1.525  11.683  19.161  0.00  0.00    +0.000 A 
ATOM     23  C   UNL     1      -2.906  11.621  18.930  0.00  0.00    +0.000 A 
ATOM     24  C   UNL     1      -3.410  10.835  17.871  0.00  0.00    +0.000 A 
BRANCH  19  26
ATOM     25  C   UNL     1      -3.040  10.134  14.728  0.00  0.00    +0.000 C 
ATOM     26  O   UNL     1      -2.956   9.431  15.967  0.00  0.00    +0.000 OA
ENDBRANCH  19  26
BRANCH  23  27
ATOM     27  O   UNL     1      -3.588  12.342  19.878  0.00  0.00    +0.000 OA
ATOM     28  C   UNL     1      -2.979  13.478  20.470  0.00  0.00    +0.000 C 
ENDBRANCH  23  27
BRANCH  24  29
ATOM     29  O   UNL     1      -4.772  10.811  17.720  0.00  0.00    +0.000 OA
ATOM     30  C   UNL     1      -5.428  11.930  17.141  0.00  0.00    +0.000 C 
ENDBRANCH  24  29
ENDBRANCH  17  21
ENDBRANCH   1  17
TORSDOF 7
ENDMDL
MODEL 6
REMARK VINA RESULT:      -6.9      1.047      1.252
REMARK  Name = 
REMARK  10 active torsions:
REMARK  status: ('A' for Active; 'I' for Inactive)
REMARK    1  A    between atoms: C_1  and  O_2
REMARK    2  A    between atoms: O_2  and  C_3
REMARK    3  A    between atoms: C_5  and  C_6
REMARK    4  A    between atoms: C_6  and  C_8
REMARK    5  A    between atoms: C_10  and  N_11
REMARK    6  A    between atoms: C_18  and  C_19
REMARK    7  A    between atoms: C_25  and  O_26
REMARK    8  A    between atoms: O_26  and  C_27
REMARK    9  A    between atoms: C_28  and  O_29
REMARK   10  A    between atoms: O_29  and  C_30
REMARK                            x       y       z     vdW  Elec       q    Type
REMARK                         _______ _______ _______ _____ _____    ______ ____
ROOT
ATOM      1  C   UNL     1       1.185   9.243  19.383  0.00  0.00    +0.000 A 
ATOM      2  C   UNL     1       1.957   8.387  18.566  0.00  0.00    +0.000 A 
ATOM      3  C   UNL     1       2.469   7.177  19.042  0.00  0.00    +0.000 A 
ATOM      4  C   UNL     1       2.334   6.893  20.402  0.00  0.00    +0.000 A 
ATOM      5  C   UNL     1       1.636   7.778  21.238  0.00  0.00    +0.000 A 
ATOM      6  C   UNL     1       1.019   8.946  20.748  0.00  0.00    +0.000 A 
ENDROOT
BRANCH   3   7
ATOM      7  N   UNL     1       3.069   6.247  18.141  0.00  0.00    +0.000 N 
ATOM      8  C   UNL     1       2.696   4.935  17.922  0.00  0.00    +0.000 A 
ATOM      9  C   UNL     1       3.600   4.423  17.022  0.00  0.00    +0.000 A 
ATOM     10  N   UNL     1       4.519   5.367  16.670  0.00  0.00    +0.000 NA
ATOM     11  C   UNL     1       4.185   6.439  17.356  0.00  0.00    +0.000 A 
ENDBRANCH   3   7
BRANCH   6  12
ATOM     12  C   UNL     1       0.219   9.753  21.669  0.00  0.00    +0.000 A 
ATOM     13  C   UNL     1      -0.817   9.498  22.549  0.00  0.00    +0.000 A 
ATOM     14  C   UNL     1      -1.191  10.739  23.117  0.00  0.00    +0.000 A 
ATOM     15  C   UNL     1      -0.338  11.671  22.582  0.00  0.00    +0.000 A 
ATOM     16  O   UNL     1       0.529  11.086  21.715  0.00  0.00    +0.000 OA
ENDBRANCH   6  12
BRANCH   1  17
ATOM     17  C   UNL     1       0.626  10.479  18.752  0.00  0.00    +0.000 C 
ATOM     18  O   UNL     1       1.378  11.345  18.316  0.00  0.00    +0.000 OA
BRANCH  17  21
ATOM     19  C   UNL     1      -2.809  11.987  18.839  0.00  0.00    +0.000 A 
ATOM     20  C   UNL     1      -1.530  11.575  19.232  0.00  0.00    +0.000 A 
ATOM     21  C   UNL     1      -0.837  10.618  18.496  0.00  0.00    +0.000 A 
ATOM     22  C   UNL     1      -1.494   9.939  17.475  0.00  0.00    +0.000 A 
ATOM     23  C   UNL     1      -2.775  10.332  17.060  0.00  0.00    +0.000 A 
ATOM     24  C   UNL     1      -3.443  11.381  17.729  0.00  0.00    +0.000 A 
BRANCH  19  26
ATOM     25  C   UNL     1      -3.991  12.586  20.807  0.00  0.00    +0.000 C 
ATOM     26  O   UNL     1      -3.462  12.971  19.539  0.00  0.00    +0.000 OA
ENDBRANCH  19  26
BRANCH  23  27
ATOM     27  O   UNL     1      -3.167   9.616  15.958  0.00  0.00    +0.000 OA
ATOM     28  C   UNL     1      -2.945  10.144  14.660  0.00  0.00    +0.000 C 
ENDBRANCH  23  27
BRANCH  24  29
ATOM     29  O   UNL     1      -4.683  11.719  17.254  0.00  0.00    +0.000 OA
ATOM     30  C   UNL     1      -5.837  11.142  17.849  0.00  0.00    +0.000 C 
ENDBRANCH  24  29
ENDBRANCH  17  21
ENDBRANCH   1  17
TORSDOF 7
ENDMDL
MODEL 7
REMARK VINA RESULT:      -6.9      4.611      7.606
REMARK  Name = 
REMARK  10 active torsions:
REMARK  status: ('A' for Active; 'I' for Inactive)
REMARK    1  A    between atoms: C_1  and  O_2
REMARK    2  A    between atoms: O_2  and  C_3
REMARK    3  A    between atoms: C_5  and  C_6
REMARK    4  A    between atoms: C_6  and  C_8
REMARK    5  A    between atoms: C_10  and  N_11
REMARK    6  A    between atoms: C_18  and  C_19
REMARK    7  A    between atoms: C_25  and  O_26
REMARK    8  A    between atoms: O_26  and  C_27
REMARK    9  A    between atoms: C_28  and  O_29
REMARK   10  A    between atoms: O_29  and  C_30
REMARK                            x       y       z     vdW  Elec       q    Type
REMARK                         _______ _______ _______ _____ _____    ______ ____
ROOT
ATOM      1  C   UNL     1       5.441   5.475  15.887  0.00  0.00    +0.000 A 
ATOM      2  C   UNL     1       5.003   4.934  14.657  0.00  0.00    +0.000 A 
ATOM      3  C   UNL     1       5.874   4.264  13.794  0.00  0.00    +0.000 A 
ATOM      4  C   UNL     1       7.237   4.270  14.097  0.00  0.00    +0.000 A 
ATOM      5  C   UNL     1       7.691   4.875  15.279  0.00  0.00    +0.000 A 
ATOM      6  C   UNL     1       6.810   5.456  16.213  0.00  0.00    +0.000 A 
ENDROOT
BRANCH   3   7
ATOM      7  N   UNL     1       5.364   3.559  12.664  0.00  0.00    +0.000 N 
ATOM      8  C   UNL     1       4.175   3.790  12.000  0.00  0.00    +0.000 A 
ATOM      9  C   UNL     1       4.084   2.825  11.025  0.00  0.00    +0.000 A 
ATOM     10  N   UNL     1       5.173   2.004  11.055  0.00  0.00    +0.000 NA
ATOM     11  C   UNL     1       5.913   2.457  12.044  0.00  0.00    +0.000 A 
ENDBRANCH   3   7
BRANCH   6  12
ATOM     12  C   UNL     1       7.358   5.966  17.469  0.00  0.00    +0.000 A 
ATOM     13  C   UNL     1       7.812   7.194  17.913  0.00  0.00    +0.000 A 
ATOM     14  C   UNL     1       8.269   7.011  19.240  0.00  0.00    +0.000 A 
ATOM     15  C   UNL     1       8.032   5.694  19.541  0.00  0.00    +0.000 A 
ATOM     16  O   UNL     1       7.469   5.053  18.484  0.00  0.00    +0.000 OA
ENDBRANCH   6  12
BRANCH   1  17
ATOM     17  C   UNL     1       4.410   6.109  16.767  0.00  0.00    +0.000 C 
ATOM     18  O   UNL     1       4.013   7.246  16.535  0.00  0.00    +0.000 OA
BRANCH  17  21
ATOM     19  C   UNL     1       2.196   5.417  19.716  0.00  0.00    +0.000 A 
ATOM     20  C   UNL     1       3.110   6.044  18.861  0.00  0.00    +0.000 A 
ATOM     21  C   UNL     1       3.732   5.328  17.842  0.00  0.00    +0.000 A 
ATOM     22  C   UNL     1       3.579   3.946  17.791  0.00  0.00    +0.000 A 
ATOM     23  C   UNL     1       2.669   3.293  18.635  0.00  0.00    +0.000 A 
ATOM     24  C   UNL     1       1.947   4.029  19.599  0.00  0.00    +0.000 A 
BRANCH  19  26
ATOM     25  C   UNL     1       1.731   7.557  20.629  0.00  0.00    +0.000 C 
ATOM     26  O   UNL     1       1.546   6.143  20.684  0.00  0.00    +0.000 OA
ENDBRANCH  19  26
BRANCH  23  27
ATOM     27  O   UNL     1       2.586   1.960  18.318  0.00  0.00    +0.000 OA
ATOM     28  C   UNL     1       3.686   1.104  18.584  0.00  0.00    +0.000 C 
ENDBRANCH  23  27
BRANCH  24  29
ATOM     29  O   UNL     1       1.064   3.323  20.373  0.00  0.00    +0.000 OA
ATOM     30  C   UNL     1       1.516   2.733  21.584  0.00  0.00    +0.000 C 
ENDBRANCH  24  29
ENDBRANCH  17  21
ENDBRANCH   1  17
TORSDOF 7
ENDMDL
MODEL 8
REMARK VINA RESULT:      -6.7      4.605      7.967
REMARK  Name = 
REMARK  10 active torsions:
REMARK  status: ('A' for Active; 'I' for Inactive)
REMARK    1  A    between atoms: C_1  and  O_2
REMARK    2  A    between atoms: O_2  and  C_3
REMARK    3  A    between atoms: C_5  and  C_6
REMARK    4  A    between atoms: C_6  and  C_8
REMARK    5  A    between atoms: C_10  and  N_11
REMARK    6  A    between atoms: C_18  and  C_19
REMARK    7  A    between atoms: C_25  and  O_26
REMARK    8  A    between atoms: O_26  and  C_27
REMARK    9  A    between atoms: C_28  and  O_29
REMARK   10  A    between atoms: O_29  and  C_30
REMARK                            x       y       z     vdW  Elec       q    Type
REMARK                         _______ _______ _______ _____ _____    ______ ____
ROOT
ATOM      1  C   UNL     1       5.434   5.510  15.813  0.00  0.00    +0.000 A 
ATOM      2  C   UNL     1       4.984   4.920  14.610  0.00  0.00    +0.000 A 
ATOM      3  C   UNL     1       5.849   4.227  13.759  0.00  0.00    +0.000 A 
ATOM      4  C   UNL     1       7.216   4.255  14.044  0.00  0.00    +0.000 A 
ATOM      5  C   UNL     1       7.681   4.906  15.197  0.00  0.00    +0.000 A 
ATOM      6  C   UNL     1       6.807   5.513  16.121  0.00  0.00    +0.000 A 
ENDROOT
BRANCH   3   7
ATOM      7  N   UNL     1       5.330   3.476  12.663  0.00  0.00    +0.000 N 
ATOM      8  C   UNL     1       5.938   2.425  12.006  0.00  0.00    +0.000 A 
ATOM      9  C   UNL     1       5.091   2.066  10.984  0.00  0.00    +0.000 A 
ATOM     10  N   UNL     1       3.978   2.853  10.982  0.00  0.00    +0.000 NA
ATOM     11  C   UNL     1       4.149   3.688  11.985  0.00  0.00    +0.000 A 
ENDBRANCH   3   7
BRANCH   6  12
ATOM     12  C   UNL     1       7.367   6.073  17.349  0.00  0.00    +0.000 A 
ATOM     13  C   UNL     1       7.781   7.329  17.755  0.00  0.00    +0.000 A 
ATOM     14  C   UNL     1       8.281   7.194  19.071  0.00  0.00    +0.000 A 
ATOM     15  C   UNL     1       8.109   5.875  19.407  0.00  0.00    +0.000 A 
ATOM     16  O   UNL     1       7.545   5.189  18.380  0.00  0.00    +0.000 OA
ENDBRANCH   6  12
BRANCH   1  17
ATOM     17  C   UNL     1       4.410   6.167  16.683  0.00  0.00    +0.000 C 
ATOM     18  O   UNL     1       4.023   7.303  16.433  0.00  0.00    +0.000 OA
BRANCH  17  21
ATOM     19  C   UNL     1       3.816   3.470  19.225  0.00  0.00    +0.000 A 
ATOM     20  C   UNL     1       4.176   4.119  18.037  0.00  0.00    +0.000 A 
ATOM     21  C   UNL     1       3.725   5.409  17.771  0.00  0.00    +0.000 A 
ATOM     22  C   UNL     1       2.767   5.980  18.603  0.00  0.00    +0.000 A 
ATOM     23  C   UNL     1       2.390   5.352  19.799  0.00  0.00    +0.000 A 
ATOM     24  C   UNL     1       2.929   4.092  20.136  0.00  0.00    +0.000 A 
BRANCH  19  26
ATOM     25  C   UNL     1       3.791   1.154  18.712  0.00  0.00    +0.000 C 
ATOM     26  O   UNL     1       4.310   2.221  19.505  0.00  0.00    +0.000 OA
ENDBRANCH  19  26
BRANCH  23  27
ATOM     27  O   UNL     1       1.542   6.155  20.520  0.00  0.00    +0.000 OA
ATOM     28  C   UNL     1       1.765   7.555  20.562  0.00  0.00    +0.000 C 
ENDBRANCH  23  27
BRANCH  24  29
ATOM     29  O   UNL     1       2.526   3.551  21.329  0.00  0.00    +0.000 OA
ATOM     30  C   UNL     1       1.369   2.727  21.364  0.00  0.00    +0.000 C 
ENDBRANCH  24  29
ENDBRANCH  17  21
ENDBRANCH   1  17
TORSDOF 7
ENDMDL
MODEL 9
REMARK VINA RESULT:      -6.6      4.317      5.712
REMARK  Name = 
REMARK  10 active torsions:
REMARK  status: ('A' for Active; 'I' for Inactive)
REMARK    1  A    between atoms: C_1  and  O_2
REMARK    2  A    between atoms: O_2  and  C_3
REMARK    3  A    between atoms: C_5  and  C_6
REMARK    4  A    between atoms: C_6  and  C_8
REMARK    5  A    between atoms: C_10  and  N_11
REMARK    6  A    between atoms: C_18  and  C_19
REMARK    7  A    between atoms: C_25  and  O_26
REMARK    8  A    between atoms: O_26  and  C_27
REMARK    9  A    between atoms: C_28  and  O_29
REMARK   10  A    between atoms: O_29  and  C_30
REMARK                            x       y       z     vdW  Elec       q    Type
REMARK                         _______ _______ _______ _____ _____    ______ ____
ROOT
ATOM      1  C   UNL     1       0.525  12.349  19.462  0.00  0.00    +0.000 A 
ATOM      2  C   UNL     1       0.907  13.468  18.688  0.00  0.00    +0.000 A 
ATOM      3  C   UNL     1       1.499  14.596  19.264  0.00  0.00    +0.000 A 
ATOM      4  C   UNL     1       1.571  14.665  20.656  0.00  0.00    +0.000 A 
ATOM      5  C   UNL     1       1.121  13.589  21.437  0.00  0.00    +0.000 A 
ATOM      6  C   UNL     1       0.625  12.400  20.865  0.00  0.00    +0.000 A 
ENDROOT
BRANCH   3   7
ATOM      7  N   UNL     1       2.053  15.617  18.436  0.00  0.00    +0.000 N 
ATOM      8  C   UNL     1       3.198  15.543  17.668  0.00  0.00    +0.000 A 
ATOM      9  C   UNL     1       3.364  16.785  17.102  0.00  0.00    +0.000 A 
ATOM     10  N   UNL     1       2.364  17.628  17.486  0.00  0.00    +0.000 NA
ATOM     11  C   UNL     1       1.603  16.911  18.286  0.00  0.00    +0.000 A 
ENDBRANCH   3   7
BRANCH   6  12
ATOM     12  C   UNL     1       0.281  11.289  21.750  0.00  0.00    +0.000 A 
ATOM     13  C   UNL     1      -0.802  10.971  22.549  0.00  0.00    +0.000 A 
ATOM     14  C   UNL     1      -0.490   9.755  23.203  0.00  0.00    +0.000 A 
ATOM     15  C   UNL     1       0.745   9.382  22.737  0.00  0.00    +0.000 A 
ATOM     16  O   UNL     1       1.217  10.294  21.848  0.00  0.00    +0.000 OA
ENDBRANCH   6  12
BRANCH   1  17
ATOM     17  C   UNL     1      -0.035  11.167  18.735  0.00  0.00    +0.000 C 
ATOM     18  O   UNL     1       0.690  10.222  18.442  0.00  0.00    +0.000 OA
BRANCH  17  21
ATOM     19  C   UNL     1      -3.693  11.983  18.918  0.00  0.00    +0.000 A 
ATOM     20  C   UNL     1      -2.354  11.801  19.284  0.00  0.00    +0.000 A 
ATOM     21  C   UNL     1      -1.500  11.038  18.491  0.00  0.00    +0.000 A 
ATOM     22  C   UNL     1      -2.029  10.307  17.431  0.00  0.00    +0.000 A 
ATOM     23  C   UNL     1      -3.367  10.472  17.043  0.00  0.00    +0.000 A 
ATOM     24  C   UNL     1      -4.214  11.333  17.774  0.00  0.00    +0.000 A 
BRANCH  19  26
ATOM     25  C   UNL     1      -4.272  12.762  21.083  0.00  0.00    +0.000 C 
ATOM     26  O   UNL     1      -4.513  12.782  19.676  0.00  0.00    +0.000 OA
ENDBRANCH  19  26
BRANCH  23  27
ATOM     27  O   UNL     1      -3.629   9.759  15.900  0.00  0.00    +0.000 OA
ATOM     28  C   UNL     1      -3.254  10.289  14.639  0.00  0.00    +0.000 C 
ENDBRANCH  23  27
BRANCH  24  29
ATOM     29  O   UNL     1      -5.501  11.455  17.322  0.00  0.00    +0.000 OA
ATOM     30  C   UNL     1      -6.572  11.007  18.142  0.00  0.00    +0.000 C 
ENDBRANCH  24  29
ENDBRANCH  17  21
ENDBRANCH   1  17
TORSDOF 7
ENDMDL
