MODEL 1
REMARK VINA RESULT:      -9.0      0.000      0.000
REMARK  Name = 
REMARK  3 active torsions:
REMARK  status: ('A' for Active; 'I' for Inactive)
REMARK    1  A    between atoms: C_9  and  C_10
REMARK    2  A    between atoms: C_13  and  C_14
REMARK    3  A    between atoms: C_19  and  N_20
REMARK                            x       y       z     vdW  Elec       q    Type
REMARK                         _______ _______ _______ _____ _____    ______ ____
ROOT
ATOM      1  C   UNL     1       4.762   4.375  17.263  0.00  0.00    +0.000 A 
ATOM      2  N   UNL     1       4.596   5.648  16.973  0.00  0.00    +0.000 NA
ATOM      3  N   UNL     1       4.978   5.824  15.660  0.00  0.00    +0.000 NA
ATOM      4  C   UNL     1       5.359   4.645  15.226  0.00  0.00    +0.000 A 
ATOM      5  O   UNL     1       5.278   3.680  16.196  0.00  0.00    +0.000 OA
ENDROOT
BRANCH   1  14
ATOM      6  O   UNL     1       1.553   4.687  17.904  0.00  0.00    +0.000 OA
ATOM      7  C   UNL     1       1.858   3.965  18.845  0.00  0.00    +0.000 C 
ATOM      8  C   UNL     1       0.791   3.341  19.737  0.00  0.00    +0.000 C 
ATOM      9  C   UNL     1       1.269   3.202  21.190  0.00  0.00    +0.000 C 
ATOM     10  C   UNL     1       2.550   2.358  21.308  0.00  0.00    +0.000 C 
ATOM     11  C   UNL     1       3.549   2.803  20.297  0.00  0.00    +0.000 A 
ATOM     12  N   UNL     1       4.848   2.505  20.355  0.00  0.00    +0.000 NA
ATOM     13  N   UNL     1       5.348   3.086  19.247  0.00  0.00    +0.000 N 
ATOM     14  C   UNL     1       4.414   3.741  18.486  0.00  0.00    +0.000 A 
ATOM     15  C   UNL     1       3.219   3.563  19.149  0.00  0.00    +0.000 A 
ATOM     16  H   UNL     1       6.339   2.984  19.059  0.00  0.00    +0.000 HD
ENDBRANCH   1  14
BRANCH   4  17
ATOM     17  C   UNL     1       5.765   4.200  13.903  0.00  0.00    +0.000 A 
ATOM     18  C   UNL     1       4.896   3.375  13.163  0.00  0.00    +0.000 A 
ATOM     19  C   UNL     1       5.220   2.945  11.874  0.00  0.00    +0.000 A 
ATOM     20  C   UNL     1       6.422   3.330  11.288  0.00  0.00    +0.000 A 
ATOM     21  C   UNL     1       7.299   4.156  11.988  0.00  0.00    +0.000 A 
ATOM     22  C   UNL     1       6.960   4.585  13.284  0.00  0.00    +0.000 A 
BRANCH  22  23
ATOM     23  N   UNL     1       7.938   5.407  13.972  0.00  0.00    +0.000 N 
ATOM     24  O   UNL     1       7.918   5.385  15.209  0.00  0.00    +0.000 OA
ATOM     25  O   UNL     1       8.769   5.993  13.266  0.00  0.00    +0.000 OA
ENDBRANCH  22  23
ENDBRANCH   4  17
TORSDOF 3
ENDMDL
MODEL 2
REMARK VINA RESULT:      -9.0      4.330      5.508
REMARK  Name = 
REMARK  3 active torsions:
REMARK  status: ('A' for Active; 'I' for Inactive)
REMARK    1  A    between atoms: C_9  and  C_10
REMARK    2  A    between atoms: C_13  and  C_14
REMARK    3  A    between atoms: C_19  and  N_20
REMARK                            x       y       z     vdW  Elec       q    Type
REMARK                         _______ _______ _______ _____ _____    ______ ____
ROOT
ATOM      1  C   UNL     1       2.411   6.559  19.045  0.00  0.00    +0.000 A 
ATOM      2  N   UNL     1       1.860   5.376  18.878  0.00  0.00    +0.000 NA
ATOM      3  N   UNL     1       2.699   4.642  18.066  0.00  0.00    +0.000 NA
ATOM      4  C   UNL     1       3.714   5.425  17.782  0.00  0.00    +0.000 A 
ATOM      5  O   UNL     1       3.588   6.669  18.345  0.00  0.00    +0.000 OA
ENDROOT
BRANCH   1  14
ATOM      6  O   UNL     1       1.928   9.330  17.343  0.00  0.00    +0.000 OA
ATOM      7  C   UNL     1       1.490   9.701  18.424  0.00  0.00    +0.000 C 
ATOM      8  C   UNL     1       0.756  11.031  18.563  0.00  0.00    +0.000 C 
ATOM      9  C   UNL     1       1.004  11.681  19.931  0.00  0.00    +0.000 C 
ATOM     10  C   UNL     1       0.580  10.772  21.098  0.00  0.00    +0.000 C 
ATOM     11  C   UNL     1       1.104   9.394  20.889  0.00  0.00    +0.000 A 
ATOM     12  N   UNL     1       1.191   8.478  21.855  0.00  0.00    +0.000 NA
ATOM     13  N   UNL     1       1.691   7.403  21.215  0.00  0.00    +0.000 N 
ATOM     14  C   UNL     1       1.923   7.601  19.879  0.00  0.00    +0.000 A 
ATOM     15  C   UNL     1       1.537   8.902  19.635  0.00  0.00    +0.000 A 
ATOM     16  H   UNL     1       1.836   6.554  21.750  0.00  0.00    +0.000 HD
ENDBRANCH   1  14
BRANCH   4  17
ATOM     17  C   UNL     1       4.946   5.166  17.056  0.00  0.00    +0.000 A 
ATOM     18  C   UNL     1       4.969   5.353  15.660  0.00  0.00    +0.000 A 
ATOM     19  C   UNL     1       6.134   5.152  14.916  0.00  0.00    +0.000 A 
ATOM     20  C   UNL     1       7.310   4.760  15.548  0.00  0.00    +0.000 A 
ATOM     21  C   UNL     1       7.325   4.578  16.929  0.00  0.00    +0.000 A 
ATOM     22  C   UNL     1       6.147   4.787  17.668  0.00  0.00    +0.000 A 
BRANCH  22  23
ATOM     23  N   UNL     1       6.222   4.539  19.096  0.00  0.00    +0.000 N 
ATOM     24  O   UNL     1       6.844   5.364  19.776  0.00  0.00    +0.000 OA
ATOM     25  O   UNL     1       5.581   3.571  19.528  0.00  0.00    +0.000 OA
ENDBRANCH  22  23
ENDBRANCH   4  17
TORSDOF 3
ENDMDL
MODEL 3
REMARK VINA RESULT:      -8.9      4.924      6.668
REMARK  Name = 
REMARK  3 active torsions:
REMARK  status: ('A' for Active; 'I' for Inactive)
REMARK    1  A    between atoms: C_9  and  C_10
REMARK    2  A    between atoms: C_13  and  C_14
REMARK    3  A    between atoms: C_19  and  N_20
REMARK                            x       y       z     vdW  Elec       q    Type
REMARK                         _______ _______ _______ _____ _____    ______ ____
ROOT
ATOM      1  C   UNL     1       1.971   7.804  19.740  0.00  0.00    +0.000 A 
ATOM      2  N   UNL     1       2.485   8.124  18.572  0.00  0.00    +0.000 NA
ATOM      3  N   UNL     1       2.851   6.950  17.947  0.00  0.00    +0.000 NA
ATOM      4  C   UNL     1       2.539   5.980  18.775  0.00  0.00    +0.000 A 
ATOM      5  O   UNL     1       2.002   6.446  19.947  0.00  0.00    +0.000 OA
ENDROOT
BRANCH   1  14
ATOM      6  O   UNL     1      -0.029   9.952  18.259  0.00  0.00    +0.000 OA
ATOM      7  C   UNL     1      -0.232  10.283  19.420  0.00  0.00    +0.000 C 
ATOM      8  C   UNL     1      -1.345  11.262  19.777  0.00  0.00    +0.000 C 
ATOM      9  C   UNL     1      -0.972  12.139  20.981  0.00  0.00    +0.000 C 
ATOM     10  C   UNL     1      -0.643  11.307  22.233  0.00  0.00    +0.000 C 
ATOM     11  C   UNL     1       0.285  10.197  21.879  0.00  0.00    +0.000 A 
ATOM     12  N   UNL     1       1.002   9.516  22.773  0.00  0.00    +0.000 NA
ATOM     13  N   UNL     1       1.664   8.617  22.017  0.00  0.00    +0.000 N 
ATOM     14  C   UNL     1       1.391   8.702  20.676  0.00  0.00    +0.000 A 
ATOM     15  C   UNL     1       0.478   9.728  20.558  0.00  0.00    +0.000 A 
ATOM     16  H   UNL     1       2.278   7.959  22.484  0.00  0.00    +0.000 HD
ENDBRANCH   1  14
BRANCH   4  17
ATOM     17  C   UNL     1       2.598   4.536  18.620  0.00  0.00    +0.000 A 
ATOM     18  C   UNL     1       1.402   3.794  18.673  0.00  0.00    +0.000 A 
ATOM     19  C   UNL     1       1.396   2.407  18.497  0.00  0.00    +0.000 A 
ATOM     20  C   UNL     1       2.586   1.726  18.259  0.00  0.00    +0.000 A 
ATOM     21  C   UNL     1       3.785   2.432  18.188  0.00  0.00    +0.000 A 
ATOM     22  C   UNL     1       3.778   3.827  18.364  0.00  0.00    +0.000 A 
BRANCH  22  23
ATOM     23  N   UNL     1       5.066   4.494  18.320  0.00  0.00    +0.000 N 
ATOM     24  O   UNL     1       5.716   4.528  19.372  0.00  0.00    +0.000 OA
ATOM     25  O   UNL     1       5.449   4.894  17.212  0.00  0.00    +0.000 OA
ENDBRANCH  22  23
ENDBRANCH   4  17
TORSDOF 3
ENDMDL
MODEL 4
REMARK VINA RESULT:      -8.7      4.854      6.374
REMARK  Name = 
REMARK  3 active torsions:
REMARK  status: ('A' for Active; 'I' for Inactive)
REMARK    1  A    between atoms: C_9  and  C_10
REMARK    2  A    between atoms: C_13  and  C_14
REMARK    3  A    between atoms: C_19  and  N_20
REMARK                            x       y       z     vdW  Elec       q    Type
REMARK                         _______ _______ _______ _____ _____    ______ ____
ROOT
ATOM      1  C   UNL     1       1.947   7.268  20.072  0.00  0.00    +0.000 A 
ATOM      2  N   UNL     1       1.825   6.043  20.537  0.00  0.00    +0.000 NA
ATOM      3  N   UNL     1       2.495   5.205  19.670  0.00  0.00    +0.000 NA
ATOM      4  C   UNL     1       2.984   5.970  18.722  0.00  0.00    +0.000 A 
ATOM      5  O   UNL     1       2.653   7.290  18.893  0.00  0.00    +0.000 OA
ENDROOT
BRANCH   1  14
ATOM      6  O   UNL     1       0.646   9.349  17.885  0.00  0.00    +0.000 OA
ATOM      7  C   UNL     1       0.393   9.975  18.906  0.00  0.00    +0.000 C 
ATOM      8  C   UNL     1      -0.509  11.204  18.873  0.00  0.00    +0.000 C 
ATOM      9  C   UNL     1      -0.089  12.251  19.915  0.00  0.00    +0.000 C 
ATOM     10  C   UNL     1      -0.092  11.687  21.347  0.00  0.00    +0.000 C 
ATOM     11  C   UNL     1       0.602  10.371  21.379  0.00  0.00    +0.000 A 
ATOM     12  N   UNL     1       1.048   9.794  22.496  0.00  0.00    +0.000 NA
ATOM     13  N   UNL     1       1.575   8.634  22.055  0.00  0.00    +0.000 N 
ATOM     14  C   UNL     1       1.478   8.453  20.699  0.00  0.00    +0.000 A 
ATOM     15  C   UNL     1       0.833   9.578  20.230  0.00  0.00    +0.000 A 
ATOM     16  H   UNL     1       1.973   8.000  22.738  0.00  0.00    +0.000 HD
ENDBRANCH   1  14
BRANCH   4  17
ATOM     17  C   UNL     1       3.857   5.663  17.601  0.00  0.00    +0.000 A 
ATOM     18  C   UNL     1       4.623   6.697  17.028  0.00  0.00    +0.000 A 
ATOM     19  C   UNL     1       5.504   6.453  15.971  0.00  0.00    +0.000 A 
ATOM     20  C   UNL     1       5.645   5.166  15.460  0.00  0.00    +0.000 A 
ATOM     21  C   UNL     1       4.911   4.118  16.012  0.00  0.00    +0.000 A 
ATOM     22  C   UNL     1       4.030   4.377  17.078  0.00  0.00    +0.000 A 
BRANCH  22  23
ATOM     23  N   UNL     1       3.266   3.248  17.577  0.00  0.00    +0.000 N 
ATOM     24  O   UNL     1       2.140   3.075  17.093  0.00  0.00    +0.000 OA
ATOM     25  O   UNL     1       3.838   2.499  18.380  0.00  0.00    +0.000 OA
ENDBRANCH  22  23
ENDBRANCH   4  17
TORSDOF 3
ENDMDL
MODEL 5
REMARK VINA RESULT:      -8.7      3.802      4.700
REMARK  Name = 
REMARK  3 active torsions:
REMARK  status: ('A' for Active; 'I' for Inactive)
REMARK    1  A    between atoms: C_9  and  C_10
REMARK    2  A    between atoms: C_13  and  C_14
REMARK    3  A    between atoms: C_19  and  N_20
REMARK                            x       y       z     vdW  Elec       q    Type
REMARK                         _______ _______ _______ _____ _____    ______ ____
ROOT
ATOM      1  C   UNL     1       3.177   5.907  19.209  0.00  0.00    +0.000 A 
ATOM      2  N   UNL     1       3.471   4.749  19.760  0.00  0.00    +0.000 NA
ATOM      3  N   UNL     1       4.317   4.085  18.898  0.00  0.00    +0.000 NA
ATOM      4  C   UNL     1       4.488   4.880  17.866  0.00  0.00    +0.000 A 
ATOM      5  O   UNL     1       3.772   6.044  17.979  0.00  0.00    +0.000 OA
ENDROOT
BRANCH   1  14
ATOM      6  O   UNL     1       2.758   8.419  17.130  0.00  0.00    +0.000 OA
ATOM      7  C   UNL     1       2.052   8.820  18.046  0.00  0.00    +0.000 C 
ATOM      8  C   UNL     1       1.155  10.041  17.873  0.00  0.00    +0.000 C 
ATOM      9  C   UNL     1       1.017  10.840  19.177  0.00  0.00    +0.000 C 
ATOM     10  C   UNL     1       0.457   9.989  20.330  0.00  0.00    +0.000 C 
ATOM     11  C   UNL     1       1.172   8.685  20.397  0.00  0.00    +0.000 A 
ATOM     12  N   UNL     1       1.151   7.881  21.461  0.00  0.00    +0.000 NA
ATOM     13  N   UNL     1       1.903   6.833  21.069  0.00  0.00    +0.000 N 
ATOM     14  C   UNL     1       2.398   6.941  19.796  0.00  0.00    +0.000 A 
ATOM     15  C   UNL     1       1.925   8.148  19.326  0.00  0.00    +0.000 A 
ATOM     16  H   UNL     1       2.025   6.064  21.719  0.00  0.00    +0.000 HD
ENDBRANCH   1  14
BRANCH   4  17
ATOM     17  C   UNL     1       5.348   4.760  16.700  0.00  0.00    +0.000 A 
ATOM     18  C   UNL     1       4.788   4.334  15.480  0.00  0.00    +0.000 A 
ATOM     19  C   UNL     1       5.560   4.233  14.319  0.00  0.00    +0.000 A 
ATOM     20  C   UNL     1       6.913   4.559  14.347  0.00  0.00    +0.000 A 
ATOM     21  C   UNL     1       7.495   4.995  15.535  0.00  0.00    +0.000 A 
ATOM     22  C   UNL     1       6.707   5.096  16.695  0.00  0.00    +0.000 A 
BRANCH  22  23
ATOM     23  N   UNL     1       7.386   5.516  17.908  0.00  0.00    +0.000 N 
ATOM     24  O   UNL     1       7.880   4.626  18.611  0.00  0.00    +0.000 OA
ATOM     25  O   UNL     1       7.494   6.736  18.091  0.00  0.00    +0.000 OA
ENDBRANCH  22  23
ENDBRANCH   4  17
TORSDOF 3
ENDMDL
MODEL 6
REMARK VINA RESULT:      -8.6      4.253      5.613
REMARK  Name = 
REMARK  3 active torsions:
REMARK  status: ('A' for Active; 'I' for Inactive)
REMARK    1  A    between atoms: C_9  and  C_10
REMARK    2  A    between atoms: C_13  and  C_14
REMARK    3  A    between atoms: C_19  and  N_20
REMARK                            x       y       z     vdW  Elec       q    Type
REMARK                         _______ _______ _______ _____ _____    ______ ____
ROOT
ATOM      1  C   UNL     1       2.402   7.316  18.184  0.00  0.00    +0.000 A 
ATOM      2  N   UNL     1       1.883   6.129  18.414  0.00  0.00    +0.000 NA
ATOM      3  N   UNL     1       2.758   5.191  17.907  0.00  0.00    +0.000 NA
ATOM      4  C   UNL     1       3.762   5.864  17.393  0.00  0.00    +0.000 A 
ATOM      5  O   UNL     1       3.593   7.220  17.506  0.00  0.00    +0.000 OA
ENDROOT
BRANCH   1  14
ATOM      6  O   UNL     1       1.331   7.155  21.288  0.00  0.00    +0.000 OA
ATOM      7  C   UNL     1       1.145   8.349  21.092  0.00  0.00    +0.000 C 
ATOM      8  C   UNL     1       0.764   9.285  22.235  0.00  0.00    +0.000 C 
ATOM      9  C   UNL     1      -0.164  10.415  21.764  0.00  0.00    +0.000 C 
ATOM     10  C   UNL     1       0.461  11.257  20.638  0.00  0.00    +0.000 C 
ATOM     11  C   UNL     1       1.040  10.365  19.595  0.00  0.00    +0.000 A 
ATOM     12  N   UNL     1       1.351  10.770  18.362  0.00  0.00    +0.000 NA
ATOM     13  N   UNL     1       1.851   9.657  17.790  0.00  0.00    +0.000 N 
ATOM     14  C   UNL     1       1.870   8.561  18.614  0.00  0.00    +0.000 A 
ATOM     15  C   UNL     1       1.350   9.002  19.812  0.00  0.00    +0.000 A 
ATOM     16  H   UNL     1       2.178   9.718  16.832  0.00  0.00    +0.000 HD
ENDBRANCH   1  14
BRANCH   4  17
ATOM     17  C   UNL     1       5.017   5.415  16.815  0.00  0.00    +0.000 A 
ATOM     18  C   UNL     1       5.209   5.533  15.424  0.00  0.00    +0.000 A 
ATOM     19  C   UNL     1       6.409   5.149  14.818  0.00  0.00    +0.000 A 
ATOM     20  C   UNL     1       7.450   4.638  15.588  0.00  0.00    +0.000 A 
ATOM     21  C   UNL     1       7.297   4.519  16.968  0.00  0.00    +0.000 A 
ATOM     22  C   UNL     1       6.086   4.913  17.566  0.00  0.00    +0.000 A 
BRANCH  22  23
ATOM     23  N   UNL     1       5.979   4.723  19.001  0.00  0.00    +0.000 N 
ATOM     24  O   UNL     1       5.457   3.671  19.390  0.00  0.00    +0.000 OA
ATOM     25  O   UNL     1       6.500   5.588  19.718  0.00  0.00    +0.000 OA
ENDBRANCH  22  23
ENDBRANCH   4  17
TORSDOF 3
ENDMDL
MODEL 7
REMARK VINA RESULT:      -8.6      2.020      7.118
REMARK  Name = 
REMARK  3 active torsions:
REMARK  status: ('A' for Active; 'I' for Inactive)
REMARK    1  A    between atoms: C_9  and  C_10
REMARK    2  A    between atoms: C_13  and  C_14
REMARK    3  A    between atoms: C_19  and  N_20
REMARK                            x       y       z     vdW  Elec       q    Type
REMARK                         _______ _______ _______ _____ _____    ______ ____
ROOT
ATOM      1  C   UNL     1       6.513   4.983  17.029  0.00  0.00    +0.000 A 
ATOM      2  N   UNL     1       7.285   4.856  18.087  0.00  0.00    +0.000 NA
ATOM      3  N   UNL     1       6.462   4.759  19.189  0.00  0.00    +0.000 NA
ATOM      4  C   UNL     1       5.231   4.837  18.737  0.00  0.00    +0.000 A 
ATOM      5  O   UNL     1       5.184   5.009  17.378  0.00  0.00    +0.000 OA
ENDROOT
BRANCH   1  14
ATOM      6  O   UNL     1       4.605   3.132  15.094  0.00  0.00    +0.000 OA
ATOM      7  C   UNL     1       5.323   3.620  14.231  0.00  0.00    +0.000 C 
ATOM      8  C   UNL     1       5.009   3.438  12.750  0.00  0.00    +0.000 C 
ATOM      9  C   UNL     1       6.285   3.361  11.900  0.00  0.00    +0.000 C 
ATOM     10  C   UNL     1       7.170   4.610  12.055  0.00  0.00    +0.000 C 
ATOM     11  C   UNL     1       7.326   4.949  13.496  0.00  0.00    +0.000 A 
ATOM     12  N   UNL     1       8.276   5.756  13.970  0.00  0.00    +0.000 NA
ATOM     13  N   UNL     1       8.022   5.787  15.294  0.00  0.00    +0.000 N 
ATOM     14  C   UNL     1       6.945   5.031  15.677  0.00  0.00    +0.000 A 
ATOM     15  C   UNL     1       6.461   4.475  14.511  0.00  0.00    +0.000 A 
ATOM     16  H   UNL     1       8.617   6.361  15.880  0.00  0.00    +0.000 HD
ENDBRANCH   1  14
BRANCH   4  17
ATOM     17  C   UNL     1       3.954   4.696  19.416  0.00  0.00    +0.000 A 
ATOM     18  C   UNL     1       3.195   5.850  19.690  0.00  0.00    +0.000 A 
ATOM     19  C   UNL     1       1.944   5.771  20.310  0.00  0.00    +0.000 A 
ATOM     20  C   UNL     1       1.418   4.534  20.669  0.00  0.00    +0.000 A 
ATOM     21  C   UNL     1       2.137   3.371  20.400  0.00  0.00    +0.000 A 
ATOM     22  C   UNL     1       3.393   3.464  19.774  0.00  0.00    +0.000 A 
BRANCH  22  23
ATOM     23  N   UNL     1       4.107   2.218  19.562  0.00  0.00    +0.000 N 
ATOM     24  O   UNL     1       4.942   1.898  20.417  0.00  0.00    +0.000 OA
ATOM     25  O   UNL     1       3.757   1.534  18.591  0.00  0.00    +0.000 OA
ENDBRANCH  22  23
ENDBRANCH   4  17
TORSDOF 3
ENDMDL
MODEL 8
REMARK VINA RESULT:      -8.5      5.561      7.611
REMARK  Name = 
REMARK  3 active torsions:
REMARK  status: ('A' for Active; 'I' for Inactive)
REMARK    1  A    between atoms: C_9  and  C_10
REMARK    2  A    between atoms: C_13  and  C_14
REMARK    3  A    between atoms: C_19  and  N_20
REMARK                            x       y       z     vdW  Elec       q    Type
REMARK                         _______ _______ _______ _____ _____    ______ ____
ROOT
ATOM      1  C   UNL     1       1.395   8.294  20.554  0.00  0.00    +0.000 A 
ATOM      2  N   UNL     1       1.962   8.551  19.394  0.00  0.00    +0.000 NA
ATOM      3  N   UNL     1       2.418   7.354  18.884  0.00  0.00    +0.000 NA
ATOM      4  C   UNL     1       2.105   6.434  19.767  0.00  0.00    +0.000 A 
ATOM      5  O   UNL     1       1.479   6.959  20.868  0.00  0.00    +0.000 OA
ENDROOT
BRANCH   1  14
ATOM      6  O   UNL     1      -0.333  10.448  18.770  0.00  0.00    +0.000 OA
ATOM      7  C   UNL     1      -0.680  10.813  19.886  0.00  0.00    +0.000 C 
ATOM      8  C   UNL     1      -1.805  11.827  20.067  0.00  0.00    +0.000 C 
ATOM      9  C   UNL     1      -1.573  12.726  21.291  0.00  0.00    +0.000 C 
ATOM     10  C   UNL     1      -1.436  11.918  22.594  0.00  0.00    +0.000 C 
ATOM     11  C   UNL     1      -0.498  10.779  22.392  0.00  0.00    +0.000 A 
ATOM     12  N   UNL     1       0.075  10.105  23.390  0.00  0.00    +0.000 NA
ATOM     13  N   UNL     1       0.808   9.172  22.750  0.00  0.00    +0.000 N 
ATOM     14  C   UNL     1       0.719   9.229  21.383  0.00  0.00    +0.000 A 
ATOM     15  C   UNL     1      -0.142  10.272  21.120  0.00  0.00    +0.000 A 
ATOM     16  H   UNL     1       1.337   8.513  23.310  0.00  0.00    +0.000 HD
ENDBRANCH   1  14
BRANCH   4  17
ATOM     17  C   UNL     1       2.242   4.988  19.729  0.00  0.00    +0.000 A 
ATOM     18  C   UNL     1       1.161   4.188  20.150  0.00  0.00    +0.000 A 
ATOM     19  C   UNL     1       1.224   2.793  20.104  0.00  0.00    +0.000 A 
ATOM     20  C   UNL     1       2.370   2.159  19.631  0.00  0.00    +0.000 A 
ATOM     21  C   UNL     1       3.452   2.921  19.196  0.00  0.00    +0.000 A 
ATOM     22  C   UNL     1       3.375   4.324  19.245  0.00  0.00    +0.000 A 
BRANCH  22  23
ATOM     23  N   UNL     1       4.553   5.055  18.815  0.00  0.00    +0.000 N 
ATOM     24  O   UNL     1       5.392   5.325  19.683  0.00  0.00    +0.000 OA
ATOM     25  O   UNL     1       4.665   5.268  17.601  0.00  0.00    +0.000 OA
ENDBRANCH  22  23
ENDBRANCH   4  17
TORSDOF 3
ENDMDL
MODEL 9
REMARK VINA RESULT:      -8.4      4.754      6.034
REMARK  Name = 
REMARK  3 active torsions:
REMARK  status: ('A' for Active; 'I' for Inactive)
REMARK    1  A    between atoms: C_9  and  C_10
REMARK    2  A    between atoms: C_13  and  C_14
REMARK    3  A    between atoms: C_19  and  N_20
REMARK                            x       y       z     vdW  Elec       q    Type
REMARK                         _______ _______ _______ _____ _____    ______ ____
ROOT
ATOM      1  C   UNL     1       2.233   7.140  19.812  0.00  0.00    +0.000 A 
ATOM      2  N   UNL     1       1.960   5.877  20.063  0.00  0.00    +0.000 NA
ATOM      3  N   UNL     1       2.770   5.111  19.252  0.00  0.00    +0.000 NA
ATOM      4  C   UNL     1       3.491   5.954  18.549  0.00  0.00    +0.000 A 
ATOM      5  O   UNL     1       3.186   7.261  18.828  0.00  0.00    +0.000 OA
ENDROOT
BRANCH   1  14
ATOM      6  O   UNL     1       0.917   9.279  17.691  0.00  0.00    +0.000 OA
ATOM      7  C   UNL     1       0.598   9.835  18.733  0.00  0.00    +0.000 C 
ATOM      8  C   UNL     1      -0.360  11.021  18.732  0.00  0.00    +0.000 C 
ATOM      9  C   UNL     1      -0.028  12.026  19.844  0.00  0.00    +0.000 C 
ATOM     10  C   UNL     1      -0.058  11.385  21.242  0.00  0.00    +0.000 C 
ATOM     11  C   UNL     1       0.696  10.101  21.231  0.00  0.00    +0.000 A 
ATOM     12  N   UNL     1       1.128   9.483  22.332  0.00  0.00    +0.000 NA
ATOM     13  N   UNL     1       1.725   8.375  21.849  0.00  0.00    +0.000 N 
ATOM     14  C   UNL     1       1.687   8.266  20.483  0.00  0.00    +0.000 A 
ATOM     15  C   UNL     1       1.007   9.384  20.051  0.00  0.00    +0.000 A 
ATOM     16  H   UNL     1       2.127   7.723  22.513  0.00  0.00    +0.000 HD
ENDBRANCH   1  14
BRANCH   4  17
ATOM     17  C   UNL     1       4.578   5.730  17.611  0.00  0.00    +0.000 A 
ATOM     18  C   UNL     1       4.438   6.178  16.283  0.00  0.00    +0.000 A 
ATOM     19  C   UNL     1       5.465   6.020  15.348  0.00  0.00    +0.000 A 
ATOM     20  C   UNL     1       6.661   5.412  15.717  0.00  0.00    +0.000 A 
ATOM     21  C   UNL     1       6.837   4.969  17.026  0.00  0.00    +0.000 A 
ATOM     22  C   UNL     1       5.798   5.136  17.958  0.00  0.00    +0.000 A 
BRANCH  22  23
ATOM     23  N   UNL     1       6.031   4.614  19.292  0.00  0.00    +0.000 N 
ATOM     24  O   UNL     1       5.539   3.509  19.556  0.00  0.00    +0.000 OA
ATOM     25  O   UNL     1       6.780   5.273  20.026  0.00  0.00    +0.000 OA
ENDBRANCH  22  23
ENDBRANCH   4  17
TORSDOF 3
ENDMDL
