MODEL 1
REMARK VINA RESULT:      -7.3      0.000      0.000
REMARK  Name = 
REMARK  7 active torsions:
REMARK  status: ('A' for Active; 'I' for Inactive)
REMARK    1  A    between atoms: C_1  and  C_2
REMARK    2  A    between atoms: C_5  and  C_6
REMARK    3  A    between atoms: C_7  and  C_8
REMARK    4  A    between atoms: C_8  and  C_10
REMARK    5  A    between atoms: C_13  and  O_14
REMARK    6  A    between atoms: C_15  and  C_16
REMARK    7  A    between atoms: C_16  and  N_17
REMARK                            x       y       z     vdW  Elec       q    Type
REMARK                         _______ _______ _______ _____ _____    ______ ____
ROOT
ATOM      1  C   UNL     1       2.075   8.373  18.715  0.00  0.00    +0.000 A 
ATOM      2  C   UNL     1       1.654   7.813  19.928  0.00  0.00    +0.000 A 
ATOM      3  C   UNL     1       2.090   6.542  20.292  0.00  0.00    +0.000 A 
ATOM      4  C   UNL     1       2.937   5.834  19.436  0.00  0.00    +0.000 A 
ATOM      5  C   UNL     1       3.361   6.369  18.217  0.00  0.00    +0.000 A 
ATOM      6  C   UNL     1       2.942   7.661  17.879  0.00  0.00    +0.000 A 
ENDROOT
BRANCH   1   7
ATOM      7  C   UNL     1       1.638   9.716  18.256  0.00  0.00    +0.000 C 
ATOM      8  O   UNL     1       2.396  10.420  17.595  0.00  0.00    +0.000 OA
BRANCH   7  10
ATOM      9  C   UNL     1      -0.694   9.934  17.670  0.00  0.00    +0.000 C 
ATOM     10  C   UNL     1       0.262  10.140  18.591  0.00  0.00    +0.000 C 
BRANCH   9  15
ATOM     11  C   UNL     1      -4.951  12.562  19.298  0.00  0.00    +0.000 C 
ATOM     12  C   UNL     1      -4.047  11.573  18.647  0.00  0.00    +0.000 A 
ATOM     13  C   UNL     1      -4.378  10.495  17.856  0.00  0.00    +0.000 A 
ATOM     14  C   UNL     1      -3.226   9.787  17.410  0.00  0.00    +0.000 A 
ATOM     15  C   UNL     1      -2.036  10.332  17.867  0.00  0.00    +0.000 A 
ATOM     16  S   UNL     1      -2.360  11.712  18.844  0.00  0.00    +0.000 S 
ENDBRANCH   9  15
ENDBRANCH   7  10
ENDBRANCH   1   7
BRANCH   4  17
ATOM     17  O   UNL     1       3.339   4.582  19.794  0.00  0.00    +0.000 OA
ATOM     18  H   UNL     1       4.153   4.385  19.296  0.00  0.00    +0.000 HD
ENDBRANCH   4  17
BRANCH   5  19
ATOM     19  C   UNL     1       4.161   5.571  17.217  0.00  0.00    +0.000 C 
BRANCH  19  20
ATOM     20  N   UNL     1       5.371   4.898  17.739  0.00  0.00    +0.000 NA
ATOM     21  C   UNL     1       6.299   5.922  18.284  0.00  0.00    +0.000 C 
ATOM     22  C   UNL     1       6.838   6.879  17.202  0.00  0.00    +0.000 C 
ATOM     23  O   UNL     1       7.515   6.164  16.159  0.00  0.00    +0.000 OA
ATOM     24  C   UNL     1       6.709   5.113  15.605  0.00  0.00    +0.000 C 
ATOM     25  C   UNL     1       6.136   4.186  16.690  0.00  0.00    +0.000 C 
ENDBRANCH  19  20
ENDBRANCH   5  19
TORSDOF 6
ENDMDL
MODEL 2
REMARK VINA RESULT:      -7.3      2.596      2.872
REMARK  Name = 
REMARK  7 active torsions:
REMARK  status: ('A' for Active; 'I' for Inactive)
REMARK    1  A    between atoms: C_1  and  C_2
REMARK    2  A    between atoms: C_5  and  C_6
REMARK    3  A    between atoms: C_7  and  C_8
REMARK    4  A    between atoms: C_8  and  C_10
REMARK    5  A    between atoms: C_13  and  O_14
REMARK    6  A    between atoms: C_15  and  C_16
REMARK    7  A    between atoms: C_16  and  N_17
REMARK                            x       y       z     vdW  Elec       q    Type
REMARK                         _______ _______ _______ _____ _____    ______ ____
ROOT
ATOM      1  C   UNL     1       2.465   6.945  19.027  0.00  0.00    +0.000 A 
ATOM      2  C   UNL     1       2.155   6.051  20.060  0.00  0.00    +0.000 A 
ATOM      3  C   UNL     1       2.616   4.739  20.001  0.00  0.00    +0.000 A 
ATOM      4  C   UNL     1       3.377   4.325  18.904  0.00  0.00    +0.000 A 
ATOM      5  C   UNL     1       3.689   5.198  17.858  0.00  0.00    +0.000 A 
ATOM      6  C   UNL     1       3.248   6.523  17.947  0.00  0.00    +0.000 A 
ENDROOT
BRANCH   1   7
ATOM      7  C   UNL     1       1.996   8.354  19.017  0.00  0.00    +0.000 C 
ATOM      8  O   UNL     1       2.225   9.075  18.051  0.00  0.00    +0.000 OA
BRANCH   7  10
ATOM      9  C   UNL     1       0.754  10.085  20.153  0.00  0.00    +0.000 C 
ATOM     10  C   UNL     1       1.219   8.825  20.183  0.00  0.00    +0.000 C 
BRANCH   9  15
ATOM     11  C   UNL     1      -1.507  13.573  23.378  0.00  0.00    +0.000 C 
ATOM     12  C   UNL     1      -1.029  12.308  22.754  0.00  0.00    +0.000 A 
ATOM     13  C   UNL     1      -1.218  11.012  23.182  0.00  0.00    +0.000 A 
ATOM     14  C   UNL     1      -0.613  10.067  22.306  0.00  0.00    +0.000 A 
ATOM     15  C   UNL     1       0.031  10.653  21.227  0.00  0.00    +0.000 A 
ATOM     16  S   UNL     1      -0.123  12.366  21.312  0.00  0.00    +0.000 S 
ENDBRANCH   9  15
ENDBRANCH   7  10
ENDBRANCH   1   7
BRANCH   4  17
ATOM     17  O   UNL     1       3.804   3.032  18.847  0.00  0.00    +0.000 OA
ATOM     18  H   UNL     1       4.677   3.034  18.417  0.00  0.00    +0.000 HD
ENDBRANCH   4  17
BRANCH   5  19
ATOM     19  C   UNL     1       4.390   4.740  16.603  0.00  0.00    +0.000 C 
BRANCH  19  20
ATOM     20  N   UNL     1       5.654   3.996  16.797  0.00  0.00    +0.000 NA
ATOM     21  C   UNL     1       6.613   4.852  17.541  0.00  0.00    +0.000 C 
ATOM     22  C   UNL     1       7.033   6.108  16.750  0.00  0.00    +0.000 C 
ATOM     23  O   UNL     1       7.620   5.761  15.489  0.00  0.00    +0.000 OA
ATOM     24  C   UNL     1       6.782   4.886  14.718  0.00  0.00    +0.000 C 
ATOM     25  C   UNL     1       6.329   3.657  15.523  0.00  0.00    +0.000 C 
ENDBRANCH  19  20
ENDBRANCH   5  19
TORSDOF 6
ENDMDL
MODEL 3
REMARK VINA RESULT:      -7.2      5.798      8.377
REMARK  Name = 
REMARK  7 active torsions:
REMARK  status: ('A' for Active; 'I' for Inactive)
REMARK    1  A    between atoms: C_1  and  C_2
REMARK    2  A    between atoms: C_5  and  C_6
REMARK    3  A    between atoms: C_7  and  C_8
REMARK    4  A    between atoms: C_8  and  C_10
REMARK    5  A    between atoms: C_13  and  O_14
REMARK    6  A    between atoms: C_15  and  C_16
REMARK    7  A    between atoms: C_16  and  N_17
REMARK                            x       y       z     vdW  Elec       q    Type
REMARK                         _______ _______ _______ _____ _____    ______ ____
ROOT
ATOM      1  C   UNL     1       6.693   6.190  17.784  0.00  0.00    +0.000 A 
ATOM      2  C   UNL     1       6.577   5.942  16.410  0.00  0.00    +0.000 A 
ATOM      3  C   UNL     1       5.542   5.141  15.936  0.00  0.00    +0.000 A 
ATOM      4  C   UNL     1       4.633   4.585  16.839  0.00  0.00    +0.000 A 
ATOM      5  C   UNL     1       4.736   4.812  18.215  0.00  0.00    +0.000 A 
ATOM      6  C   UNL     1       5.762   5.645  18.674  0.00  0.00    +0.000 A 
ENDROOT
BRANCH   1   7
ATOM      7  C   UNL     1       7.780   7.021  18.361  0.00  0.00    +0.000 C 
ATOM      8  O   UNL     1       8.535   6.552  19.206  0.00  0.00    +0.000 OA
BRANCH   7  10
ATOM      9  C   UNL     1       8.710   9.242  18.550  0.00  0.00    +0.000 C 
ATOM     10  C   UNL     1       7.932   8.400  17.850  0.00  0.00    +0.000 C 
BRANCH   9  15
ATOM     11  C   UNL     1      10.899  13.959  17.757  0.00  0.00    +0.000 C 
ATOM     12  C   UNL     1       9.936  12.824  17.811  0.00  0.00    +0.000 A 
ATOM     13  C   UNL     1       8.621  12.790  17.402  0.00  0.00    +0.000 A 
ATOM     14  C   UNL     1       8.030  11.512  17.610  0.00  0.00    +0.000 A 
ATOM     15  C   UNL     1       8.899  10.592  18.176  0.00  0.00    +0.000 A 
ATOM     16  S   UNL     1      10.435  11.322  18.444  0.00  0.00    +0.000 S 
ENDBRANCH   9  15
ENDBRANCH   7  10
ENDBRANCH   1   7
BRANCH   4  17
ATOM     17  O   UNL     1       3.637   3.785  16.365  0.00  0.00    +0.000 OA
ATOM     18  H   UNL     1       2.966   3.710  17.067  0.00  0.00    +0.000 HD
ENDBRANCH   4  17
BRANCH   5  19
ATOM     19  C   UNL     1       3.852   4.113  19.219  0.00  0.00    +0.000 C 
BRANCH  19  20
ATOM     20  N   UNL     1       2.485   4.658  19.374  0.00  0.00    +0.000 NA
ATOM     21  C   UNL     1       2.210   4.878  20.816  0.00  0.00    +0.000 C 
ATOM     22  C   UNL     1       2.187   3.567  21.628  0.00  0.00    +0.000 C 
ATOM     23  O   UNL     1       1.210   2.650  21.116  0.00  0.00    +0.000 OA
ATOM     24  C   UNL     1       1.366   2.416  19.707  0.00  0.00    +0.000 C 
ATOM     25  C   UNL     1       1.434   3.726  18.905  0.00  0.00    +0.000 C 
ENDBRANCH  19  20
ENDBRANCH   5  19
TORSDOF 6
ENDMDL
MODEL 4
REMARK VINA RESULT:      -7.1      2.773      4.499
REMARK  Name = 
REMARK  7 active torsions:
REMARK  status: ('A' for Active; 'I' for Inactive)
REMARK    1  A    between atoms: C_1  and  C_2
REMARK    2  A    between atoms: C_5  and  C_6
REMARK    3  A    between atoms: C_7  and  C_8
REMARK    4  A    between atoms: C_8  and  C_10
REMARK    5  A    between atoms: C_13  and  O_14
REMARK    6  A    between atoms: C_15  and  C_16
REMARK    7  A    between atoms: C_16  and  N_17
REMARK                            x       y       z     vdW  Elec       q    Type
REMARK                         _______ _______ _______ _____ _____    ______ ____
ROOT
ATOM      1  C   UNL     1       3.091   7.543  17.934  0.00  0.00    +0.000 A 
ATOM      2  C   UNL     1       3.958   7.420  16.840  0.00  0.00    +0.000 A 
ATOM      3  C   UNL     1       4.759   6.288  16.717  0.00  0.00    +0.000 A 
ATOM      4  C   UNL     1       4.697   5.292  17.694  0.00  0.00    +0.000 A 
ATOM      5  C   UNL     1       3.847   5.399  18.798  0.00  0.00    +0.000 A 
ATOM      6  C   UNL     1       3.023   6.526  18.892  0.00  0.00    +0.000 A 
ENDROOT
BRANCH   1   7
ATOM      7  C   UNL     1       2.219   8.728  18.137  0.00  0.00    +0.000 C 
ATOM      8  O   UNL     1       2.098   9.566  17.249  0.00  0.00    +0.000 OA
BRANCH   7  10
ATOM      9  C   UNL     1       0.872   9.989  19.694  0.00  0.00    +0.000 C 
ATOM     10  C   UNL     1       1.486   8.827  19.417  0.00  0.00    +0.000 C 
BRANCH   9  15
ATOM     11  C   UNL     1      -2.287  12.086  23.341  0.00  0.00    +0.000 C 
ATOM     12  C   UNL     1      -1.316  11.210  22.627  0.00  0.00    +0.000 A 
ATOM     13  C   UNL     1      -0.670  10.085  23.090  0.00  0.00    +0.000 A 
ATOM     14  C   UNL     1       0.179   9.513  22.102  0.00  0.00    +0.000 A 
ATOM     15  C   UNL     1       0.173  10.210  20.903  0.00  0.00    +0.000 A 
ATOM     16  S   UNL     1      -0.885  11.563  21.017  0.00  0.00    +0.000 S 
ENDBRANCH   9  15
ENDBRANCH   7  10
ENDBRANCH   1   7
BRANCH   4  17
ATOM     17  O   UNL     1       5.503   4.199  17.574  0.00  0.00    +0.000 OA
ATOM     18  H   UNL     1       5.955   4.264  16.713  0.00  0.00    +0.000 HD
ENDBRANCH   4  17
BRANCH   5  19
ATOM     19  C   UNL     1       3.863   4.404  19.933  0.00  0.00    +0.000 C 
BRANCH  19  20
ATOM     20  N   UNL     1       3.416   3.033  19.603  0.00  0.00    +0.000 NA
ATOM     21  C   UNL     1       2.049   3.093  19.024  0.00  0.00    +0.000 C 
ATOM     22  C   UNL     1       0.996   3.601  20.029  0.00  0.00    +0.000 C 
ATOM     23  O   UNL     1       0.954   2.781  21.204  0.00  0.00    +0.000 OA
ATOM     24  C   UNL     1       2.248   2.621  21.806  0.00  0.00    +0.000 C 
ATOM     25  C   UNL     1       3.307   2.157  20.792  0.00  0.00    +0.000 C 
ENDBRANCH  19  20
ENDBRANCH   5  19
TORSDOF 6
ENDMDL
MODEL 5
REMARK VINA RESULT:      -7.1      0.775      1.019
REMARK  Name = 
REMARK  7 active torsions:
REMARK  status: ('A' for Active; 'I' for Inactive)
REMARK    1  A    between atoms: C_1  and  C_2
REMARK    2  A    between atoms: C_5  and  C_6
REMARK    3  A    between atoms: C_7  and  C_8
REMARK    4  A    between atoms: C_8  and  C_10
REMARK    5  A    between atoms: C_13  and  O_14
REMARK    6  A    between atoms: C_15  and  C_16
REMARK    7  A    between atoms: C_16  and  N_17
REMARK                            x       y       z     vdW  Elec       q    Type
REMARK                         _______ _______ _______ _____ _____    ______ ____
ROOT
ATOM      1  C   UNL     1       2.166   8.017  18.747  0.00  0.00    +0.000 A 
ATOM      2  C   UNL     1       1.766   7.440  19.959  0.00  0.00    +0.000 A 
ATOM      3  C   UNL     1       2.237   6.179  20.314  0.00  0.00    +0.000 A 
ATOM      4  C   UNL     1       3.098   5.498  19.450  0.00  0.00    +0.000 A 
ATOM      5  C   UNL     1       3.502   6.051  18.232  0.00  0.00    +0.000 A 
ATOM      6  C   UNL     1       3.048   7.333  17.903  0.00  0.00    +0.000 A 
ENDROOT
BRANCH   1   7
ATOM      7  C   UNL     1       1.692   9.351  18.297  0.00  0.00    +0.000 C 
ATOM      8  O   UNL     1       2.376  10.024  17.533  0.00  0.00    +0.000 OA
BRANCH   7  10
ATOM      9  C   UNL     1      -0.491  10.283  17.858  0.00  0.00    +0.000 C 
ATOM     10  C   UNL     1       0.367   9.802  18.772  0.00  0.00    +0.000 C 
BRANCH   9  15
ATOM     11  C   UNL     1      -5.699  11.006  18.031  0.00  0.00    +0.000 C 
ATOM     12  C   UNL     1      -4.234  11.120  18.274  0.00  0.00    +0.000 A 
ATOM     13  C   UNL     1      -3.567  11.972  19.126  0.00  0.00    +0.000 A 
ATOM     14  C   UNL     1      -2.158  11.772  19.085  0.00  0.00    +0.000 A 
ATOM     15  C   UNL     1      -1.771  10.776  18.202  0.00  0.00    +0.000 A 
ATOM     16  S   UNL     1      -3.156  10.101  17.435  0.00  0.00    +0.000 S 
ENDBRANCH   9  15
ENDBRANCH   7  10
ENDBRANCH   1   7
BRANCH   4  17
ATOM     17  O   UNL     1       3.535   4.255  19.799  0.00  0.00    +0.000 OA
ATOM     18  H   UNL     1       2.782   3.784  20.198  0.00  0.00    +0.000 HD
ENDBRANCH   4  17
BRANCH   5  19
ATOM     19  C   UNL     1       4.319   5.280  17.224  0.00  0.00    +0.000 C 
BRANCH  19  20
ATOM     20  N   UNL     1       5.627   4.774  17.695  0.00  0.00    +0.000 NA
ATOM     21  C   UNL     1       6.425   5.909  18.224  0.00  0.00    +0.000 C 
ATOM     22  C   UNL     1       6.791   6.941  17.139  0.00  0.00    +0.000 C 
ATOM     23  O   UNL     1       7.522   6.335  16.064  0.00  0.00    +0.000 OA
ATOM     24  C   UNL     1       6.847   5.189  15.521  0.00  0.00    +0.000 C 
ATOM     25  C   UNL     1       6.444   4.183  16.611  0.00  0.00    +0.000 C 
ENDBRANCH  19  20
ENDBRANCH   5  19
TORSDOF 6
ENDMDL
MODEL 6
REMARK VINA RESULT:      -7.1      5.763      8.343
REMARK  Name = 
REMARK  7 active torsions:
REMARK  status: ('A' for Active; 'I' for Inactive)
REMARK    1  A    between atoms: C_1  and  C_2
REMARK    2  A    between atoms: C_5  and  C_6
REMARK    3  A    between atoms: C_7  and  C_8
REMARK    4  A    between atoms: C_8  and  C_10
REMARK    5  A    between atoms: C_13  and  O_14
REMARK    6  A    between atoms: C_15  and  C_16
REMARK    7  A    between atoms: C_16  and  N_17
REMARK                            x       y       z     vdW  Elec       q    Type
REMARK                         _______ _______ _______ _____ _____    ______ ____
ROOT
ATOM      1  C   UNL     1       6.708   6.177  17.641  0.00  0.00    +0.000 A 
ATOM      2  C   UNL     1       6.835   5.629  16.357  0.00  0.00    +0.000 A 
ATOM      3  C   UNL     1       5.819   4.827  15.844  0.00  0.00    +0.000 A 
ATOM      4  C   UNL     1       4.687   4.569  16.621  0.00  0.00    +0.000 A 
ATOM      5  C   UNL     1       4.545   5.097  17.907  0.00  0.00    +0.000 A 
ATOM      6  C   UNL     1       5.558   5.929  18.398  0.00  0.00    +0.000 A 
ENDROOT
BRANCH   1   7
ATOM      7  C   UNL     1       7.757   7.029  18.257  0.00  0.00    +0.000 C 
ATOM      8  O   UNL     1       8.489   6.574  19.130  0.00  0.00    +0.000 OA
BRANCH   7  10
ATOM      9  C   UNL     1       8.641   9.265  18.476  0.00  0.00    +0.000 C 
ATOM     10  C   UNL     1       7.902   8.411  17.751  0.00  0.00    +0.000 C 
BRANCH   9  15
ATOM     11  C   UNL     1      10.829  13.963  17.571  0.00  0.00    +0.000 C 
ATOM     12  C   UNL     1       9.856  12.841  17.691  0.00  0.00    +0.000 A 
ATOM     13  C   UNL     1       8.511  12.833  17.395  0.00  0.00    +0.000 A 
ATOM     14  C   UNL     1       7.920  11.560  17.633  0.00  0.00    +0.000 A 
ATOM     15  C   UNL     1       8.819  10.618  18.108  0.00  0.00    +0.000 A 
ATOM     16  S   UNL     1      10.383  11.322  18.254  0.00  0.00    +0.000 S 
ENDBRANCH   9  15
ENDBRANCH   7  10
ENDBRANCH   1   7
BRANCH   4  17
ATOM     17  O   UNL     1       3.710   3.764  16.116  0.00  0.00    +0.000 OA
ATOM     18  H   UNL     1       3.284   3.318  16.869  0.00  0.00    +0.000 HD
ENDBRANCH   4  17
BRANCH   5  19
ATOM     19  C   UNL     1       3.399   4.722  18.815  0.00  0.00    +0.000 C 
BRANCH  19  20
ATOM     20  N   UNL     1       2.943   3.317  18.742  0.00  0.00    +0.000 NA
ATOM     21  C   UNL     1       1.458   3.286  18.768  0.00  0.00    +0.000 C 
ATOM     22  C   UNL     1       0.873   3.803  20.098  0.00  0.00    +0.000 C 
ATOM     23  O   UNL     1       1.361   3.048  21.215  0.00  0.00    +0.000 OA
ATOM     24  C   UNL     1       2.795   2.977  21.242  0.00  0.00    +0.000 C 
ATOM     25  C   UNL     1       3.379   2.504  19.900  0.00  0.00    +0.000 C 
ENDBRANCH  19  20
ENDBRANCH   5  19
TORSDOF 6
ENDMDL
MODEL 7
REMARK VINA RESULT:      -7.0      1.814      2.278
REMARK  Name = 
REMARK  7 active torsions:
REMARK  status: ('A' for Active; 'I' for Inactive)
REMARK    1  A    between atoms: C_1  and  C_2
REMARK    2  A    between atoms: C_5  and  C_6
REMARK    3  A    between atoms: C_7  and  C_8
REMARK    4  A    between atoms: C_8  and  C_10
REMARK    5  A    between atoms: C_13  and  O_14
REMARK    6  A    between atoms: C_15  and  C_16
REMARK    7  A    between atoms: C_16  and  N_17
REMARK                            x       y       z     vdW  Elec       q    Type
REMARK                         _______ _______ _______ _____ _____    ______ ____
ROOT
ATOM      1  C   UNL     1       2.205   7.809  18.867  0.00  0.00    +0.000 A 
ATOM      2  C   UNL     1       1.898   7.138  20.057  0.00  0.00    +0.000 A 
ATOM      3  C   UNL     1       2.454   5.887  20.310  0.00  0.00    +0.000 A 
ATOM      4  C   UNL     1       3.307   5.310  19.366  0.00  0.00    +0.000 A 
ATOM      5  C   UNL     1       3.619   5.958  18.168  0.00  0.00    +0.000 A 
ATOM      6  C   UNL     1       3.080   7.229  17.942  0.00  0.00    +0.000 A 
ENDROOT
BRANCH   1   7
ATOM      7  C   UNL     1       1.637   9.138  18.525  0.00  0.00    +0.000 C 
ATOM      8  O   UNL     1       1.991   9.717  17.502  0.00  0.00    +0.000 OA
BRANCH   7  10
ATOM      9  C   UNL     1       0.027  10.852  19.071  0.00  0.00    +0.000 C 
ATOM     10  C   UNL     1       0.617   9.701  19.434  0.00  0.00    +0.000 C 
BRANCH   9  15
ATOM     11  C   UNL     1      -2.635  12.610  23.255  0.00  0.00    +0.000 C 
ATOM     12  C   UNL     1      -2.196  12.322  21.861  0.00  0.00    +0.000 A 
ATOM     13  C   UNL     1      -2.778  12.717  20.676  0.00  0.00    +0.000 A 
ATOM     14  C   UNL     1      -2.054  12.248  19.544  0.00  0.00    +0.000 A 
ATOM     15  C   UNL     1      -0.936  11.500  19.879  0.00  0.00    +0.000 A 
ATOM     16  S   UNL     1      -0.796  11.388  21.591  0.00  0.00    +0.000 S 
ENDBRANCH   9  15
ENDBRANCH   7  10
ENDBRANCH   1   7
BRANCH   4  17
ATOM     17  O   UNL     1       3.828   4.076  19.615  0.00  0.00    +0.000 OA
ATOM     18  H   UNL     1       4.644   4.204  20.132  0.00  0.00    +0.000 HD
ENDBRANCH   4  17
BRANCH   5  19
ATOM     19  C   UNL     1       4.426   5.298  17.076  0.00  0.00    +0.000 C 
BRANCH  19  20
ATOM     20  N   UNL     1       5.438   6.146  16.410  0.00  0.00    +0.000 NA
ATOM     21  C   UNL     1       5.950   5.439  15.208  0.00  0.00    +0.000 C 
ATOM     22  C   UNL     1       6.713   4.145  15.555  0.00  0.00    +0.000 C 
ATOM     23  O   UNL     1       7.817   4.406  16.432  0.00  0.00    +0.000 OA
ATOM     24  C   UNL     1       7.425   5.137  17.603  0.00  0.00    +0.000 C 
ATOM     25  C   UNL     1       6.625   6.404  17.257  0.00  0.00    +0.000 C 
ENDBRANCH  19  20
ENDBRANCH   5  19
TORSDOF 6
ENDMDL
MODEL 8
REMARK VINA RESULT:      -7.0      1.007      1.598
REMARK  Name = 
REMARK  7 active torsions:
REMARK  status: ('A' for Active; 'I' for Inactive)
REMARK    1  A    between atoms: C_1  and  C_2
REMARK    2  A    between atoms: C_5  and  C_6
REMARK    3  A    between atoms: C_7  and  C_8
REMARK    4  A    between atoms: C_8  and  C_10
REMARK    5  A    between atoms: C_13  and  O_14
REMARK    6  A    between atoms: C_15  and  C_16
REMARK    7  A    between atoms: C_16  and  N_17
REMARK                            x       y       z     vdW  Elec       q    Type
REMARK                         _______ _______ _______ _____ _____    ______ ____
ROOT
ATOM      1  C   UNL     1       2.149   8.102  18.737  0.00  0.00    +0.000 A 
ATOM      2  C   UNL     1       1.807   7.518  19.964  0.00  0.00    +0.000 A 
ATOM      3  C   UNL     1       2.334   6.276  20.310  0.00  0.00    +0.000 A 
ATOM      4  C   UNL     1       3.191   5.621  19.423  0.00  0.00    +0.000 A 
ATOM      5  C   UNL     1       3.537   6.181  18.190  0.00  0.00    +0.000 A 
ATOM      6  C   UNL     1       3.028   7.444  17.869  0.00  0.00    +0.000 A 
ENDROOT
BRANCH   1   7
ATOM      7  C   UNL     1       1.615   9.415  18.297  0.00  0.00    +0.000 C 
ATOM      8  O   UNL     1       2.277  10.135  17.555  0.00  0.00    +0.000 OA
BRANCH   7  10
ATOM      9  C   UNL     1      -0.521  10.469  17.892  0.00  0.00    +0.000 C 
ATOM     10  C   UNL     1       0.259   9.790  18.751  0.00  0.00    +0.000 C 
BRANCH   9  15
ATOM     11  C   UNL     1      -5.754  10.976  18.050  0.00  0.00    +0.000 C 
ATOM     12  C   UNL     1      -4.295  11.152  18.296  0.00  0.00    +0.000 A 
ATOM     13  C   UNL     1      -3.666  12.034  19.147  0.00  0.00    +0.000 A 
ATOM     14  C   UNL     1      -2.250  11.892  19.110  0.00  0.00    +0.000 A 
ATOM     15  C   UNL     1      -1.820  10.910  18.231  0.00  0.00    +0.000 A 
ATOM     16  S   UNL     1      -3.174  10.175  17.463  0.00  0.00    +0.000 S 
ENDBRANCH   9  15
ENDBRANCH   7  10
ENDBRANCH   1   7
BRANCH   4  17
ATOM     17  O   UNL     1       3.682   4.396  19.763  0.00  0.00    +0.000 OA
ATOM     18  H   UNL     1       4.185   4.505  20.591  0.00  0.00    +0.000 HD
ENDBRANCH   4  17
BRANCH   5  19
ATOM     19  C   UNL     1       4.349   5.434  17.160  0.00  0.00    +0.000 C 
BRANCH  19  20
ATOM     20  N   UNL     1       5.357   6.228  16.424  0.00  0.00    +0.000 NA
ATOM     21  C   UNL     1       5.827   5.448  15.250  0.00  0.00    +0.000 C 
ATOM     22  C   UNL     1       6.577   4.162  15.646  0.00  0.00    +0.000 C 
ATOM     23  O   UNL     1       7.708   4.450  16.480  0.00  0.00    +0.000 OA
ATOM     24  C   UNL     1       7.358   5.250  17.620  0.00  0.00    +0.000 C 
ATOM     25  C   UNL     1       6.570   6.510  17.225  0.00  0.00    +0.000 C 
ENDBRANCH  19  20
ENDBRANCH   5  19
TORSDOF 6
ENDMDL
MODEL 9
REMARK VINA RESULT:      -7.0      2.531      3.576
REMARK  Name = 
REMARK  7 active torsions:
REMARK  status: ('A' for Active; 'I' for Inactive)
REMARK    1  A    between atoms: C_1  and  C_2
REMARK    2  A    between atoms: C_5  and  C_6
REMARK    3  A    between atoms: C_7  and  C_8
REMARK    4  A    between atoms: C_8  and  C_10
REMARK    5  A    between atoms: C_13  and  O_14
REMARK    6  A    between atoms: C_15  and  C_16
REMARK    7  A    between atoms: C_16  and  N_17
REMARK                            x       y       z     vdW  Elec       q    Type
REMARK                         _______ _______ _______ _____ _____    ______ ____
ROOT
ATOM      1  C   UNL     1       1.511   8.975  19.279  0.00  0.00    +0.000 A 
ATOM      2  C   UNL     1       2.070   9.109  18.001  0.00  0.00    +0.000 A 
ATOM      3  C   UNL     1       2.823   8.069  17.462  0.00  0.00    +0.000 A 
ATOM      4  C   UNL     1       3.020   6.905  18.208  0.00  0.00    +0.000 A 
ATOM      5  C   UNL     1       2.480   6.754  19.488  0.00  0.00    +0.000 A 
ATOM      6  C   UNL     1       1.697   7.793  20.004  0.00  0.00    +0.000 A 
ENDROOT
BRANCH   1   7
ATOM      7  C   UNL     1       0.710  10.047  19.921  0.00  0.00    +0.000 C 
ATOM      8  O   UNL     1       0.956  10.398  21.072  0.00  0.00    +0.000 OA
BRANCH   7  10
ATOM      9  C   UNL     1      -1.308   9.896  18.602  0.00  0.00    +0.000 C 
ATOM     10  C   UNL     1      -0.350  10.688  19.114  0.00  0.00    +0.000 C 
BRANCH   9  15
ATOM     11  C   UNL     1      -5.631  12.418  16.983  0.00  0.00    +0.000 C 
ATOM     12  C   UNL     1      -4.400  11.581  17.027  0.00  0.00    +0.000 A 
ATOM     13  C   UNL     1      -3.797  10.883  16.004  0.00  0.00    +0.000 A 
ATOM     14  C   UNL     1      -2.623  10.206  16.440  0.00  0.00    +0.000 A 
ATOM     15  C   UNL     1      -2.349  10.394  17.786  0.00  0.00    +0.000 A 
ATOM     16  S   UNL     1      -3.549  11.405  18.493  0.00  0.00    +0.000 S 
ENDBRANCH   9  15
ENDBRANCH   7  10
ENDBRANCH   1   7
BRANCH   4  17
ATOM     17  O   UNL     1       3.778   5.903  17.678  0.00  0.00    +0.000 OA
ATOM     18  H   UNL     1       4.648   6.281  17.459  0.00  0.00    +0.000 HD
ENDBRANCH   4  17
BRANCH   5  19
ATOM     19  C   UNL     1       2.793   5.565  20.365  0.00  0.00    +0.000 C 
BRANCH  19  20
ATOM     20  N   UNL     1       1.654   4.679  20.691  0.00  0.00    +0.000 NA
ATOM     21  C   UNL     1       2.131   3.576  21.564  0.00  0.00    +0.000 C 
ATOM     22  C   UNL     1       3.140   2.648  20.858  0.00  0.00    +0.000 C 
ATOM     23  O   UNL     1       2.581   2.075  19.669  0.00  0.00    +0.000 OA
ATOM     24  C   UNL     1       2.043   3.068  18.783  0.00  0.00    +0.000 C 
ATOM     25  C   UNL     1       1.072   4.021  19.500  0.00  0.00    +0.000 C 
ENDBRANCH  19  20
ENDBRANCH   5  19
TORSDOF 6
ENDMDL
