MODEL 1
REMARK VINA RESULT:      -7.0      0.000      0.000
REMARK  Name = 
REMARK  9 active torsions:
REMARK  status: ('A' for Active; 'I' for Inactive)
REMARK    1  A    between atoms: C_1  and  C_2
REMARK    2  A    between atoms: C_2  and  O_3
REMARK    3  A    between atoms: O_3  and  C_4
REMARK    4  A    between atoms: N_9  and  C_10
REMARK    5  A    between atoms: C_10  and  C_11
REMARK    6  A    between atoms: C_11  and  C_13
REMARK    7  A    between atoms: C_16  and  O_17
REMARK    8  A    between atoms: C_18  and  C_19
REMARK    9  A    between atoms: C_20  and  O_21
REMARK                            x       y       z     vdW  Elec       q    Type
REMARK                         _______ _______ _______ _____ _____    ______ ____
ROOT
ATOM      1  C   UNL     1       3.795   2.857  18.197  0.00  0.00    +0.000 C 
ATOM      2  O   UNL     1       3.650   1.739  17.694  0.00  0.00    +0.000 OA
ENDROOT
BRANCH   1   3
ATOM      3  C   UNL     1       4.837   3.766  17.635  0.00  0.00    +0.000 A 
ATOM      4  C   UNL     1       4.853   3.907  16.238  0.00  0.00    +0.000 A 
ATOM      5  C   UNL     1       5.806   4.712  15.619  0.00  0.00    +0.000 A 
ATOM      6  C   UNL     1       6.759   5.367  16.394  0.00  0.00    +0.000 A 
ATOM      7  C   UNL     1       6.777   5.247  17.791  0.00  0.00    +0.000 A 
ATOM      8  C   UNL     1       7.842   5.932  18.603  0.00  0.00    +0.000 C 
ATOM      9  C   UNL     1       5.776   4.468  18.406  0.00  0.00    +0.000 A 
BRANCH   6  10
ATOM     10  O   UNL     1       7.697   6.151  15.781  0.00  0.00    +0.000 OA
ATOM     11  H   UNL     1       8.546   6.051  16.242  0.00  0.00    +0.000 HD
ENDBRANCH   6  10
BRANCH   9  12
ATOM     12  O   UNL     1       5.678   4.424  19.772  0.00  0.00    +0.000 OA
ATOM     13  H   UNL     1       6.424   4.888  20.182  0.00  0.00    +0.000 HD
ENDBRANCH   9  12
ENDBRANCH   1   3
BRANCH   1  14
ATOM     14  C   UNL     1       2.973   3.265  19.412  0.00  0.00    +0.000 C 
BRANCH  14  20
ATOM     15  C   UNL     1       1.558   7.953  20.333  0.00  0.00    +0.000 C 
ATOM     16  O   UNL     1       0.965   8.238  21.366  0.00  0.00    +0.000 OA
ATOM     17  N   UNL     1       2.046   6.697  20.050  0.00  0.00    +0.000 N 
ATOM     18  C   UNL     1       1.763   5.601  20.970  0.00  0.00    +0.000 C 
ATOM     19  C   UNL     1       1.029   4.454  20.246  0.00  0.00    +0.000 C 
ATOM     20  N   UNL     1       1.726   3.965  19.031  0.00  0.00    +0.000 NA
ATOM     21  C   UNL     1       1.971   5.118  18.129  0.00  0.00    +0.000 C 
ATOM     22  C   UNL     1       2.684   6.322  18.784  0.00  0.00    +0.000 C 
BRANCH  15  23
ATOM     23  O   UNL     1       1.736   8.822  19.303  0.00  0.00    +0.000 OA
BRANCH  23  25
ATOM     24  C   UNL     1       1.138  11.133  19.357  0.00  0.00    +0.000 C 
ATOM     25  C   UNL     1       0.645   9.722  19.080  0.00  0.00    +0.000 C 
ENDBRANCH  23  25
ENDBRANCH  15  23
ENDBRANCH  14  20
ENDBRANCH   1  14
TORSDOF 7
ENDMDL
MODEL 2
REMARK VINA RESULT:      -6.7      3.082      7.110
REMARK  Name = 
REMARK  9 active torsions:
REMARK  status: ('A' for Active; 'I' for Inactive)
REMARK    1  A    between atoms: C_1  and  C_2
REMARK    2  A    between atoms: C_2  and  O_3
REMARK    3  A    between atoms: O_3  and  C_4
REMARK    4  A    between atoms: N_9  and  C_10
REMARK    5  A    between atoms: C_10  and  C_11
REMARK    6  A    between atoms: C_11  and  C_13
REMARK    7  A    between atoms: C_16  and  O_17
REMARK    8  A    between atoms: C_18  and  C_19
REMARK    9  A    between atoms: C_20  and  O_21
REMARK                            x       y       z     vdW  Elec       q    Type
REMARK                         _______ _______ _______ _____ _____    ______ ____
ROOT
ATOM      1  C   UNL     1       5.913   4.918  19.026  0.00  0.00    +0.000 C 
ATOM      2  O   UNL     1       6.642   5.315  19.940  0.00  0.00    +0.000 OA
ENDROOT
BRANCH   1   3
ATOM      3  C   UNL     1       4.478   4.635  19.325  0.00  0.00    +0.000 A 
ATOM      4  C   UNL     1       3.682   5.742  19.660  0.00  0.00    +0.000 A 
ATOM      5  C   UNL     1       2.338   5.574  19.981  0.00  0.00    +0.000 A 
ATOM      6  C   UNL     1       1.787   4.295  19.986  0.00  0.00    +0.000 A 
ATOM      7  C   UNL     1       2.552   3.166  19.660  0.00  0.00    +0.000 A 
ATOM      8  C   UNL     1       1.945   1.790  19.712  0.00  0.00    +0.000 C 
ATOM      9  C   UNL     1       3.899   3.358  19.289  0.00  0.00    +0.000 A 
BRANCH   6  10
ATOM     10  O   UNL     1       0.468   4.135  20.309  0.00  0.00    +0.000 OA
ATOM     11  H   UNL     1      -0.081   4.501  19.597  0.00  0.00    +0.000 HD
ENDBRANCH   6  10
BRANCH   9  12
ATOM     12  O   UNL     1       4.649   2.302  18.843  0.00  0.00    +0.000 OA
ATOM     13  H   UNL     1       5.357   2.097  19.473  0.00  0.00    +0.000 HD
ENDBRANCH   9  12
ENDBRANCH   1   3
BRANCH   1  14
ATOM     14  C   UNL     1       6.491   4.656  17.642  0.00  0.00    +0.000 C 
BRANCH  14  20
ATOM     15  C   UNL     1       6.441   3.825  12.729  0.00  0.00    +0.000 C 
ATOM     16  O   UNL     1       7.244   4.381  11.990  0.00  0.00    +0.000 OA
ATOM     17  N   UNL     1       6.448   3.947  14.101  0.00  0.00    +0.000 N 
ATOM     18  C   UNL     1       7.390   4.869  14.726  0.00  0.00    +0.000 C 
ATOM     19  C   UNL     1       6.645   5.919  15.576  0.00  0.00    +0.000 C 
ATOM     20  N   UNL     1       5.719   5.339  16.578  0.00  0.00    +0.000 NA
ATOM     21  C   UNL     1       4.778   4.426  15.881  0.00  0.00    +0.000 C 
ATOM     22  C   UNL     1       5.444   3.354  14.990  0.00  0.00    +0.000 C 
BRANCH  15  23
ATOM     23  O   UNL     1       5.395   3.083  12.281  0.00  0.00    +0.000 OA
BRANCH  23  25
ATOM     24  C   UNL     1       3.383   2.849  11.015  0.00  0.00    +0.000 C 
ATOM     25  C   UNL     1       4.627   3.694  11.238  0.00  0.00    +0.000 C 
ENDBRANCH  23  25
ENDBRANCH  15  23
ENDBRANCH  14  20
ENDBRANCH   1  14
TORSDOF 7
ENDMDL
MODEL 3
REMARK VINA RESULT:      -6.7      1.417      2.357
REMARK  Name = 
REMARK  9 active torsions:
REMARK  status: ('A' for Active; 'I' for Inactive)
REMARK    1  A    between atoms: C_1  and  C_2
REMARK    2  A    between atoms: C_2  and  O_3
REMARK    3  A    between atoms: O_3  and  C_4
REMARK    4  A    between atoms: N_9  and  C_10
REMARK    5  A    between atoms: C_10  and  C_11
REMARK    6  A    between atoms: C_11  and  C_13
REMARK    7  A    between atoms: C_16  and  O_17
REMARK    8  A    between atoms: C_18  and  C_19
REMARK    9  A    between atoms: C_20  and  O_21
REMARK                            x       y       z     vdW  Elec       q    Type
REMARK                         _______ _______ _______ _____ _____    ______ ____
ROOT
ATOM      1  C   UNL     1       4.530   4.411  19.142  0.00  0.00    +0.000 C 
ATOM      2  O   UNL     1       4.499   3.287  19.652  0.00  0.00    +0.000 OA
ENDROOT
BRANCH   1   3
ATOM      3  C   UNL     1       5.365   4.620  17.922  0.00  0.00    +0.000 A 
ATOM      4  C   UNL     1       6.580   5.300  18.108  0.00  0.00    +0.000 A 
ATOM      5  C   UNL     1       7.414   5.566  17.025  0.00  0.00    +0.000 A 
ATOM      6  C   UNL     1       7.028   5.170  15.747  0.00  0.00    +0.000 A 
ATOM      7  C   UNL     1       5.820   4.492  15.522  0.00  0.00    +0.000 A 
ATOM      8  C   UNL     1       5.407   4.111  14.127  0.00  0.00    +0.000 C 
ATOM      9  C   UNL     1       5.011   4.187  16.635  0.00  0.00    +0.000 A 
BRANCH   6  10
ATOM     10  O   UNL     1       7.847   5.440  14.686  0.00  0.00    +0.000 OA
ATOM     11  H   UNL     1       8.771   5.325  14.960  0.00  0.00    +0.000 HD
ENDBRANCH   6  10
BRANCH   9  12
ATOM     12  O   UNL     1       3.887   3.419  16.481  0.00  0.00    +0.000 OA
ATOM     13  H   UNL     1       4.117   2.547  16.122  0.00  0.00    +0.000 HD
ENDBRANCH   9  12
ENDBRANCH   1   3
BRANCH   1  14
ATOM     14  C   UNL     1       3.789   5.571  19.791  0.00  0.00    +0.000 C 
BRANCH  14  20
ATOM     15  C   UNL     1       0.642   9.435  19.784  0.00  0.00    +0.000 C 
ATOM     16  O   UNL     1      -0.026   9.702  20.776  0.00  0.00    +0.000 OA
ATOM     17  N   UNL     1       1.587   8.433  19.742  0.00  0.00    +0.000 N 
ATOM     18  C   UNL     1       1.744   7.558  20.898  0.00  0.00    +0.000 C 
ATOM     19  C   UNL     1       1.526   6.083  20.502  0.00  0.00    +0.000 C 
ATOM     20  N   UNL     1       2.371   5.631  19.370  0.00  0.00    +0.000 NA
ATOM     21  C   UNL     1       2.155   6.548  18.222  0.00  0.00    +0.000 C 
ATOM     22  C   UNL     1       2.334   8.049  18.540  0.00  0.00    +0.000 C 
BRANCH  15  23
ATOM     23  O   UNL     1       0.478  10.041  18.579  0.00  0.00    +0.000 OA
BRANCH  23  25
ATOM     24  C   UNL     1      -1.070  11.833  18.269  0.00  0.00    +0.000 C 
ATOM     25  C   UNL     1      -0.882  10.326  18.230  0.00  0.00    +0.000 C 
ENDBRANCH  23  25
ENDBRANCH  15  23
ENDBRANCH  14  20
ENDBRANCH   1  14
TORSDOF 7
ENDMDL
MODEL 4
REMARK VINA RESULT:      -6.6      2.322      7.227
REMARK  Name = 
REMARK  9 active torsions:
REMARK  status: ('A' for Active; 'I' for Inactive)
REMARK    1  A    between atoms: C_1  and  C_2
REMARK    2  A    between atoms: C_2  and  O_3
REMARK    3  A    between atoms: O_3  and  C_4
REMARK    4  A    between atoms: N_9  and  C_10
REMARK    5  A    between atoms: C_10  and  C_11
REMARK    6  A    between atoms: C_11  and  C_13
REMARK    7  A    between atoms: C_16  and  O_17
REMARK    8  A    between atoms: C_18  and  C_19
REMARK    9  A    between atoms: C_20  and  O_21
REMARK                            x       y       z     vdW  Elec       q    Type
REMARK                         _______ _______ _______ _____ _____    ______ ____
ROOT
ATOM      1  C   UNL     1       1.827   8.781  18.322  0.00  0.00    +0.000 C 
ATOM      2  O   UNL     1       1.223   9.036  17.276  0.00  0.00    +0.000 OA
ENDROOT
BRANCH   1   3
ATOM      3  C   UNL     1       1.267   9.280  19.613  0.00  0.00    +0.000 A 
ATOM      4  C   UNL     1       1.434   8.444  20.728  0.00  0.00    +0.000 A 
ATOM      5  C   UNL     1       0.921   8.811  21.970  0.00  0.00    +0.000 A 
ATOM      6  C   UNL     1       0.223  10.009  22.098  0.00  0.00    +0.000 A 
ATOM      7  C   UNL     1       0.033  10.868  21.005  0.00  0.00    +0.000 A 
ATOM      8  C   UNL     1      -0.760  12.136  21.159  0.00  0.00    +0.000 C 
ATOM      9  C   UNL     1       0.601  10.505  19.766  0.00  0.00    +0.000 A 
BRANCH   6  10
ATOM     10  O   UNL     1      -0.285  10.361  23.318  0.00  0.00    +0.000 OA
ATOM     11  H   UNL     1       0.376  10.887  23.797  0.00  0.00    +0.000 HD
ENDBRANCH   6  10
BRANCH   9  12
ATOM     12  O   UNL     1       0.549  11.370  18.705  0.00  0.00    +0.000 OA
ATOM     13  H   UNL     1       0.280  10.903  17.899  0.00  0.00    +0.000 HD
ENDBRANCH   9  12
ENDBRANCH   1   3
BRANCH   1  14
ATOM     14  C   UNL     1       3.154   8.036  18.281  0.00  0.00    +0.000 C 
BRANCH  14  20
ATOM     15  C   UNL     1       4.133   3.369  19.727  0.00  0.00    +0.000 C 
ATOM     16  O   UNL     1       5.264   2.908  19.636  0.00  0.00    +0.000 OA
ATOM     17  N   UNL     1       3.808   4.672  19.421  0.00  0.00    +0.000 N 
ATOM     18  C   UNL     1       4.831   5.544  18.854  0.00  0.00    +0.000 C 
ATOM     19  C   UNL     1       4.381   6.099  17.487  0.00  0.00    +0.000 C 
ATOM     20  N   UNL     1       3.060   6.773  17.515  0.00  0.00    +0.000 NA
ATOM     21  C   UNL     1       2.062   5.834  18.084  0.00  0.00    +0.000 C 
ATOM     22  C   UNL     1       2.446   5.214  19.446  0.00  0.00    +0.000 C 
BRANCH  15  23
ATOM     23  O   UNL     1       3.044   2.630  20.064  0.00  0.00    +0.000 OA
BRANCH  23  25
ATOM     24  C   UNL     1       1.323   2.635  21.720  0.00  0.00    +0.000 C 
ATOM     25  C   UNL     1       2.816   2.500  21.472  0.00  0.00    +0.000 C 
ENDBRANCH  23  25
ENDBRANCH  15  23
ENDBRANCH  14  20
ENDBRANCH   1  14
TORSDOF 7
ENDMDL
MODEL 5
REMARK VINA RESULT:      -6.6      2.231      6.848
REMARK  Name = 
REMARK  9 active torsions:
REMARK  status: ('A' for Active; 'I' for Inactive)
REMARK    1  A    between atoms: C_1  and  C_2
REMARK    2  A    between atoms: C_2  and  O_3
REMARK    3  A    between atoms: O_3  and  C_4
REMARK    4  A    between atoms: N_9  and  C_10
REMARK    5  A    between atoms: C_10  and  C_11
REMARK    6  A    between atoms: C_11  and  C_13
REMARK    7  A    between atoms: C_16  and  O_17
REMARK    8  A    between atoms: C_18  and  C_19
REMARK    9  A    between atoms: C_20  and  O_21
REMARK                            x       y       z     vdW  Elec       q    Type
REMARK                         _______ _______ _______ _____ _____    ______ ____
ROOT
ATOM      1  C   UNL     1       2.217   6.369  19.868  0.00  0.00    +0.000 C 
ATOM      2  O   UNL     1       1.741   5.782  20.845  0.00  0.00    +0.000 OA
ENDROOT
BRANCH   1   3
ATOM      3  C   UNL     1       1.736   7.748  19.557  0.00  0.00    +0.000 A 
ATOM      4  C   UNL     1       1.691   8.099  18.199  0.00  0.00    +0.000 A 
ATOM      5  C   UNL     1       1.283   9.373  17.811  0.00  0.00    +0.000 A 
ATOM      6  C   UNL     1       0.934  10.307  18.782  0.00  0.00    +0.000 A 
ATOM      7  C   UNL     1       0.970   9.993  20.149  0.00  0.00    +0.000 A 
ATOM      8  C   UNL     1       0.628  11.033  21.181  0.00  0.00    +0.000 C 
ATOM      9  C   UNL     1       1.338   8.685  20.523  0.00  0.00    +0.000 A 
BRANCH   6  10
ATOM     10  O   UNL     1       0.540  11.559  18.397  0.00  0.00    +0.000 OA
ATOM     11  H   UNL     1       1.073  11.840  17.635  0.00  0.00    +0.000 HD
ENDBRANCH   6  10
BRANCH   9  12
ATOM     12  O   UNL     1       1.267   8.296  21.834  0.00  0.00    +0.000 OA
ATOM     13  H   UNL     1       2.055   8.587  22.319  0.00  0.00    +0.000 HD
ENDBRANCH   9  12
ENDBRANCH   1   3
BRANCH   1  14
ATOM     14  C   UNL     1       3.219   5.667  18.963  0.00  0.00    +0.000 C 
BRANCH  14  20
ATOM     15  C   UNL     1       7.182   4.774  16.077  0.00  0.00    +0.000 C 
ATOM     16  O   UNL     1       8.089   4.048  16.463  0.00  0.00    +0.000 OA
ATOM     17  N   UNL     1       6.024   5.001  16.788  0.00  0.00    +0.000 N 
ATOM     18  C   UNL     1       5.892   4.439  18.127  0.00  0.00    +0.000 C 
ATOM     19  C   UNL     1       5.634   5.552  19.164  0.00  0.00    +0.000 C 
ATOM     20  N   UNL     1       4.483   6.427  18.836  0.00  0.00    +0.000 NA
ATOM     21  C   UNL     1       4.682   6.980  17.473  0.00  0.00    +0.000 C 
ATOM     22  C   UNL     1       4.967   5.931  16.376  0.00  0.00    +0.000 C 
BRANCH  15  23
ATOM     23  O   UNL     1       7.240   5.509  14.936  0.00  0.00    +0.000 OA
BRANCH  23  25
ATOM     24  C   UNL     1       6.168   3.930  13.501  0.00  0.00    +0.000 C 
ATOM     25  C   UNL     1       7.427   4.747  13.738  0.00  0.00    +0.000 C 
ENDBRANCH  23  25
ENDBRANCH  15  23
ENDBRANCH  14  20
ENDBRANCH   1  14
TORSDOF 7
ENDMDL
MODEL 6
REMARK VINA RESULT:      -6.5      1.989      5.997
REMARK  Name = 
REMARK  9 active torsions:
REMARK  status: ('A' for Active; 'I' for Inactive)
REMARK    1  A    between atoms: C_1  and  C_2
REMARK    2  A    between atoms: C_2  and  O_3
REMARK    3  A    between atoms: O_3  and  C_4
REMARK    4  A    between atoms: N_9  and  C_10
REMARK    5  A    between atoms: C_10  and  C_11
REMARK    6  A    between atoms: C_11  and  C_13
REMARK    7  A    between atoms: C_16  and  O_17
REMARK    8  A    between atoms: C_18  and  C_19
REMARK    9  A    between atoms: C_20  and  O_21
REMARK                            x       y       z     vdW  Elec       q    Type
REMARK                         _______ _______ _______ _____ _____    ______ ____
ROOT
ATOM      1  C   UNL     1       2.215   5.618  19.800  0.00  0.00    +0.000 C 
ATOM      2  O   UNL     1       2.131   5.280  20.984  0.00  0.00    +0.000 OA
ENDROOT
BRANCH   1   3
ATOM      3  C   UNL     1       1.935   7.039  19.439  0.00  0.00    +0.000 A 
ATOM      4  C   UNL     1       2.162   7.398  18.101  0.00  0.00    +0.000 A 
ATOM      5  C   UNL     1       1.955   8.708  17.675  0.00  0.00    +0.000 A 
ATOM      6  C   UNL     1       1.537   9.669  18.590  0.00  0.00    +0.000 A 
ATOM      7  C   UNL     1       1.304   9.349  19.936  0.00  0.00    +0.000 A 
ATOM      8  C   UNL     1       0.892  10.415  20.915  0.00  0.00    +0.000 C 
ATOM      9  C   UNL     1       1.471   8.009  20.340  0.00  0.00    +0.000 A 
BRANCH   6  10
ATOM     10  O   UNL     1       1.342  10.956  18.169  0.00  0.00    +0.000 OA
ATOM     11  H   UNL     1       1.892  11.552  18.703  0.00  0.00    +0.000 HD
ENDBRANCH   6  10
BRANCH   9  12
ATOM     12  O   UNL     1       1.134   7.625  21.612  0.00  0.00    +0.000 OA
ATOM     13  H   UNL     1       1.855   7.117  22.015  0.00  0.00    +0.000 HD
ENDBRANCH   9  12
ENDBRANCH   1   3
BRANCH   1  14
ATOM     14  C   UNL     1       2.528   4.585  18.726  0.00  0.00    +0.000 C 
BRANCH  14  20
ATOM     15  C   UNL     1       6.911   5.466  16.525  0.00  0.00    +0.000 C 
ATOM     16  O   UNL     1       7.216   4.896  15.485  0.00  0.00    +0.000 OA
ATOM     17  N   UNL     1       5.687   5.330  17.144  0.00  0.00    +0.000 N 
ATOM     18  C   UNL     1       4.722   4.378  16.606  0.00  0.00    +0.000 C 
ATOM     19  C   UNL     1       4.325   3.339  17.675  0.00  0.00    +0.000 C 
ATOM     20  N   UNL     1       3.839   3.934  18.944  0.00  0.00    +0.000 NA
ATOM     21  C   UNL     1       4.868   4.878  19.448  0.00  0.00    +0.000 C 
ATOM     22  C   UNL     1       5.338   5.941  18.430  0.00  0.00    +0.000 C 
BRANCH  15  23
ATOM     23  O   UNL     1       7.769   6.240  17.239  0.00  0.00    +0.000 OA
BRANCH  23  25
ATOM     24  C   UNL     1       8.309   8.354  18.210  0.00  0.00    +0.000 C 
ATOM     25  C   UNL     1       7.590   7.650  17.071  0.00  0.00    +0.000 C 
ENDBRANCH  23  25
ENDBRANCH  15  23
ENDBRANCH  14  20
ENDBRANCH   1  14
TORSDOF 7
ENDMDL
MODEL 7
REMARK VINA RESULT:      -6.5      2.345      7.000
REMARK  Name = 
REMARK  9 active torsions:
REMARK  status: ('A' for Active; 'I' for Inactive)
REMARK    1  A    between atoms: C_1  and  C_2
REMARK    2  A    between atoms: C_2  and  O_3
REMARK    3  A    between atoms: O_3  and  C_4
REMARK    4  A    between atoms: N_9  and  C_10
REMARK    5  A    between atoms: C_10  and  C_11
REMARK    6  A    between atoms: C_11  and  C_13
REMARK    7  A    between atoms: C_16  and  O_17
REMARK    8  A    between atoms: C_18  and  C_19
REMARK    9  A    between atoms: C_20  and  O_21
REMARK                            x       y       z     vdW  Elec       q    Type
REMARK                         _______ _______ _______ _____ _____    ______ ____
ROOT
ATOM      1  C   UNL     1       2.962   6.145  19.605  0.00  0.00    +0.000 C 
ATOM      2  O   UNL     1       2.532   5.302  20.397  0.00  0.00    +0.000 OA
ENDROOT
BRANCH   1   3
ATOM      3  C   UNL     1       2.216   7.430  19.452  0.00  0.00    +0.000 A 
ATOM      4  C   UNL     1       2.109   7.935  18.147  0.00  0.00    +0.000 A 
ATOM      5  C   UNL     1       1.455   9.141  17.907  0.00  0.00    +0.000 A 
ATOM      6  C   UNL     1       0.920   9.856  18.975  0.00  0.00    +0.000 A 
ATOM      7  C   UNL     1       1.011   9.384  20.293  0.00  0.00    +0.000 A 
ATOM      8  C   UNL     1       0.461  10.195  21.435  0.00  0.00    +0.000 C 
ATOM      9  C   UNL     1       1.633   8.139  20.513  0.00  0.00    +0.000 A 
BRANCH   6  10
ATOM     10  O   UNL     1       0.285  11.044  18.736  0.00  0.00    +0.000 OA
ATOM     11  H   UNL     1       0.429  11.300  17.810  0.00  0.00    +0.000 HD
ENDBRANCH   6  10
BRANCH   9  12
ATOM     12  O   UNL     1       1.634   7.579  21.764  0.00  0.00    +0.000 OA
ATOM     13  H   UNL     1       1.665   6.612  21.704  0.00  0.00    +0.000 HD
ENDBRANCH   9  12
ENDBRANCH   1   3
BRANCH   1  14
ATOM     14  C   UNL     1       4.187   5.846  18.752  0.00  0.00    +0.000 C 
BRANCH  14  20
ATOM     15  C   UNL     1       6.992   4.680  14.803  0.00  0.00    +0.000 C 
ATOM     16  O   UNL     1       7.862   5.444  14.403  0.00  0.00    +0.000 OA
ATOM     17  N   UNL     1       6.235   4.901  15.932  0.00  0.00    +0.000 N 
ATOM     18  C   UNL     1       6.386   6.161  16.652  0.00  0.00    +0.000 C 
ATOM     19  C   UNL     1       5.038   6.905  16.743  0.00  0.00    +0.000 C 
ATOM     20  N   UNL     1       3.938   6.091  17.314  0.00  0.00    +0.000 NA
ATOM     21  C   UNL     1       3.822   4.835  16.532  0.00  0.00    +0.000 C 
ATOM     22  C   UNL     1       5.136   4.038  16.375  0.00  0.00    +0.000 C 
BRANCH  15  23
ATOM     23  O   UNL     1       6.611   3.558  14.137  0.00  0.00    +0.000 OA
BRANCH  23  25
ATOM     24  C   UNL     1       5.102   3.391  12.293  0.00  0.00    +0.000 C 
ATOM     25  C   UNL     1       6.529   3.703  12.714  0.00  0.00    +0.000 C 
ENDBRANCH  23  25
ENDBRANCH  15  23
ENDBRANCH  14  20
ENDBRANCH   1  14
TORSDOF 7
ENDMDL
MODEL 8
REMARK VINA RESULT:      -6.5      3.125      7.308
REMARK  Name = 
REMARK  9 active torsions:
REMARK  status: ('A' for Active; 'I' for Inactive)
REMARK    1  A    between atoms: C_1  and  C_2
REMARK    2  A    between atoms: C_2  and  O_3
REMARK    3  A    between atoms: O_3  and  C_4
REMARK    4  A    between atoms: N_9  and  C_10
REMARK    5  A    between atoms: C_10  and  C_11
REMARK    6  A    between atoms: C_11  and  C_13
REMARK    7  A    between atoms: C_16  and  O_17
REMARK    8  A    between atoms: C_18  and  C_19
REMARK    9  A    between atoms: C_20  and  O_21
REMARK                            x       y       z     vdW  Elec       q    Type
REMARK                         _______ _______ _______ _____ _____    ______ ____
ROOT
ATOM      1  C   UNL     1       6.032   4.852  19.084  0.00  0.00    +0.000 C 
ATOM      2  O   UNL     1       6.651   5.450  19.968  0.00  0.00    +0.000 OA
ENDROOT
BRANCH   1   3
ATOM      3  C   UNL     1       4.736   4.197  19.433  0.00  0.00    +0.000 A 
ATOM      4  C   UNL     1       4.711   2.795  19.369  0.00  0.00    +0.000 A 
ATOM      5  C   UNL     1       3.540   2.095  19.651  0.00  0.00    +0.000 A 
ATOM      6  C   UNL     1       2.384   2.797  19.982  0.00  0.00    +0.000 A 
ATOM      7  C   UNL     1       2.371   4.198  20.052  0.00  0.00    +0.000 A 
ATOM      8  C   UNL     1       1.098   4.934  20.372  0.00  0.00    +0.000 C 
ATOM      9  C   UNL     1       3.576   4.888  19.812  0.00  0.00    +0.000 A 
BRANCH   6  10
ATOM     10  O   UNL     1       1.235   2.106  20.251  0.00  0.00    +0.000 OA
ATOM     11  H   UNL     1       0.627   2.679  20.746  0.00  0.00    +0.000 HD
ENDBRANCH   6  10
BRANCH   9  12
ATOM     12  O   UNL     1       3.641   6.245  19.992  0.00  0.00    +0.000 OA
ATOM     13  H   UNL     1       4.168   6.459  20.778  0.00  0.00    +0.000 HD
ENDBRANCH   9  12
ENDBRANCH   1   3
BRANCH   1  14
ATOM     14  C   UNL     1       6.618   4.729  17.684  0.00  0.00    +0.000 C 
BRANCH  14  20
ATOM     15  C   UNL     1       6.348   3.701  12.816  0.00  0.00    +0.000 C 
ATOM     16  O   UNL     1       7.043   4.303  12.007  0.00  0.00    +0.000 OA
ATOM     17  N   UNL     1       6.427   3.877  14.180  0.00  0.00    +0.000 N 
ATOM     18  C   UNL     1       7.308   4.911  14.711  0.00  0.00    +0.000 C 
ATOM     19  C   UNL     1       6.516   5.917  15.571  0.00  0.00    +0.000 C 
ATOM     20  N   UNL     1       5.718   5.289  16.651  0.00  0.00    +0.000 NA
ATOM     21  C   UNL     1       4.832   4.261  16.049  0.00  0.00    +0.000 C 
ATOM     22  C   UNL     1       5.545   3.225  15.153  0.00  0.00    +0.000 C 
BRANCH  15  23
ATOM     23  O   UNL     1       5.355   2.842  12.463  0.00  0.00    +0.000 OA
BRANCH  23  25
ATOM     24  C   UNL     1       6.222   0.999  11.216  0.00  0.00    +0.000 C 
ATOM     25  C   UNL     1       5.461   2.312  11.137  0.00  0.00    +0.000 C 
ENDBRANCH  23  25
ENDBRANCH  15  23
ENDBRANCH  14  20
ENDBRANCH   1  14
TORSDOF 7
ENDMDL
MODEL 9
REMARK VINA RESULT:      -6.5      1.074      1.785
REMARK  Name = 
REMARK  9 active torsions:
REMARK  status: ('A' for Active; 'I' for Inactive)
REMARK    1  A    between atoms: C_1  and  C_2
REMARK    2  A    between atoms: C_2  and  O_3
REMARK    3  A    between atoms: O_3  and  C_4
REMARK    4  A    between atoms: N_9  and  C_10
REMARK    5  A    between atoms: C_10  and  C_11
REMARK    6  A    between atoms: C_11  and  C_13
REMARK    7  A    between atoms: C_16  and  O_17
REMARK    8  A    between atoms: C_18  and  C_19
REMARK    9  A    between atoms: C_20  and  O_21
REMARK                            x       y       z     vdW  Elec       q    Type
REMARK                         _______ _______ _______ _____ _____    ______ ____
ROOT
ATOM      1  C   UNL     1       4.370   3.499  19.073  0.00  0.00    +0.000 C 
ATOM      2  O   UNL     1       4.381   2.274  18.920  0.00  0.00    +0.000 OA
ENDROOT
BRANCH   1   3
ATOM      3  C   UNL     1       5.343   4.326  18.300  0.00  0.00    +0.000 A 
ATOM      4  C   UNL     1       5.973   5.365  19.004  0.00  0.00    +0.000 A 
ATOM      5  C   UNL     1       6.876   6.208  18.361  0.00  0.00    +0.000 A 
ATOM      6  C   UNL     1       7.142   6.026  17.007  0.00  0.00    +0.000 A 
ATOM      7  C   UNL     1       6.529   5.001  16.270  0.00  0.00    +0.000 A 
ATOM      8  C   UNL     1       6.800   4.851  14.799  0.00  0.00    +0.000 C 
ATOM      9  C   UNL     1       5.654   4.126  16.947  0.00  0.00    +0.000 A 
BRANCH   6  10
ATOM     10  O   UNL     1       8.024   6.861  16.379  0.00  0.00    +0.000 OA
ATOM     11  H   UNL     1       8.265   7.582  16.983  0.00  0.00    +0.000 HD
ENDBRANCH   6  10
BRANCH   9  12
ATOM     12  O   UNL     1       5.132   3.038  16.300  0.00  0.00    +0.000 OA
ATOM     13  H   UNL     1       5.839   2.438  16.018  0.00  0.00    +0.000 HD
ENDBRANCH   9  12
ENDBRANCH   1   3
BRANCH   1  14
ATOM     14  C   UNL     1       3.428   4.139  20.083  0.00  0.00    +0.000 C 
BRANCH  14  20
ATOM     15  C   UNL     1       1.276   8.628  19.882  0.00  0.00    +0.000 C 
ATOM     16  O   UNL     1       0.542   9.013  20.784  0.00  0.00    +0.000 OA
ATOM     17  N   UNL     1       1.964   7.435  19.909  0.00  0.00    +0.000 N 
ATOM     18  C   UNL     1       1.741   6.512  21.016  0.00  0.00    +0.000 C 
ATOM     19  C   UNL     1       1.259   5.142  20.498  0.00  0.00    +0.000 C 
ATOM     20  N   UNL     1       2.142   4.541  19.470  0.00  0.00    +0.000 NA
ATOM     21  C   UNL     1       2.317   5.517  18.366  0.00  0.00    +0.000 C 
ATOM     22  C   UNL     1       2.780   6.924  18.803  0.00  0.00    +0.000 C 
BRANCH  15  23
ATOM     23  O   UNL     1       1.439   9.293  18.708  0.00  0.00    +0.000 OA
BRANCH  23  25
ATOM     24  C   UNL     1       1.488  11.679  18.800  0.00  0.00    +0.000 C 
ATOM     25  C   UNL     1       0.618  10.457  18.557  0.00  0.00    +0.000 C 
ENDBRANCH  23  25
ENDBRANCH  15  23
ENDBRANCH  14  20
ENDBRANCH   1  14
TORSDOF 7
ENDMDL
