MODEL 1
REMARK VINA RESULT:      -7.0      0.000      0.000
REMARK  Name = 
REMARK  13 active torsions:
REMARK  status: ('A' for Active; 'I' for Inactive)
REMARK    1  A    between atoms: C_1  and  C_2
REMARK    2  A    between atoms: C_2  and  C_3
REMARK    3  A    between atoms: C_3  and  C_4
REMARK    4  A    between atoms: C_4  and  C_5
REMARK    5  A    between atoms: C_5  and  C_6
REMARK    6  A    between atoms: C_5  and  C_8
REMARK    7  A    between atoms: C_6  and  C_7
REMARK    8  A    between atoms: C_8  and  O_9
REMARK    9  A    between atoms: O_9  and  C_10
REMARK   10  A    between atoms: C_10  and  C_12
REMARK   11  A    between atoms: C_13  and  C_14
REMARK   12  A    between atoms: C_17  and  O_18
REMARK   13  A    between atoms: O_18  and  C_19
REMARK                            x       y       z     vdW  Elec       q    Type
REMARK                         _______ _______ _______ _____ _____    ______ ____
ROOT
ATOM      1  C   UNL     1       6.631   4.760  14.918  0.00  0.00    +0.000 C 
ATOM      2  O   UNL     1       7.356   5.683  15.242  0.00  0.00    +0.000 OA
ENDROOT
BRANCH   1   3
ATOM      3  C   UNL     1       5.561   4.187  15.763  0.00  0.00    +0.000 C 
ATOM      4  C   UNL     1       5.345   4.665  16.994  0.00  0.00    +0.000 C 
BRANCH   4   5
ATOM      5  C   UNL     1       4.293   4.186  17.895  0.00  0.00    +0.000 A 
ATOM      6  C   UNL     1       2.959   4.482  17.593  0.00  0.00    +0.000 A 
ATOM      7  C   UNL     1       1.925   4.062  18.435  0.00  0.00    +0.000 A 
ATOM      8  C   UNL     1       2.204   3.309  19.577  0.00  0.00    +0.000 A 
ATOM      9  C   UNL     1       3.526   2.990  19.876  0.00  0.00    +0.000 A 
ATOM     10  C   UNL     1       4.560   3.415  19.036  0.00  0.00    +0.000 A 
BRANCH   8  11
ATOM     11  O   UNL     1       1.118   2.984  20.340  0.00  0.00    +0.000 OA
ATOM     12  C   UNL     1       1.388   2.689  21.706  0.00  0.00    +0.000 C 
ENDBRANCH   8  11
ENDBRANCH   4   5
ENDBRANCH   1   3
BRANCH   1  13
ATOM     13  O   UNL     1       6.604   4.131  13.714  0.00  0.00    +0.000 OA
BRANCH  13  14
ATOM     14  C   UNL     1       5.299   3.971  13.131  0.00  0.00    +0.000 C 
BRANCH  14  15
ATOM     15  C   UNL     1       5.187   2.783  12.157  0.00  0.00    +0.000 C 
BRANCH  15  16
ATOM     16  C   UNL     1       6.476   2.668  11.312  0.00  0.00    +0.000 C 
ATOM     17  C   UNL     1       6.887   1.252  10.931  0.00  0.00    +0.000 C 
ENDBRANCH  15  16
BRANCH  15  18
ATOM     18  C   UNL     1       3.885   2.854  11.324  0.00  0.00    +0.000 C 
BRANCH  18  19
ATOM     19  C   UNL     1       3.814   4.108  10.445  0.00  0.00    +0.000 C 
BRANCH  19  21
ATOM     20  C   UNL     1       2.116   5.173   8.939  0.00  0.00    +0.000 C 
ATOM     21  C   UNL     1       2.930   3.915   9.212  0.00  0.00    +0.000 C 
ENDBRANCH  19  21
ENDBRANCH  18  19
ENDBRANCH  15  18
ENDBRANCH  14  15
ENDBRANCH  13  14
ENDBRANCH   1  13
TORSDOF 10
ENDMDL
MODEL 2
REMARK VINA RESULT:      -6.9      1.201      1.529
REMARK  Name = 
REMARK  13 active torsions:
REMARK  status: ('A' for Active; 'I' for Inactive)
REMARK    1  A    between atoms: C_1  and  C_2
REMARK    2  A    between atoms: C_2  and  C_3
REMARK    3  A    between atoms: C_3  and  C_4
REMARK    4  A    between atoms: C_4  and  C_5
REMARK    5  A    between atoms: C_5  and  C_6
REMARK    6  A    between atoms: C_5  and  C_8
REMARK    7  A    between atoms: C_6  and  C_7
REMARK    8  A    between atoms: C_8  and  O_9
REMARK    9  A    between atoms: O_9  and  C_10
REMARK   10  A    between atoms: C_10  and  C_12
REMARK   11  A    between atoms: C_13  and  C_14
REMARK   12  A    between atoms: C_17  and  O_18
REMARK   13  A    between atoms: O_18  and  C_19
REMARK                            x       y       z     vdW  Elec       q    Type
REMARK                         _______ _______ _______ _____ _____    ______ ____
ROOT
ATOM      1  C   UNL     1       6.665   4.768  15.595  0.00  0.00    +0.000 C 
ATOM      2  O   UNL     1       7.286   5.800  15.416  0.00  0.00    +0.000 OA
ENDROOT
BRANCH   1   3
ATOM      3  C   UNL     1       5.837   4.473  16.784  0.00  0.00    +0.000 C 
ATOM      4  C   UNL     1       4.562   4.876  16.835  0.00  0.00    +0.000 C 
BRANCH   4   5
ATOM      5  C   UNL     1       3.653   4.608  17.953  0.00  0.00    +0.000 A 
ATOM      6  C   UNL     1       2.881   3.440  17.930  0.00  0.00    +0.000 A 
ATOM      7  C   UNL     1       1.988   3.154  18.966  0.00  0.00    +0.000 A 
ATOM      8  C   UNL     1       1.872   4.014  20.060  0.00  0.00    +0.000 A 
ATOM      9  C   UNL     1       2.650   5.169  20.103  0.00  0.00    +0.000 A 
ATOM     10  C   UNL     1       3.542   5.456  19.064  0.00  0.00    +0.000 A 
BRANCH   8  11
ATOM     11  O   UNL     1       0.943   3.649  20.994  0.00  0.00    +0.000 OA
ATOM     12  C   UNL     1       1.308   2.561  21.836  0.00  0.00    +0.000 C 
ENDBRANCH   8  11
ENDBRANCH   4   5
ENDBRANCH   1   3
BRANCH   1  13
ATOM     13  O   UNL     1       6.546   3.729  14.727  0.00  0.00    +0.000 OA
BRANCH  13  14
ATOM     14  C   UNL     1       5.856   4.027  13.501  0.00  0.00    +0.000 C 
BRANCH  14  15
ATOM     15  C   UNL     1       6.360   3.226  12.285  0.00  0.00    +0.000 C 
BRANCH  15  16
ATOM     16  C   UNL     1       7.282   4.110  11.415  0.00  0.00    +0.000 C 
ATOM     17  C   UNL     1       7.684   5.444  12.031  0.00  0.00    +0.000 C 
ENDBRANCH  15  16
BRANCH  15  18
ATOM     18  C   UNL     1       5.189   2.573  11.511  0.00  0.00    +0.000 C 
BRANCH  18  19
ATOM     19  C   UNL     1       3.970   3.497  11.396  0.00  0.00    +0.000 C 
BRANCH  19  21
ATOM     20  C   UNL     1       2.850   4.460   9.370  0.00  0.00    +0.000 C 
ATOM     21  C   UNL     1       3.112   3.189  10.169  0.00  0.00    +0.000 C 
ENDBRANCH  19  21
ENDBRANCH  18  19
ENDBRANCH  15  18
ENDBRANCH  14  15
ENDBRANCH  13  14
ENDBRANCH   1  13
TORSDOF 10
ENDMDL
MODEL 3
REMARK VINA RESULT:      -6.8      3.385      6.365
REMARK  Name = 
REMARK  13 active torsions:
REMARK  status: ('A' for Active; 'I' for Inactive)
REMARK    1  A    between atoms: C_1  and  C_2
REMARK    2  A    between atoms: C_2  and  C_3
REMARK    3  A    between atoms: C_3  and  C_4
REMARK    4  A    between atoms: C_4  and  C_5
REMARK    5  A    between atoms: C_5  and  C_6
REMARK    6  A    between atoms: C_5  and  C_8
REMARK    7  A    between atoms: C_6  and  C_7
REMARK    8  A    between atoms: C_8  and  O_9
REMARK    9  A    between atoms: O_9  and  C_10
REMARK   10  A    between atoms: C_10  and  C_12
REMARK   11  A    between atoms: C_13  and  C_14
REMARK   12  A    between atoms: C_17  and  O_18
REMARK   13  A    between atoms: O_18  and  C_19
REMARK                            x       y       z     vdW  Elec       q    Type
REMARK                         _______ _______ _______ _____ _____    ______ ____
ROOT
ATOM      1  C   UNL     1       6.374   5.013  15.001  0.00  0.00    +0.000 C 
ATOM      2  O   UNL     1       6.497   4.351  13.987  0.00  0.00    +0.000 OA
ENDROOT
BRANCH   1   3
ATOM      3  C   UNL     1       5.251   4.897  15.957  0.00  0.00    +0.000 C 
ATOM      4  C   UNL     1       5.029   3.744  16.600  0.00  0.00    +0.000 C 
BRANCH   4   5
ATOM      5  C   UNL     1       3.964   3.538  17.585  0.00  0.00    +0.000 A 
ATOM      6  C   UNL     1       3.577   2.230  17.899  0.00  0.00    +0.000 A 
ATOM      7  C   UNL     1       2.552   1.988  18.818  0.00  0.00    +0.000 A 
ATOM      8  C   UNL     1       1.918   3.049  19.466  0.00  0.00    +0.000 A 
ATOM      9  C   UNL     1       2.308   4.355  19.178  0.00  0.00    +0.000 A 
ATOM     10  C   UNL     1       3.331   4.596  18.255  0.00  0.00    +0.000 A 
BRANCH   8  11
ATOM     11  O   UNL     1       0.910   2.694  20.318  0.00  0.00    +0.000 OA
ATOM     12  C   UNL     1       1.237   2.708  21.703  0.00  0.00    +0.000 C 
ENDBRANCH   8  11
ENDBRANCH   4   5
ENDBRANCH   1   3
BRANCH   1  13
ATOM     13  O   UNL     1       7.258   5.920  15.493  0.00  0.00    +0.000 OA
BRANCH  13  14
ATOM     14  C   UNL     1       6.781   6.712  16.594  0.00  0.00    +0.000 C 
BRANCH  14  15
ATOM     15  C   UNL     1       7.896   7.268  17.499  0.00  0.00    +0.000 C 
BRANCH  15  16
ATOM     16  C   UNL     1       7.920   6.500  18.841  0.00  0.00    +0.000 C 
ATOM     17  C   UNL     1       7.665   5.001  18.743  0.00  0.00    +0.000 C 
ENDBRANCH  15  16
BRANCH  15  18
ATOM     18  C   UNL     1       7.792   8.805  17.648  0.00  0.00    +0.000 C 
BRANCH  18  19
ATOM     19  C   UNL     1       8.788   9.368  18.669  0.00  0.00    +0.000 C 
BRANCH  19  21
ATOM     20  C   UNL     1      10.315  11.253  19.302  0.00  0.00    +0.000 C 
ATOM     21  C   UNL     1       9.220  10.798  18.346  0.00  0.00    +0.000 C 
ENDBRANCH  19  21
ENDBRANCH  18  19
ENDBRANCH  15  18
ENDBRANCH  14  15
ENDBRANCH  13  14
ENDBRANCH   1  13
TORSDOF 10
ENDMDL
MODEL 4
REMARK VINA RESULT:      -6.6      4.066      6.347
REMARK  Name = 
REMARK  13 active torsions:
REMARK  status: ('A' for Active; 'I' for Inactive)
REMARK    1  A    between atoms: C_1  and  C_2
REMARK    2  A    between atoms: C_2  and  C_3
REMARK    3  A    between atoms: C_3  and  C_4
REMARK    4  A    between atoms: C_4  and  C_5
REMARK    5  A    between atoms: C_5  and  C_6
REMARK    6  A    between atoms: C_5  and  C_8
REMARK    7  A    between atoms: C_6  and  C_7
REMARK    8  A    between atoms: C_8  and  O_9
REMARK    9  A    between atoms: O_9  and  C_10
REMARK   10  A    between atoms: C_10  and  C_12
REMARK   11  A    between atoms: C_13  and  C_14
REMARK   12  A    between atoms: C_17  and  O_18
REMARK   13  A    between atoms: O_18  and  C_19
REMARK                            x       y       z     vdW  Elec       q    Type
REMARK                         _______ _______ _______ _____ _____    ______ ____
ROOT
ATOM      1  C   UNL     1       3.211   3.960  17.985  0.00  0.00    +0.000 C 
ATOM      2  O   UNL     1       3.381   3.232  18.945  0.00  0.00    +0.000 OA
ENDROOT
BRANCH   1   3
ATOM      3  C   UNL     1       2.510   5.261  18.022  0.00  0.00    +0.000 C 
ATOM      4  C   UNL     1       2.868   6.195  18.912  0.00  0.00    +0.000 C 
BRANCH   4   5
ATOM      5  C   UNL     1       2.256   7.523  19.009  0.00  0.00    +0.000 A 
ATOM      6  C   UNL     1       2.310   8.374  17.898  0.00  0.00    +0.000 A 
ATOM      7  C   UNL     1       1.757   9.656  17.953  0.00  0.00    +0.000 A 
ATOM      8  C   UNL     1       1.111  10.100  19.108  0.00  0.00    +0.000 A 
ATOM      9  C   UNL     1       1.033   9.255  20.212  0.00  0.00    +0.000 A 
ATOM     10  C   UNL     1       1.590   7.973  20.158  0.00  0.00    +0.000 A 
BRANCH   8  11
ATOM     11  O   UNL     1       0.640  11.382  19.056  0.00  0.00    +0.000 OA
ATOM     12  C   UNL     1       1.590  12.376  18.690  0.00  0.00    +0.000 C 
ENDBRANCH   8  11
ENDBRANCH   4   5
ENDBRANCH   1   3
BRANCH   1  13
ATOM     13  O   UNL     1       3.685   3.769  16.726  0.00  0.00    +0.000 OA
BRANCH  13  14
ATOM     14  C   UNL     1       5.046   4.178  16.511  0.00  0.00    +0.000 C 
BRANCH  14  15
ATOM     15  C   UNL     1       5.220   5.225  15.394  0.00  0.00    +0.000 C 
BRANCH  15  16
ATOM     16  C   UNL     1       6.440   4.863  14.516  0.00  0.00    +0.000 C 
ATOM     17  C   UNL     1       6.212   3.749  13.503  0.00  0.00    +0.000 C 
ENDBRANCH  15  16
BRANCH  15  18
ATOM     18  C   UNL     1       5.250   6.663  15.964  0.00  0.00    +0.000 C 
BRANCH  18  19
ATOM     19  C   UNL     1       5.850   6.727  17.374  0.00  0.00    +0.000 C 
BRANCH  19  21
ATOM     20  C   UNL     1       7.999   6.574  18.656  0.00  0.00    +0.000 C 
ATOM     21  C   UNL     1       7.345   7.048  17.365  0.00  0.00    +0.000 C 
ENDBRANCH  19  21
ENDBRANCH  18  19
ENDBRANCH  15  18
ENDBRANCH  14  15
ENDBRANCH  13  14
ENDBRANCH   1  13
TORSDOF 10
ENDMDL
MODEL 5
REMARK VINA RESULT:      -6.5      6.149      8.430
REMARK  Name = 
REMARK  13 active torsions:
REMARK  status: ('A' for Active; 'I' for Inactive)
REMARK    1  A    between atoms: C_1  and  C_2
REMARK    2  A    between atoms: C_2  and  C_3
REMARK    3  A    between atoms: C_3  and  C_4
REMARK    4  A    between atoms: C_4  and  C_5
REMARK    5  A    between atoms: C_5  and  C_6
REMARK    6  A    between atoms: C_5  and  C_8
REMARK    7  A    between atoms: C_6  and  C_7
REMARK    8  A    between atoms: C_8  and  O_9
REMARK    9  A    between atoms: O_9  and  C_10
REMARK   10  A    between atoms: C_10  and  C_12
REMARK   11  A    between atoms: C_13  and  C_14
REMARK   12  A    between atoms: C_17  and  O_18
REMARK   13  A    between atoms: O_18  and  C_19
REMARK                            x       y       z     vdW  Elec       q    Type
REMARK                         _______ _______ _______ _____ _____    ______ ____
ROOT
ATOM      1  C   UNL     1       7.694   7.253  17.810  0.00  0.00    +0.000 C 
ATOM      2  O   UNL     1       7.918   6.435  18.683  0.00  0.00    +0.000 OA
ENDROOT
BRANCH   1   3
ATOM      3  C   UNL     1       8.053   8.686  17.879  0.00  0.00    +0.000 C 
ATOM      4  C   UNL     1       8.831   9.138  18.870  0.00  0.00    +0.000 C 
BRANCH   4   5
ATOM      5  C   UNL     1       9.267  10.531  19.008  0.00  0.00    +0.000 A 
ATOM      6  C   UNL     1       9.473  11.292  17.852  0.00  0.00    +0.000 A 
ATOM      7  C   UNL     1       9.907  12.618  17.937  0.00  0.00    +0.000 A 
ATOM      8  C   UNL     1      10.112  13.218  19.181  0.00  0.00    +0.000 A 
ATOM      9  C   UNL     1       9.889  12.477  20.339  0.00  0.00    +0.000 A 
ATOM     10  C   UNL     1       9.459  11.149  20.253  0.00  0.00    +0.000 A 
BRANCH   8  11
ATOM     11  O   UNL     1      10.568  14.506  19.140  0.00  0.00    +0.000 OA
ATOM     12  C   UNL     1      10.127  15.282  18.032  0.00  0.00    +0.000 C 
ENDBRANCH   8  11
ENDBRANCH   4   5
ENDBRANCH   1   3
BRANCH   1  13
ATOM     13  O   UNL     1       7.148   7.010  16.590  0.00  0.00    +0.000 OA
BRANCH  13  14
ATOM     14  C   UNL     1       5.751   6.671  16.596  0.00  0.00    +0.000 C 
BRANCH  14  15
ATOM     15  C   UNL     1       5.409   5.400  15.797  0.00  0.00    +0.000 C 
BRANCH  15  16
ATOM     16  C   UNL     1       4.553   4.446  16.662  0.00  0.00    +0.000 C 
ATOM     17  C   UNL     1       3.576   5.124  17.614  0.00  0.00    +0.000 C 
ENDBRANCH  15  16
BRANCH  15  18
ATOM     18  C   UNL     1       6.677   4.748  15.197  0.00  0.00    +0.000 C 
BRANCH  18  19
ATOM     19  C   UNL     1       6.677   4.756  13.663  0.00  0.00    +0.000 C 
BRANCH  19  21
ATOM     20  C   UNL     1       5.142   3.539  12.098  0.00  0.00    +0.000 C 
ATOM     21  C   UNL     1       6.310   3.398  13.066  0.00  0.00    +0.000 C 
ENDBRANCH  19  21
ENDBRANCH  18  19
ENDBRANCH  15  18
ENDBRANCH  14  15
ENDBRANCH  13  14
ENDBRANCH   1  13
TORSDOF 10
ENDMDL
MODEL 6
REMARK VINA RESULT:      -6.5      6.366      9.045
REMARK  Name = 
REMARK  13 active torsions:
REMARK  status: ('A' for Active; 'I' for Inactive)
REMARK    1  A    between atoms: C_1  and  C_2
REMARK    2  A    between atoms: C_2  and  C_3
REMARK    3  A    between atoms: C_3  and  C_4
REMARK    4  A    between atoms: C_4  and  C_5
REMARK    5  A    between atoms: C_5  and  C_6
REMARK    6  A    between atoms: C_5  and  C_8
REMARK    7  A    between atoms: C_6  and  C_7
REMARK    8  A    between atoms: C_8  and  O_9
REMARK    9  A    between atoms: O_9  and  C_10
REMARK   10  A    between atoms: C_10  and  C_12
REMARK   11  A    between atoms: C_13  and  C_14
REMARK   12  A    between atoms: C_17  and  O_18
REMARK   13  A    between atoms: O_18  and  C_19
REMARK                            x       y       z     vdW  Elec       q    Type
REMARK                         _______ _______ _______ _____ _____    ______ ____
ROOT
ATOM      1  C   UNL     1       7.793   7.527  17.992  0.00  0.00    +0.000 C 
ATOM      2  O   UNL     1       8.148   6.738  18.848  0.00  0.00    +0.000 OA
ENDROOT
BRANCH   1   3
ATOM      3  C   UNL     1       8.259   8.927  17.885  0.00  0.00    +0.000 C 
ATOM      4  C   UNL     1       8.909   9.501  18.904  0.00  0.00    +0.000 C 
BRANCH   4   5
ATOM      5  C   UNL     1       9.436  10.869  18.884  0.00  0.00    +0.000 A 
ATOM      6  C   UNL     1       8.928  11.774  17.943  0.00  0.00    +0.000 A 
ATOM      7  C   UNL     1       9.416  13.082  17.876  0.00  0.00    +0.000 A 
ATOM      8  C   UNL     1      10.397  13.520  18.768  0.00  0.00    +0.000 A 
ATOM      9  C   UNL     1      10.894  12.634  19.721  0.00  0.00    +0.000 A 
ATOM     10  C   UNL     1      10.409  11.324  19.786  0.00  0.00    +0.000 A 
BRANCH   8  11
ATOM     11  O   UNL     1      10.819  14.806  18.584  0.00  0.00    +0.000 OA
ATOM     12  C   UNL     1      11.164  15.159  17.250  0.00  0.00    +0.000 C 
ENDBRANCH   8  11
ENDBRANCH   4   5
ENDBRANCH   1   3
BRANCH   1  13
ATOM     13  O   UNL     1       6.973   7.271  16.940  0.00  0.00    +0.000 OA
BRANCH  13  14
ATOM     14  C   UNL     1       6.992   5.916  16.460  0.00  0.00    +0.000 C 
BRANCH  14  15
ATOM     15  C   UNL     1       5.736   5.102  16.824  0.00  0.00    +0.000 C 
BRANCH  15  16
ATOM     16  C   UNL     1       5.595   3.893  15.870  0.00  0.00    +0.000 C 
ATOM     17  C   UNL     1       5.511   4.234  14.388  0.00  0.00    +0.000 C 
ENDBRANCH  15  16
BRANCH  15  18
ATOM     18  C   UNL     1       4.479   6.002  16.901  0.00  0.00    +0.000 C 
BRANCH  18  19
ATOM     19  C   UNL     1       3.894   6.079  18.316  0.00  0.00    +0.000 C 
BRANCH  19  21
ATOM     20  C   UNL     1       2.045   4.494  17.722  0.00  0.00    +0.000 C 
ATOM     21  C   UNL     1       3.154   4.804  18.719  0.00  0.00    +0.000 C 
ENDBRANCH  19  21
ENDBRANCH  18  19
ENDBRANCH  15  18
ENDBRANCH  14  15
ENDBRANCH  13  14
ENDBRANCH   1  13
TORSDOF 10
ENDMDL
MODEL 7
REMARK VINA RESULT:      -6.5      2.637      7.527
REMARK  Name = 
REMARK  13 active torsions:
REMARK  status: ('A' for Active; 'I' for Inactive)
REMARK    1  A    between atoms: C_1  and  C_2
REMARK    2  A    between atoms: C_2  and  C_3
REMARK    3  A    between atoms: C_3  and  C_4
REMARK    4  A    between atoms: C_4  and  C_5
REMARK    5  A    between atoms: C_5  and  C_6
REMARK    6  A    between atoms: C_5  and  C_8
REMARK    7  A    between atoms: C_6  and  C_7
REMARK    8  A    between atoms: C_8  and  O_9
REMARK    9  A    between atoms: O_9  and  C_10
REMARK   10  A    between atoms: C_10  and  C_12
REMARK   11  A    between atoms: C_13  and  C_14
REMARK   12  A    between atoms: C_17  and  O_18
REMARK   13  A    between atoms: O_18  and  C_19
REMARK                            x       y       z     vdW  Elec       q    Type
REMARK                         _______ _______ _______ _____ _____    ______ ____
ROOT
ATOM      1  C   UNL     1       5.844   5.257  19.302  0.00  0.00    +0.000 C 
ATOM      2  O   UNL     1       6.901   5.361  19.897  0.00  0.00    +0.000 OA
ENDROOT
BRANCH   1   3
ATOM      3  C   UNL     1       5.702   4.817  17.898  0.00  0.00    +0.000 C 
ATOM      4  C   UNL     1       6.602   5.190  16.980  0.00  0.00    +0.000 C 
BRANCH   4   5
ATOM      5  C   UNL     1       6.565   4.782  15.572  0.00  0.00    +0.000 A 
ATOM      6  C   UNL     1       5.543   3.925  15.144  0.00  0.00    +0.000 A 
ATOM      7  C   UNL     1       5.482   3.496  13.815  0.00  0.00    +0.000 A 
ATOM      8  C   UNL     1       6.421   3.940  12.883  0.00  0.00    +0.000 A 
ATOM      9  C   UNL     1       7.430   4.808  13.293  0.00  0.00    +0.000 A 
ATOM     10  C   UNL     1       7.494   5.235  14.624  0.00  0.00    +0.000 A 
BRANCH   8  11
ATOM     11  O   UNL     1       6.281   3.427  11.624  0.00  0.00    +0.000 OA
ATOM     12  C   UNL     1       6.976   2.211  11.371  0.00  0.00    +0.000 C 
ENDBRANCH   8  11
ENDBRANCH   4   5
ENDBRANCH   1   3
BRANCH   1  13
ATOM     13  O   UNL     1       4.600   5.446  19.816  0.00  0.00    +0.000 OA
BRANCH  13  14
ATOM     14  C   UNL     1       3.569   5.713  18.850  0.00  0.00    +0.000 C 
BRANCH  14  15
ATOM     15  C   UNL     1       2.153   5.328  19.319  0.00  0.00    +0.000 C 
BRANCH  15  16
ATOM     16  C   UNL     1       2.202   4.807  20.774  0.00  0.00    +0.000 C 
ATOM     17  C   UNL     1       1.432   3.519  21.035  0.00  0.00    +0.000 C 
ENDBRANCH  15  16
BRANCH  15  18
ATOM     18  C   UNL     1       1.466   4.365  18.321  0.00  0.00    +0.000 C 
BRANCH  18  19
ATOM     19  C   UNL     1       2.466   3.669  17.390  0.00  0.00    +0.000 C 
BRANCH  19  21
ATOM     20  C   UNL     1       3.709   1.815  18.532  0.00  0.00    +0.000 C 
ATOM     21  C   UNL     1       2.536   2.160  17.623  0.00  0.00    +0.000 C 
ENDBRANCH  19  21
ENDBRANCH  18  19
ENDBRANCH  15  18
ENDBRANCH  14  15
ENDBRANCH  13  14
ENDBRANCH   1  13
TORSDOF 10
ENDMDL
MODEL 8
REMARK VINA RESULT:      -6.5      3.961      6.957
REMARK  Name = 
REMARK  13 active torsions:
REMARK  status: ('A' for Active; 'I' for Inactive)
REMARK    1  A    between atoms: C_1  and  C_2
REMARK    2  A    between atoms: C_2  and  C_3
REMARK    3  A    between atoms: C_3  and  C_4
REMARK    4  A    between atoms: C_4  and  C_5
REMARK    5  A    between atoms: C_5  and  C_6
REMARK    6  A    between atoms: C_5  and  C_8
REMARK    7  A    between atoms: C_6  and  C_7
REMARK    8  A    between atoms: C_8  and  O_9
REMARK    9  A    between atoms: O_9  and  C_10
REMARK   10  A    between atoms: C_10  and  C_12
REMARK   11  A    between atoms: C_13  and  C_14
REMARK   12  A    between atoms: C_17  and  O_18
REMARK   13  A    between atoms: O_18  and  C_19
REMARK                            x       y       z     vdW  Elec       q    Type
REMARK                         _______ _______ _______ _____ _____    ______ ____
ROOT
ATOM      1  C   UNL     1       2.412   3.671  20.814  0.00  0.00    +0.000 C 
ATOM      2  O   UNL     1       2.459   3.174  21.924  0.00  0.00    +0.000 OA
ENDROOT
BRANCH   1   3
ATOM      3  C   UNL     1       1.773   4.966  20.493  0.00  0.00    +0.000 C 
ATOM      4  C   UNL     1       2.524   6.049  20.261  0.00  0.00    +0.000 C 
BRANCH   4   5
ATOM      5  C   UNL     1       1.988   7.366  19.907  0.00  0.00    +0.000 A 
ATOM      6  C   UNL     1       2.087   7.800  18.579  0.00  0.00    +0.000 A 
ATOM      7  C   UNL     1       1.607   9.058  18.201  0.00  0.00    +0.000 A 
ATOM      8  C   UNL     1       0.990   9.891  19.136  0.00  0.00    +0.000 A 
ATOM      9  C   UNL     1       0.867   9.461  20.455  0.00  0.00    +0.000 A 
ATOM     10  C   UNL     1       1.351   8.204  20.834  0.00  0.00    +0.000 A 
BRANCH   8  11
ATOM     11  O   UNL     1       0.591  11.108  18.659  0.00  0.00    +0.000 OA
ATOM     12  C   UNL     1      -0.795  11.231  18.363  0.00  0.00    +0.000 C 
ENDBRANCH   8  11
ENDBRANCH   4   5
ENDBRANCH   1   3
BRANCH   1  13
ATOM     13  O   UNL     1       2.987   3.188  19.681  0.00  0.00    +0.000 OA
BRANCH  13  14
ATOM     14  C   UNL     1       4.421   3.091  19.712  0.00  0.00    +0.000 C 
BRANCH  14  15
ATOM     15  C   UNL     1       5.132   3.957  18.655  0.00  0.00    +0.000 C 
BRANCH  15  16
ATOM     16  C   UNL     1       5.684   5.244  19.311  0.00  0.00    +0.000 C 
ATOM     17  C   UNL     1       7.188   5.448  19.191  0.00  0.00    +0.000 C 
ENDBRANCH  15  16
BRANCH  15  18
ATOM     18  C   UNL     1       4.229   4.207  17.424  0.00  0.00    +0.000 C 
BRANCH  18  19
ATOM     19  C   UNL     1       4.754   5.333  16.525  0.00  0.00    +0.000 C 
BRANCH  19  21
ATOM     20  C   UNL     1       6.942   4.679  15.489  0.00  0.00    +0.000 C 
ATOM     21  C   UNL     1       5.441   4.808  15.263  0.00  0.00    +0.000 C 
ENDBRANCH  19  21
ENDBRANCH  18  19
ENDBRANCH  15  18
ENDBRANCH  14  15
ENDBRANCH  13  14
ENDBRANCH   1  13
TORSDOF 10
ENDMDL
MODEL 9
REMARK VINA RESULT:      -6.5      4.705      7.295
REMARK  Name = 
REMARK  13 active torsions:
REMARK  status: ('A' for Active; 'I' for Inactive)
REMARK    1  A    between atoms: C_1  and  C_2
REMARK    2  A    between atoms: C_2  and  C_3
REMARK    3  A    between atoms: C_3  and  C_4
REMARK    4  A    between atoms: C_4  and  C_5
REMARK    5  A    between atoms: C_5  and  C_6
REMARK    6  A    between atoms: C_5  and  C_8
REMARK    7  A    between atoms: C_6  and  C_7
REMARK    8  A    between atoms: C_8  and  O_9
REMARK    9  A    between atoms: O_9  and  C_10
REMARK   10  A    between atoms: C_10  and  C_12
REMARK   11  A    between atoms: C_13  and  C_14
REMARK   12  A    between atoms: C_17  and  O_18
REMARK   13  A    between atoms: O_18  and  C_19
REMARK                            x       y       z     vdW  Elec       q    Type
REMARK                         _______ _______ _______ _____ _____    ______ ____
ROOT
ATOM      1  C   UNL     1       4.506   6.230  17.393  0.00  0.00    +0.000 C 
ATOM      2  O   UNL     1       4.781   5.946  16.242  0.00  0.00    +0.000 OA
ENDROOT
BRANCH   1   3
ATOM      3  C   UNL     1       3.565   7.296  17.802  0.00  0.00    +0.000 C 
ATOM      4  C   UNL     1       2.802   7.141  18.890  0.00  0.00    +0.000 C 
BRANCH   4   5
ATOM      5  C   UNL     1       1.864   8.149  19.392  0.00  0.00    +0.000 A 
ATOM      6  C   UNL     1       1.420   8.058  20.717  0.00  0.00    +0.000 A 
ATOM      7  C   UNL     1       0.510   8.986  21.231  0.00  0.00    +0.000 A 
ATOM      8  C   UNL     1       0.051  10.042  20.440  0.00  0.00    +0.000 A 
ATOM      9  C   UNL     1       0.502  10.154  19.127  0.00  0.00    +0.000 A 
ATOM     10  C   UNL     1       1.410   9.223  18.612  0.00  0.00    +0.000 A 
BRANCH   8  11
ATOM     11  O   UNL     1      -0.860  10.865  21.039  0.00  0.00    +0.000 OA
ATOM     12  C   UNL     1      -0.803  10.921  22.459  0.00  0.00    +0.000 C 
ENDBRANCH   8  11
ENDBRANCH   4   5
ENDBRANCH   1   3
BRANCH   1  13
ATOM     13  O   UNL     1       4.937   5.593  18.513  0.00  0.00    +0.000 OA
BRANCH  13  14
ATOM     14  C   UNL     1       5.352   4.229  18.325  0.00  0.00    +0.000 C 
BRANCH  14  15
ATOM     15  C   UNL     1       4.387   3.189  18.927  0.00  0.00    +0.000 C 
BRANCH  15  16
ATOM     16  C   UNL     1       3.594   2.489  17.799  0.00  0.00    +0.000 C 
ATOM     17  C   UNL     1       2.441   3.292  17.212  0.00  0.00    +0.000 C 
ENDBRANCH  15  16
BRANCH  15  18
ATOM     18  C   UNL     1       3.503   3.810  20.035  0.00  0.00    +0.000 C 
BRANCH  18  19
ATOM     19  C   UNL     1       2.845   2.750  20.927  0.00  0.00    +0.000 C 
BRANCH  19  21
ATOM     20  C   UNL     1       0.891   4.213  20.355  0.00  0.00    +0.000 C 
ATOM     21  C   UNL     1       1.375   3.053  21.216  0.00  0.00    +0.000 C 
ENDBRANCH  19  21
ENDBRANCH  18  19
ENDBRANCH  15  18
ENDBRANCH  14  15
ENDBRANCH  13  14
ENDBRANCH   1  13
TORSDOF 10
ENDMDL
