MODEL 1
REMARK VINA RESULT:      -8.3      0.000      0.000
REMARK  Name = 
REMARK  8 active torsions:
REMARK  status: ('A' for Active; 'I' for Inactive)
REMARK    1  A    between atoms: C_1  and  C_2
REMARK    2  A    between atoms: C_2  and  C_3
REMARK    3  A    between atoms: C_3  and  C_4
REMARK    4  A    between atoms: C_4  and  N_5
REMARK    5  A    between atoms: N_5  and  C_6
REMARK    6  A    between atoms: C_9  and  C_10
REMARK    7  A    between atoms: C_12  and  C_13
REMARK    8  A    between atoms: C_22  and  N_23
REMARK                            x       y       z     vdW  Elec       q    Type
REMARK                         _______ _______ _______ _____ _____    ______ ____
ROOT
ATOM      1  C   UNL     1       5.208   4.925  17.025  0.00  0.00    +0.000 A 
ATOM      2  C   UNL     1       5.120   6.220  16.495  0.00  0.00    +0.000 A 
ATOM      3  C   UNL     1       4.221   7.168  17.003  0.00  0.00    +0.000 A 
ATOM      4  C   UNL     1       3.342   6.847  18.044  0.00  0.00    +0.000 A 
ATOM      5  C   UNL     1       3.367   5.549  18.558  0.00  0.00    +0.000 A 
ATOM      6  C   UNL     1       4.280   4.612  18.037  0.00  0.00    +0.000 A 
ENDROOT
BRANCH   4   7
ATOM      7  C   UNL     1       2.409   7.823  18.588  0.00  0.00    +0.000 A 
ATOM      8  N   UNL     1       2.003   7.996  19.825  0.00  0.00    +0.000 NA
ATOM      9  C   UNL     1       1.132   9.060  19.707  0.00  0.00    +0.000 A 
ATOM     10  N   UNL     1       1.009   9.527  18.453  0.00  0.00    +0.000 NA
ATOM     11  O   UNL     1       1.855   8.708  17.713  0.00  0.00    +0.000 OA
BRANCH   9  12
ATOM     12  C   UNL     1       0.416   9.609  20.851  0.00  0.00    +0.000 A 
ATOM     13  C   UNL     1      -0.357  10.772  20.710  0.00  0.00    +0.000 A 
ATOM     14  C   UNL     1      -1.040  11.307  21.803  0.00  0.00    +0.000 A 
ATOM     15  C   UNL     1      -0.957  10.688  23.048  0.00  0.00    +0.000 A 
ATOM     16  C   UNL     1      -0.193   9.531  23.201  0.00  0.00    +0.000 A 
ATOM     17  C   UNL     1       0.489   8.993  22.110  0.00  0.00    +0.000 A 
ENDBRANCH   9  12
ENDBRANCH   4   7
BRANCH   6  18
ATOM     18  N   UNL     1       4.255   3.282  18.623  0.00  0.00    +0.000 N 
ATOM     19  O   UNL     1       3.499   2.449  18.101  0.00  0.00    +0.000 OA
ATOM     20  O   UNL     1       5.002   3.072  19.588  0.00  0.00    +0.000 OA
ENDBRANCH   6  18
BRANCH   1  21
ATOM     21  N   UNL     1       6.059   3.965  16.455  0.00  0.00    +0.000 N 
ATOM     22  H   UNL     1       6.809   3.684  17.097  0.00  0.00    +0.000 HD
BRANCH  21  23
ATOM     23  C   UNL     1       6.585   4.191  15.109  0.00  0.00    +0.000 C 
BRANCH  23  24
ATOM     24  C   UNL     1       5.521   3.854  14.065  0.00  0.00    +0.000 C 
BRANCH  24  26
ATOM     25  C   UNL     1       5.074   3.187  11.676  0.00  0.00    +0.000 C 
ATOM     26  C   UNL     1       6.140   3.513  12.706  0.00  0.00    +0.000 C 
ENDBRANCH  24  26
ENDBRANCH  23  24
ENDBRANCH  21  23
ENDBRANCH   1  21
TORSDOF 7
ENDMDL
MODEL 2
REMARK VINA RESULT:      -8.0      0.784      1.283
REMARK  Name = 
REMARK  8 active torsions:
REMARK  status: ('A' for Active; 'I' for Inactive)
REMARK    1  A    between atoms: C_1  and  C_2
REMARK    2  A    between atoms: C_2  and  C_3
REMARK    3  A    between atoms: C_3  and  C_4
REMARK    4  A    between atoms: C_4  and  N_5
REMARK    5  A    between atoms: N_5  and  C_6
REMARK    6  A    between atoms: C_9  and  C_10
REMARK    7  A    between atoms: C_12  and  C_13
REMARK    8  A    between atoms: C_22  and  N_23
REMARK                            x       y       z     vdW  Elec       q    Type
REMARK                         _______ _______ _______ _____ _____    ______ ____
ROOT
ATOM      1  C   UNL     1       4.690   4.864  17.097  0.00  0.00    +0.000 A 
ATOM      2  C   UNL     1       5.009   6.215  16.903  0.00  0.00    +0.000 A 
ATOM      3  C   UNL     1       4.204   7.246  17.407  0.00  0.00    +0.000 A 
ATOM      4  C   UNL     1       3.020   6.968  18.099  0.00  0.00    +0.000 A 
ATOM      5  C   UNL     1       2.646   5.632  18.263  0.00  0.00    +0.000 A 
ATOM      6  C   UNL     1       3.469   4.611  17.752  0.00  0.00    +0.000 A 
ENDROOT
BRANCH   4   7
ATOM      7  C   UNL     1       2.179   8.027  18.637  0.00  0.00    +0.000 A 
ATOM      8  N   UNL     1       1.709   8.189  19.852  0.00  0.00    +0.000 NA
ATOM      9  C   UNL     1       0.988   9.360  19.740  0.00  0.00    +0.000 A 
ATOM     10  N   UNL     1       1.014   9.900  18.509  0.00  0.00    +0.000 NA
ATOM     11  O   UNL     1       1.803   9.017  17.780  0.00  0.00    +0.000 OA
BRANCH   9  12
ATOM     12  C   UNL     1       0.265   9.939  20.864  0.00  0.00    +0.000 A 
ATOM     13  C   UNL     1       0.093   9.207  22.048  0.00  0.00    +0.000 A 
ATOM     14  C   UNL     1      -0.604   9.752  23.127  0.00  0.00    +0.000 A 
ATOM     15  C   UNL     1      -1.141  11.035  23.032  0.00  0.00    +0.000 A 
ATOM     16  C   UNL     1      -0.977  11.774  21.861  0.00  0.00    +0.000 A 
ATOM     17  C   UNL     1      -0.278  11.231  20.783  0.00  0.00    +0.000 A 
ENDBRANCH   9  12
ENDBRANCH   4   7
BRANCH   6  18
ATOM     18  N   UNL     1       3.021   3.245  17.964  0.00  0.00    +0.000 N 
ATOM     19  O   UNL     1       1.954   2.910  17.427  0.00  0.00    +0.000 OA
ATOM     20  O   UNL     1       3.743   2.509  18.650  0.00  0.00    +0.000 OA
ENDBRANCH   6  18
BRANCH   1  21
ATOM     21  N   UNL     1       5.464   3.846  16.520  0.00  0.00    +0.000 N 
ATOM     22  H   UNL     1       5.804   3.175  17.220  0.00  0.00    +0.000 HD
BRANCH  21  23
ATOM     23  C   UNL     1       6.531   4.207  15.586  0.00  0.00    +0.000 C 
BRANCH  23  24
ATOM     24  C   UNL     1       6.127   3.840  14.159  0.00  0.00    +0.000 C 
BRANCH  24  26
ATOM     25  C   UNL     1       6.928   3.819  11.769  0.00  0.00    +0.000 C 
ATOM     26  C   UNL     1       7.030   4.508  13.118  0.00  0.00    +0.000 C 
ENDBRANCH  24  26
ENDBRANCH  23  24
ENDBRANCH  21  23
ENDBRANCH   1  21
TORSDOF 7
ENDMDL
MODEL 3
REMARK VINA RESULT:      -7.8      1.557      1.952
REMARK  Name = 
REMARK  8 active torsions:
REMARK  status: ('A' for Active; 'I' for Inactive)
REMARK    1  A    between atoms: C_1  and  C_2
REMARK    2  A    between atoms: C_2  and  C_3
REMARK    3  A    between atoms: C_3  and  C_4
REMARK    4  A    between atoms: C_4  and  N_5
REMARK    5  A    between atoms: N_5  and  C_6
REMARK    6  A    between atoms: C_9  and  C_10
REMARK    7  A    between atoms: C_12  and  C_13
REMARK    8  A    between atoms: C_22  and  N_23
REMARK                            x       y       z     vdW  Elec       q    Type
REMARK                         _______ _______ _______ _____ _____    ______ ____
ROOT
ATOM      1  C   UNL     1       5.045   4.681  17.063  0.00  0.00    +0.000 A 
ATOM      2  C   UNL     1       3.676   4.441  17.244  0.00  0.00    +0.000 A 
ATOM      3  C   UNL     1       2.812   5.424  17.745  0.00  0.00    +0.000 A 
ATOM      4  C   UNL     1       3.290   6.684  18.122  0.00  0.00    +0.000 A 
ATOM      5  C   UNL     1       4.658   6.937  18.004  0.00  0.00    +0.000 A 
ATOM      6  C   UNL     1       5.510   5.938  17.496  0.00  0.00    +0.000 A 
ENDROOT
BRANCH   4   7
ATOM      7  C   UNL     1       2.404   7.719  18.634  0.00  0.00    +0.000 A 
ATOM      8  N   UNL     1       1.953   7.910  19.852  0.00  0.00    +0.000 NA
ATOM      9  C   UNL     1       1.166   9.034  19.708  0.00  0.00    +0.000 A 
ATOM     10  N   UNL     1       1.135   9.519  18.454  0.00  0.00    +0.000 NA
ATOM     11  O   UNL     1       1.955   8.649  17.745  0.00  0.00    +0.000 OA
BRANCH   9  12
ATOM     12  C   UNL     1       0.438   9.622  20.823  0.00  0.00    +0.000 A 
ATOM     13  C   UNL     1      -0.281  10.815  20.649  0.00  0.00    +0.000 A 
ATOM     14  C   UNL     1      -0.976  11.388  21.715  0.00  0.00    +0.000 A 
ATOM     15  C   UNL     1      -0.958  10.777  22.967  0.00  0.00    +0.000 A 
ATOM     16  C   UNL     1      -0.249   9.591  23.153  0.00  0.00    +0.000 A 
ATOM     17  C   UNL     1       0.445   9.015  22.088  0.00  0.00    +0.000 A 
ENDBRANCH   9  12
ENDBRANCH   4   7
BRANCH   6  18
ATOM     18  N   UNL     1       6.921   6.272  17.396  0.00  0.00    +0.000 N 
ATOM     19  O   UNL     1       7.234   7.168  16.598  0.00  0.00    +0.000 OA
ATOM     20  O   UNL     1       7.705   5.652  18.127  0.00  0.00    +0.000 OA
ENDBRANCH   6  18
BRANCH   1  21
ATOM     21  N   UNL     1       5.910   3.661  16.634  0.00  0.00    +0.000 N 
ATOM     22  H   UNL     1       6.580   3.391  17.364  0.00  0.00    +0.000 HD
BRANCH  21  23
ATOM     23  C   UNL     1       6.578   3.794  15.339  0.00  0.00    +0.000 C 
BRANCH  23  24
ATOM     24  C   UNL     1       5.660   4.502  14.344  0.00  0.00    +0.000 C 
BRANCH  24  26
ATOM     25  C   UNL     1       6.472   3.503  12.177  0.00  0.00    +0.000 C 
ATOM     26  C   UNL     1       5.312   3.608  13.150  0.00  0.00    +0.000 C 
ENDBRANCH  24  26
ENDBRANCH  23  24
ENDBRANCH  21  23
ENDBRANCH   1  21
TORSDOF 7
ENDMDL
MODEL 4
REMARK VINA RESULT:      -7.8      1.867      2.214
REMARK  Name = 
REMARK  8 active torsions:
REMARK  status: ('A' for Active; 'I' for Inactive)
REMARK    1  A    between atoms: C_1  and  C_2
REMARK    2  A    between atoms: C_2  and  C_3
REMARK    3  A    between atoms: C_3  and  C_4
REMARK    4  A    between atoms: C_4  and  N_5
REMARK    5  A    between atoms: N_5  and  C_6
REMARK    6  A    between atoms: C_9  and  C_10
REMARK    7  A    between atoms: C_12  and  C_13
REMARK    8  A    between atoms: C_22  and  N_23
REMARK                            x       y       z     vdW  Elec       q    Type
REMARK                         _______ _______ _______ _____ _____    ______ ____
ROOT
ATOM      1  C   UNL     1       5.018   4.644  16.917  0.00  0.00    +0.000 A 
ATOM      2  C   UNL     1       5.238   5.996  16.617  0.00  0.00    +0.000 A 
ATOM      3  C   UNL     1       4.420   7.011  17.131  0.00  0.00    +0.000 A 
ATOM      4  C   UNL     1       3.320   6.714  17.942  0.00  0.00    +0.000 A 
ATOM      5  C   UNL     1       3.041   5.373  18.216  0.00  0.00    +0.000 A 
ATOM      6  C   UNL     1       3.876   4.367  17.693  0.00  0.00    +0.000 A 
ENDROOT
BRANCH   4   7
ATOM      7  C   UNL     1       2.467   7.757  18.492  0.00  0.00    +0.000 A 
ATOM      8  N   UNL     1       1.977   8.830  17.915  0.00  0.00    +0.000 NA
ATOM      9  C   UNL     1       1.259   9.417  18.937  0.00  0.00    +0.000 A 
ATOM     10  N   UNL     1       1.301   8.735  20.094  0.00  0.00    +0.000 NA
ATOM     11  O   UNL     1       2.100   7.636  19.799  0.00  0.00    +0.000 OA
BRANCH   9  12
ATOM     12  C   UNL     1       0.534  10.668  18.760  0.00  0.00    +0.000 A 
ATOM     13  C   UNL     1      -0.799  10.657  18.321  0.00  0.00    +0.000 A 
ATOM     14  C   UNL     1      -1.497  11.852  18.142  0.00  0.00    +0.000 A 
ATOM     15  C   UNL     1      -0.872  13.070  18.397  0.00  0.00    +0.000 A 
ATOM     16  C   UNL     1       0.452  13.095  18.835  0.00  0.00    +0.000 A 
ATOM     17  C   UNL     1       1.152  11.902  19.016  0.00  0.00    +0.000 A 
ENDBRANCH   9  12
ENDBRANCH   4   7
BRANCH   6  18
ATOM     18  N   UNL     1       3.529   2.994  18.023  0.00  0.00    +0.000 N 
ATOM     19  O   UNL     1       2.691   2.434  17.301  0.00  0.00    +0.000 OA
ATOM     20  O   UNL     1       4.107   2.479  18.989  0.00  0.00    +0.000 OA
ENDBRANCH   6  18
BRANCH   1  21
ATOM     21  N   UNL     1       5.798   3.635  16.332  0.00  0.00    +0.000 N 
ATOM     22  H   UNL     1       6.452   3.214  17.003  0.00  0.00    +0.000 HD
BRANCH  21  23
ATOM     23  C   UNL     1       6.462   3.900  15.055  0.00  0.00    +0.000 C 
BRANCH  23  24
ATOM     24  C   UNL     1       5.426   4.028  13.940  0.00  0.00    +0.000 C 
BRANCH  24  26
ATOM     25  C   UNL     1       4.783   3.193  11.650  0.00  0.00    +0.000 C 
ATOM     26  C   UNL     1       5.925   3.427  12.622  0.00  0.00    +0.000 C 
ENDBRANCH  24  26
ENDBRANCH  23  24
ENDBRANCH  21  23
ENDBRANCH   1  21
TORSDOF 7
ENDMDL
MODEL 5
REMARK VINA RESULT:      -7.8      1.896      2.626
REMARK  Name = 
REMARK  8 active torsions:
REMARK  status: ('A' for Active; 'I' for Inactive)
REMARK    1  A    between atoms: C_1  and  C_2
REMARK    2  A    between atoms: C_2  and  C_3
REMARK    3  A    between atoms: C_3  and  C_4
REMARK    4  A    between atoms: C_4  and  N_5
REMARK    5  A    between atoms: N_5  and  C_6
REMARK    6  A    between atoms: C_9  and  C_10
REMARK    7  A    between atoms: C_12  and  C_13
REMARK    8  A    between atoms: C_22  and  N_23
REMARK                            x       y       z     vdW  Elec       q    Type
REMARK                         _______ _______ _______ _____ _____    ______ ____
ROOT
ATOM      1  C   UNL     1       5.292   4.069  16.419  0.00  0.00    +0.000 A 
ATOM      2  C   UNL     1       3.946   3.726  16.602  0.00  0.00    +0.000 A 
ATOM      3  C   UNL     1       3.126   4.406  17.514  0.00  0.00    +0.000 A 
ATOM      4  C   UNL     1       3.631   5.440  18.310  0.00  0.00    +0.000 A 
ATOM      5  C   UNL     1       4.982   5.771  18.189  0.00  0.00    +0.000 A 
ATOM      6  C   UNL     1       5.789   5.078  17.266  0.00  0.00    +0.000 A 
ENDROOT
BRANCH   4   7
ATOM      7  C   UNL     1       2.790   6.162  19.253  0.00  0.00    +0.000 A 
ATOM      8  N   UNL     1       2.427   7.424  19.258  0.00  0.00    +0.000 NA
ATOM      9  C   UNL     1       1.644   7.506  20.392  0.00  0.00    +0.000 A 
ATOM     10  N   UNL     1       1.527   6.344  21.057  0.00  0.00    +0.000 NA
ATOM     11  O   UNL     1       2.284   5.455  20.302  0.00  0.00    +0.000 OA
BRANCH   9  12
ATOM     12  C   UNL     1       1.018   8.750  20.816  0.00  0.00    +0.000 A 
ATOM     13  C   UNL     1       0.642   8.932  22.156  0.00  0.00    +0.000 A 
ATOM     14  C   UNL     1       0.035  10.119  22.568  0.00  0.00    +0.000 A 
ATOM     15  C   UNL     1      -0.205  11.136  21.646  0.00  0.00    +0.000 A 
ATOM     16  C   UNL     1       0.164  10.968  20.312  0.00  0.00    +0.000 A 
ATOM     17  C   UNL     1       0.773   9.783  19.898  0.00  0.00    +0.000 A 
ENDBRANCH   9  12
ENDBRANCH   4   7
BRANCH   6  18
ATOM     18  N   UNL     1       7.184   5.479  17.190  0.00  0.00    +0.000 N 
ATOM     19  O   UNL     1       8.031   4.653  17.561  0.00  0.00    +0.000 OA
ATOM     20  O   UNL     1       7.428   6.608  16.744  0.00  0.00    +0.000 OA
ENDBRANCH   6  18
BRANCH   1  21
ATOM     21  N   UNL     1       6.119   3.328  15.560  0.00  0.00    +0.000 N 
ATOM     22  H   UNL     1       6.931   2.934  16.050  0.00  0.00    +0.000 HD
BRANCH  21  23
ATOM     23  C   UNL     1       6.520   3.913  14.279  0.00  0.00    +0.000 C 
BRANCH  23  24
ATOM     24  C   UNL     1       5.330   3.947  13.321  0.00  0.00    +0.000 C 
BRANCH  24  26
ATOM     25  C   UNL     1       7.042   3.149  11.654  0.00  0.00    +0.000 C 
ATOM     26  C   UNL     1       5.582   3.108  12.064  0.00  0.00    +0.000 C 
ENDBRANCH  24  26
ENDBRANCH  23  24
ENDBRANCH  21  23
ENDBRANCH   1  21
TORSDOF 7
ENDMDL
MODEL 6
REMARK VINA RESULT:      -7.6      1.310      1.941
REMARK  Name = 
REMARK  8 active torsions:
REMARK  status: ('A' for Active; 'I' for Inactive)
REMARK    1  A    between atoms: C_1  and  C_2
REMARK    2  A    between atoms: C_2  and  C_3
REMARK    3  A    between atoms: C_3  and  C_4
REMARK    4  A    between atoms: C_4  and  N_5
REMARK    5  A    between atoms: N_5  and  C_6
REMARK    6  A    between atoms: C_9  and  C_10
REMARK    7  A    between atoms: C_12  and  C_13
REMARK    8  A    between atoms: C_22  and  N_23
REMARK                            x       y       z     vdW  Elec       q    Type
REMARK                         _______ _______ _______ _____ _____    ______ ____
ROOT
ATOM      1  C   UNL     1       5.200   4.968  17.178  0.00  0.00    +0.000 A 
ATOM      2  C   UNL     1       5.078   6.292  16.733  0.00  0.00    +0.000 A 
ATOM      3  C   UNL     1       4.161   7.184  17.306  0.00  0.00    +0.000 A 
ATOM      4  C   UNL     1       3.299   6.778  18.330  0.00  0.00    +0.000 A 
ATOM      5  C   UNL     1       3.358   5.450  18.760  0.00  0.00    +0.000 A 
ATOM      6  C   UNL     1       4.287   4.570  18.174  0.00  0.00    +0.000 A 
ENDROOT
BRANCH   4   7
ATOM      7  C   UNL     1       2.349   7.695  18.942  0.00  0.00    +0.000 A 
ATOM      8  N   UNL     1       1.663   8.676  18.403  0.00  0.00    +0.000 NA
ATOM      9  C   UNL     1       0.950   9.169  19.477  0.00  0.00    +0.000 A 
ATOM     10  N   UNL     1       1.184   8.519  20.630  0.00  0.00    +0.000 NA
ATOM     11  O   UNL     1       2.109   7.543  20.275  0.00  0.00    +0.000 OA
BRANCH   9  12
ATOM     12  C   UNL     1       0.039  10.298  19.353  0.00  0.00    +0.000 A 
ATOM     13  C   UNL     1      -0.102  11.213  20.407  0.00  0.00    +0.000 A 
ATOM     14  C   UNL     1      -0.979  12.293  20.298  0.00  0.00    +0.000 A 
ATOM     15  C   UNL     1      -1.726  12.470  19.135  0.00  0.00    +0.000 A 
ATOM     16  C   UNL     1      -1.594  11.569  18.079  0.00  0.00    +0.000 A 
ATOM     17  C   UNL     1      -0.717  10.489  18.185  0.00  0.00    +0.000 A 
ENDBRANCH   9  12
ENDBRANCH   4   7
BRANCH   6  18
ATOM     18  N   UNL     1       4.297   3.205  18.674  0.00  0.00    +0.000 N 
ATOM     19  O   UNL     1       3.583   2.381  18.083  0.00  0.00    +0.000 OA
ATOM     20  O   UNL     1       5.030   2.959  19.642  0.00  0.00    +0.000 OA
ENDBRANCH   6  18
BRANCH   1  21
ATOM     21  N   UNL     1       6.066   4.066  16.542  0.00  0.00    +0.000 N 
ATOM     22  H   UNL     1       6.828   3.761  17.160  0.00  0.00    +0.000 HD
BRANCH  21  23
ATOM     23  C   UNL     1       6.578   4.391  15.210  0.00  0.00    +0.000 C 
BRANCH  23  24
ATOM     24  C   UNL     1       5.571   3.965  14.142  0.00  0.00    +0.000 C 
BRANCH  24  26
ATOM     25  C   UNL     1       5.260   3.104  11.794  0.00  0.00    +0.000 C 
ATOM     26  C   UNL     1       6.252   3.639  12.809  0.00  0.00    +0.000 C 
ENDBRANCH  24  26
ENDBRANCH  23  24
ENDBRANCH  21  23
ENDBRANCH   1  21
TORSDOF 7
ENDMDL
MODEL 7
REMARK VINA RESULT:      -7.6      2.298      2.882
REMARK  Name = 
REMARK  8 active torsions:
REMARK  status: ('A' for Active; 'I' for Inactive)
REMARK    1  A    between atoms: C_1  and  C_2
REMARK    2  A    between atoms: C_2  and  C_3
REMARK    3  A    between atoms: C_3  and  C_4
REMARK    4  A    between atoms: C_4  and  N_5
REMARK    5  A    between atoms: N_5  and  C_6
REMARK    6  A    between atoms: C_9  and  C_10
REMARK    7  A    between atoms: C_12  and  C_13
REMARK    8  A    between atoms: C_22  and  N_23
REMARK                            x       y       z     vdW  Elec       q    Type
REMARK                         _______ _______ _______ _____ _____    ______ ____
ROOT
ATOM      1  C   UNL     1       5.079   4.636  16.956  0.00  0.00    +0.000 A 
ATOM      2  C   UNL     1       3.707   4.412  17.134  0.00  0.00    +0.000 A 
ATOM      3  C   UNL     1       2.859   5.395  17.665  0.00  0.00    +0.000 A 
ATOM      4  C   UNL     1       3.358   6.635  18.077  0.00  0.00    +0.000 A 
ATOM      5  C   UNL     1       4.730   6.869  17.964  0.00  0.00    +0.000 A 
ATOM      6  C   UNL     1       5.564   5.872  17.425  0.00  0.00    +0.000 A 
ENDROOT
BRANCH   4   7
ATOM      7  C   UNL     1       2.490   7.669  18.622  0.00  0.00    +0.000 A 
ATOM      8  N   UNL     1       1.971   8.722  18.036  0.00  0.00    +0.000 NA
ATOM      9  C   UNL     1       1.252   9.310  19.058  0.00  0.00    +0.000 A 
ATOM     10  N   UNL     1       1.323   8.645  20.224  0.00  0.00    +0.000 NA
ATOM     11  O   UNL     1       2.141   7.559  19.935  0.00  0.00    +0.000 OA
BRANCH   9  12
ATOM     12  C   UNL     1       0.499  10.542  18.871  0.00  0.00    +0.000 A 
ATOM     13  C   UNL     1      -0.897  10.505  18.741  0.00  0.00    +0.000 A 
ATOM     14  C   UNL     1      -1.625  11.681  18.555  0.00  0.00    +0.000 A 
ATOM     15  C   UNL     1      -0.965  12.907  18.494  0.00  0.00    +0.000 A 
ATOM     16  C   UNL     1       0.423  12.958  18.623  0.00  0.00    +0.000 A 
ATOM     17  C   UNL     1       1.152  11.783  18.811  0.00  0.00    +0.000 A 
ENDBRANCH   9  12
ENDBRANCH   4   7
BRANCH   6  18
ATOM     18  N   UNL     1       6.981   6.186  17.331  0.00  0.00    +0.000 N 
ATOM     19  O   UNL     1       7.756   5.513  18.027  0.00  0.00    +0.000 OA
ATOM     20  O   UNL     1       7.312   7.090  16.552  0.00  0.00    +0.000 OA
ENDBRANCH   6  18
BRANCH   1  21
ATOM     21  N   UNL     1       5.926   3.616  16.496  0.00  0.00    +0.000 N 
ATOM     22  H   UNL     1       6.596   3.316  17.214  0.00  0.00    +0.000 HD
BRANCH  21  23
ATOM     23  C   UNL     1       6.589   3.773  15.201  0.00  0.00    +0.000 C 
BRANCH  23  24
ATOM     24  C   UNL     1       5.556   4.061  14.112  0.00  0.00    +0.000 C 
BRANCH  24  26
ATOM     25  C   UNL     1       4.840   3.276  11.827  0.00  0.00    +0.000 C 
ATOM     26  C   UNL     1       6.018   3.566  12.739  0.00  0.00    +0.000 C 
ENDBRANCH  24  26
ENDBRANCH  23  24
ENDBRANCH  21  23
ENDBRANCH   1  21
TORSDOF 7
ENDMDL
MODEL 8
REMARK VINA RESULT:      -7.6      1.355      1.912
REMARK  Name = 
REMARK  8 active torsions:
REMARK  status: ('A' for Active; 'I' for Inactive)
REMARK    1  A    between atoms: C_1  and  C_2
REMARK    2  A    between atoms: C_2  and  C_3
REMARK    3  A    between atoms: C_3  and  C_4
REMARK    4  A    between atoms: C_4  and  N_5
REMARK    5  A    between atoms: N_5  and  C_6
REMARK    6  A    between atoms: C_9  and  C_10
REMARK    7  A    between atoms: C_12  and  C_13
REMARK    8  A    between atoms: C_22  and  N_23
REMARK                            x       y       z     vdW  Elec       q    Type
REMARK                         _______ _______ _______ _____ _____    ______ ____
ROOT
ATOM      1  C   UNL     1       4.618   5.053  16.858  0.00  0.00    +0.000 A 
ATOM      2  C   UNL     1       4.872   6.431  16.815  0.00  0.00    +0.000 A 
ATOM      3  C   UNL     1       4.075   7.353  17.508  0.00  0.00    +0.000 A 
ATOM      4  C   UNL     1       2.963   6.936  18.248  0.00  0.00    +0.000 A 
ATOM      5  C   UNL     1       2.651   5.574  18.268  0.00  0.00    +0.000 A 
ATOM      6  C   UNL     1       3.466   4.664  17.568  0.00  0.00    +0.000 A 
ENDROOT
BRANCH   4   7
ATOM      7  C   UNL     1       2.131   7.879  18.981  0.00  0.00    +0.000 A 
ATOM      8  N   UNL     1       1.535   8.972  18.564  0.00  0.00    +0.000 NA
ATOM      9  C   UNL     1       0.909   9.426  19.706  0.00  0.00    +0.000 A 
ATOM     10  N   UNL     1       1.108   8.645  20.783  0.00  0.00    +0.000 NA
ATOM     11  O   UNL     1       1.916   7.621  20.302  0.00  0.00    +0.000 OA
BRANCH   9  12
ATOM     12  C   UNL     1       0.116  10.647  19.726  0.00  0.00    +0.000 A 
ATOM     13  C   UNL     1       0.098  11.497  18.609  0.00  0.00    +0.000 A 
ATOM     14  C   UNL     1      -0.654  12.673  18.623  0.00  0.00    +0.000 A 
ATOM     15  C   UNL     1      -1.396  13.012  19.753  0.00  0.00    +0.000 A 
ATOM     16  C   UNL     1      -1.388  12.175  20.869  0.00  0.00    +0.000 A 
ATOM     17  C   UNL     1      -0.638  10.999  20.856  0.00  0.00    +0.000 A 
ENDBRANCH   9  12
ENDBRANCH   4   7
BRANCH   6  18
ATOM     18  N   UNL     1       3.086   3.262  17.637  0.00  0.00    +0.000 N 
ATOM     19  O   UNL     1       1.966   2.958  17.199  0.00  0.00    +0.000 OA
ATOM     20  O   UNL     1       3.913   2.471  18.110  0.00  0.00    +0.000 OA
ENDBRANCH   6  18
BRANCH   1  21
ATOM     21  N   UNL     1       5.378   4.151  16.097  0.00  0.00    +0.000 N 
ATOM     22  H   UNL     1       5.401   3.214  16.517  0.00  0.00    +0.000 HD
BRANCH  21  23
ATOM     23  C   UNL     1       6.712   4.550  15.646  0.00  0.00    +0.000 C 
BRANCH  23  24
ATOM     24  C   UNL     1       6.758   4.597  14.119  0.00  0.00    +0.000 C 
BRANCH  24  26
ATOM     25  C   UNL     1       5.957   3.271  12.132  0.00  0.00    +0.000 C 
ATOM     26  C   UNL     1       5.584   3.845  13.486  0.00  0.00    +0.000 C 
ENDBRANCH  24  26
ENDBRANCH  23  24
ENDBRANCH  21  23
ENDBRANCH   1  21
TORSDOF 7
ENDMDL
MODEL 9
REMARK VINA RESULT:      -7.6      2.717      3.857
REMARK  Name = 
REMARK  8 active torsions:
REMARK  status: ('A' for Active; 'I' for Inactive)
REMARK    1  A    between atoms: C_1  and  C_2
REMARK    2  A    between atoms: C_2  and  C_3
REMARK    3  A    between atoms: C_3  and  C_4
REMARK    4  A    between atoms: C_4  and  N_5
REMARK    5  A    between atoms: N_5  and  C_6
REMARK    6  A    between atoms: C_9  and  C_10
REMARK    7  A    between atoms: C_12  and  C_13
REMARK    8  A    between atoms: C_22  and  N_23
REMARK                            x       y       z     vdW  Elec       q    Type
REMARK                         _______ _______ _______ _____ _____    ______ ____
ROOT
ATOM      1  C   UNL     1       3.777   3.967  18.009  0.00  0.00    +0.000 A 
ATOM      2  C   UNL     1       2.414   4.238  17.829  0.00  0.00    +0.000 A 
ATOM      3  C   UNL     1       1.901   5.540  17.908  0.00  0.00    +0.000 A 
ATOM      4  C   UNL     1       2.729   6.628  18.208  0.00  0.00    +0.000 A 
ATOM      5  C   UNL     1       4.084   6.384  18.446  0.00  0.00    +0.000 A 
ATOM      6  C   UNL     1       4.580   5.070  18.359  0.00  0.00    +0.000 A 
ENDROOT
BRANCH   4   7
ATOM      7  C   UNL     1       2.213   7.987  18.284  0.00  0.00    +0.000 A 
ATOM      8  N   UNL     1       1.456   8.546  19.199  0.00  0.00    +0.000 NA
ATOM      9  C   UNL     1       1.306   9.831  18.718  0.00  0.00    +0.000 A 
ATOM     10  N   UNL     1       1.946  10.056  17.557  0.00  0.00    +0.000 NA
ATOM     11  O   UNL     1       2.547   8.835  17.271  0.00  0.00    +0.000 OA
BRANCH   9  12
ATOM     12  C   UNL     1       0.515  10.835  19.415  0.00  0.00    +0.000 A 
ATOM     13  C   UNL     1      -0.584  11.436  18.783  0.00  0.00    +0.000 A 
ATOM     14  C   UNL     1      -1.342  12.404  19.443  0.00  0.00    +0.000 A 
ATOM     15  C   UNL     1      -1.009  12.784  20.741  0.00  0.00    +0.000 A 
ATOM     16  C   UNL     1       0.081  12.195  21.382  0.00  0.00    +0.000 A 
ATOM     17  C   UNL     1       0.839  11.226  20.724  0.00  0.00    +0.000 A 
ENDBRANCH   9  12
ENDBRANCH   4   7
BRANCH   6  18
ATOM     18  N   UNL     1       6.001   4.892  18.613  0.00  0.00    +0.000 N 
ATOM     19  O   UNL     1       6.700   4.505  17.664  0.00  0.00    +0.000 OA
ATOM     20  O   UNL     1       6.413   5.155  19.750  0.00  0.00    +0.000 OA
ENDBRANCH   6  18
BRANCH   1  21
ATOM     21  N   UNL     1       4.262   2.650  18.004  0.00  0.00    +0.000 N 
ATOM     22  H   UNL     1       4.213   2.224  17.070  0.00  0.00    +0.000 HD
BRANCH  21  23
ATOM     23  C   UNL     1       3.791   1.715  19.026  0.00  0.00    +0.000 C 
BRANCH  23  24
ATOM     24  C   UNL     1       3.935   2.338  20.414  0.00  0.00    +0.000 C 
BRANCH  24  26
ATOM     25  C   UNL     1       2.232   3.897  21.425  0.00  0.00    +0.000 C 
ATOM     26  C   UNL     1       2.588   2.451  21.134  0.00  0.00    +0.000 C 
ENDBRANCH  24  26
ENDBRANCH  23  24
ENDBRANCH  21  23
ENDBRANCH   1  21
TORSDOF 7
ENDMDL
