MODEL 1
REMARK VINA RESULT:      -8.9      0.000      0.000
REMARK  Name = 
REMARK  5 active torsions:
REMARK  status: ('A' for Active; 'I' for Inactive)
REMARK    1  A    between atoms: C_2  and  C_21
REMARK    2  A    between atoms: N_3  and  C_4
REMARK    3  A    between atoms: C_9  and  C_10
REMARK    4  A    between atoms: C_11  and  C_12
REMARK    5  A    between atoms: C_15  and  N_16
REMARK                            x       y       z     vdW  Elec       q    Type
REMARK                         _______ _______ _______ _____ _____    ______ ____
ROOT
ATOM      1  C   UNL     1       5.024   4.352  16.623  0.00  0.00    +0.000 A 
ATOM      2  C   UNL     1       5.566   3.419  15.730  0.00  0.00    +0.000 A 
ATOM      3  C   UNL     1       6.251   3.820  14.591  0.00  0.00    +0.000 A 
ATOM      4  C   UNL     1       6.397   5.173  14.315  0.00  0.00    +0.000 A 
ATOM      5  C   UNL     1       5.837   6.126  15.174  0.00  0.00    +0.000 A 
ATOM      6  C   UNL     1       5.134   5.732  16.322  0.00  0.00    +0.000 A 
ENDROOT
BRANCH   1   9
ATOM      7  O   UNL     1       2.321   3.183  16.900  0.00  0.00    +0.000 OA
ATOM      8  C   UNL     1       3.058   3.430  17.854  0.00  0.00    +0.000 C 
ATOM      9  N   UNL     1       4.357   3.915  17.796  0.00  0.00    +0.000 N 
ATOM     10  H   UNL     1       4.926   3.828  18.631  0.00  0.00    +0.000 HD
BRANCH   8  11
ATOM     11  C   UNL     1       2.536   3.134  19.210  0.00  0.00    +0.000 A 
ATOM     12  C   UNL     1       1.171   3.332  19.462  0.00  0.00    +0.000 A 
ATOM     13  C   UNL     1       0.651   3.072  20.728  0.00  0.00    +0.000 A 
ATOM     14  C   UNL     1       1.495   2.628  21.746  0.00  0.00    +0.000 A 
ATOM     15  C   UNL     1       2.859   2.453  21.505  0.00  0.00    +0.000 A 
ATOM     16  C   UNL     1       3.385   2.712  20.238  0.00  0.00    +0.000 A 
ENDBRANCH   8  11
ENDBRANCH   1   9
BRANCH   6  17
ATOM     17  C   UNL     1       4.508   6.772  17.163  0.00  0.00    +0.000 C 
ATOM     18  C   UNL     1       3.344   6.583  17.815  0.00  0.00    +0.000 C 
BRANCH  18  19
ATOM     19  C   UNL     1       2.556   7.666  18.435  0.00  0.00    +0.000 A 
ATOM     20  C   UNL     1       2.159   7.503  19.773  0.00  0.00    +0.000 A 
ATOM     21  C   UNL     1       1.325   8.433  20.405  0.00  0.00    +0.000 A 
ATOM     22  C   UNL     1       0.900   9.565  19.700  0.00  0.00    +0.000 A 
ATOM     23  C   UNL     1       1.297   9.759  18.373  0.00  0.00    +0.000 A 
ATOM     24  C   UNL     1       2.130   8.816  17.749  0.00  0.00    +0.000 A 
BRANCH  22  25
ATOM     25  N   UNL     1       0.033  10.551  20.361  0.00  0.00    +0.000 N 
ATOM     26  O   UNL     1       0.255  10.811  21.549  0.00  0.00    +0.000 OA
ATOM     27  O   UNL     1      -0.871  11.065  19.683  0.00  0.00    +0.000 OA
ENDBRANCH  22  25
ENDBRANCH  18  19
ENDBRANCH   6  17
TORSDOF 5
ENDMDL
MODEL 2
REMARK VINA RESULT:      -8.8      0.077      1.129
REMARK  Name = 
REMARK  5 active torsions:
REMARK  status: ('A' for Active; 'I' for Inactive)
REMARK    1  A    between atoms: C_2  and  C_21
REMARK    2  A    between atoms: N_3  and  C_4
REMARK    3  A    between atoms: C_9  and  C_10
REMARK    4  A    between atoms: C_11  and  C_12
REMARK    5  A    between atoms: C_15  and  N_16
REMARK                            x       y       z     vdW  Elec       q    Type
REMARK                         _______ _______ _______ _____ _____    ______ ____
ROOT
ATOM      1  C   UNL     1       5.014   4.398  16.650  0.00  0.00    +0.000 A 
ATOM      2  C   UNL     1       5.564   3.459  15.769  0.00  0.00    +0.000 A 
ATOM      3  C   UNL     1       6.256   3.853  14.630  0.00  0.00    +0.000 A 
ATOM      4  C   UNL     1       6.399   5.204  14.345  0.00  0.00    +0.000 A 
ATOM      5  C   UNL     1       5.831   6.162  15.191  0.00  0.00    +0.000 A 
ATOM      6  C   UNL     1       5.121   5.776  16.338  0.00  0.00    +0.000 A 
ENDROOT
BRANCH   1   9
ATOM      7  O   UNL     1       2.348   3.140  16.909  0.00  0.00    +0.000 OA
ATOM      8  C   UNL     1       3.058   3.439  17.870  0.00  0.00    +0.000 C 
ATOM      9  N   UNL     1       4.340   3.969  17.823  0.00  0.00    +0.000 N 
ATOM     10  H   UNL     1       4.896   3.924  18.669  0.00  0.00    +0.000 HD
BRANCH   8  11
ATOM     11  C   UNL     1       2.521   3.161  19.224  0.00  0.00    +0.000 A 
ATOM     12  C   UNL     1       3.398   2.684  20.208  0.00  0.00    +0.000 A 
ATOM     13  C   UNL     1       2.923   2.404  21.488  0.00  0.00    +0.000 A 
ATOM     14  C   UNL     1       1.572   2.587  21.781  0.00  0.00    +0.000 A 
ATOM     15  C   UNL     1       0.692   3.039  20.796  0.00  0.00    +0.000 A 
ATOM     16  C   UNL     1       1.163   3.320  19.512  0.00  0.00    +0.000 A 
ENDBRANCH   8  11
ENDBRANCH   1   9
BRANCH   6  17
ATOM     17  C   UNL     1       4.486   6.821  17.166  0.00  0.00    +0.000 C 
ATOM     18  C   UNL     1       3.327   6.628  17.826  0.00  0.00    +0.000 C 
BRANCH  18  19
ATOM     19  C   UNL     1       2.528   7.710  18.433  0.00  0.00    +0.000 A 
ATOM     20  C   UNL     1       2.139   7.562  19.775  0.00  0.00    +0.000 A 
ATOM     21  C   UNL     1       1.296   8.492  20.396  0.00  0.00    +0.000 A 
ATOM     22  C   UNL     1       0.855   9.608  19.677  0.00  0.00    +0.000 A 
ATOM     23  C   UNL     1       1.244   9.787  18.345  0.00  0.00    +0.000 A 
ATOM     24  C   UNL     1       2.086   8.845  17.732  0.00  0.00    +0.000 A 
BRANCH  22  25
ATOM     25  N   UNL     1      -0.021  10.594  20.327  0.00  0.00    +0.000 N 
ATOM     26  O   UNL     1      -1.020  10.977  19.706  0.00  0.00    +0.000 OA
ATOM     27  O   UNL     1       0.295  10.981  21.463  0.00  0.00    +0.000 OA
ENDBRANCH  22  25
ENDBRANCH  18  19
ENDBRANCH   6  17
TORSDOF 5
ENDMDL
MODEL 3
REMARK VINA RESULT:      -8.5      1.004      1.006
REMARK  Name = 
REMARK  5 active torsions:
REMARK  status: ('A' for Active; 'I' for Inactive)
REMARK    1  A    between atoms: C_2  and  C_21
REMARK    2  A    between atoms: N_3  and  C_4
REMARK    3  A    between atoms: C_9  and  C_10
REMARK    4  A    between atoms: C_11  and  C_12
REMARK    5  A    between atoms: C_15  and  N_16
REMARK                            x       y       z     vdW  Elec       q    Type
REMARK                         _______ _______ _______ _____ _____    ______ ____
ROOT
ATOM      1  C   UNL     1       4.754   4.557  16.663  0.00  0.00    +0.000 A 
ATOM      2  C   UNL     1       5.314   3.562  15.853  0.00  0.00    +0.000 A 
ATOM      3  C   UNL     1       6.170   3.876  14.806  0.00  0.00    +0.000 A 
ATOM      4  C   UNL     1       6.473   5.205  14.539  0.00  0.00    +0.000 A 
ATOM      5  C   UNL     1       5.900   6.221  15.312  0.00  0.00    +0.000 A 
ATOM      6  C   UNL     1       5.026   5.916  16.366  0.00  0.00    +0.000 A 
ENDROOT
BRANCH   1   9
ATOM      7  O   UNL     1       5.492   3.674  19.388  0.00  0.00    +0.000 OA
ATOM      8  C   UNL     1       4.331   3.741  18.984  0.00  0.00    +0.000 C 
ATOM      9  N   UNL     1       3.908   4.206  17.747  0.00  0.00    +0.000 N 
ATOM     10  H   UNL     1       2.928   4.444  17.647  0.00  0.00    +0.000 HD
BRANCH   8  11
ATOM     11  C   UNL     1       3.259   3.336  19.925  0.00  0.00    +0.000 A 
ATOM     12  C   UNL     1       1.989   3.912  19.784  0.00  0.00    +0.000 A 
ATOM     13  C   UNL     1       0.963   3.559  20.657  0.00  0.00    +0.000 A 
ATOM     14  C   UNL     1       1.207   2.642  21.679  0.00  0.00    +0.000 A 
ATOM     15  C   UNL     1       2.477   2.085  21.837  0.00  0.00    +0.000 A 
ATOM     16  C   UNL     1       3.509   2.435  20.965  0.00  0.00    +0.000 A 
ENDBRANCH   8  11
ENDBRANCH   1   9
BRANCH   6  17
ATOM     17  C   UNL     1       4.398   7.024  17.112  0.00  0.00    +0.000 C 
ATOM     18  C   UNL     1       3.316   6.858  17.898  0.00  0.00    +0.000 C 
BRANCH  18  19
ATOM     19  C   UNL     1       2.504   7.966  18.437  0.00  0.00    +0.000 A 
ATOM     20  C   UNL     1       2.008   7.837  19.745  0.00  0.00    +0.000 A 
ATOM     21  C   UNL     1       1.147   8.795  20.296  0.00  0.00    +0.000 A 
ATOM     22  C   UNL     1       0.793   9.917  19.539  0.00  0.00    +0.000 A 
ATOM     23  C   UNL     1       1.289  10.076  18.240  0.00  0.00    +0.000 A 
ATOM     24  C   UNL     1       2.148   9.107  17.699  0.00  0.00    +0.000 A 
BRANCH  22  25
ATOM     25  N   UNL     1      -0.102  10.931  20.115  0.00  0.00    +0.000 N 
ATOM     26  O   UNL     1       0.370  11.711  20.950  0.00  0.00    +0.000 OA
ATOM     27  O   UNL     1      -1.280  10.943  19.725  0.00  0.00    +0.000 OA
ENDBRANCH  22  25
ENDBRANCH  18  19
ENDBRANCH   6  17
TORSDOF 5
ENDMDL
MODEL 4
REMARK VINA RESULT:      -8.4      1.005      1.497
REMARK  Name = 
REMARK  5 active torsions:
REMARK  status: ('A' for Active; 'I' for Inactive)
REMARK    1  A    between atoms: C_2  and  C_21
REMARK    2  A    between atoms: N_3  and  C_4
REMARK    3  A    between atoms: C_9  and  C_10
REMARK    4  A    between atoms: C_11  and  C_12
REMARK    5  A    between atoms: C_15  and  N_16
REMARK                            x       y       z     vdW  Elec       q    Type
REMARK                         _______ _______ _______ _____ _____    ______ ____
ROOT
ATOM      1  C   UNL     1       4.734   4.565  16.653  0.00  0.00    +0.000 A 
ATOM      2  C   UNL     1       5.360   3.572  15.889  0.00  0.00    +0.000 A 
ATOM      3  C   UNL     1       6.231   3.895  14.856  0.00  0.00    +0.000 A 
ATOM      4  C   UNL     1       6.483   5.227  14.558  0.00  0.00    +0.000 A 
ATOM      5  C   UNL     1       5.844   6.239  15.284  0.00  0.00    +0.000 A 
ATOM      6  C   UNL     1       4.955   5.925  16.323  0.00  0.00    +0.000 A 
ENDROOT
BRANCH   1   9
ATOM      7  O   UNL     1       5.436   3.682  19.388  0.00  0.00    +0.000 OA
ATOM      8  C   UNL     1       4.281   3.743  18.966  0.00  0.00    +0.000 C 
ATOM      9  N   UNL     1       3.874   4.207  17.724  0.00  0.00    +0.000 N 
ATOM     10  H   UNL     1       2.894   4.440  17.609  0.00  0.00    +0.000 HD
BRANCH   8  11
ATOM     11  C   UNL     1       3.197   3.330  19.891  0.00  0.00    +0.000 A 
ATOM     12  C   UNL     1       1.909   3.843  19.685  0.00  0.00    +0.000 A 
ATOM     13  C   UNL     1       0.870   3.481  20.540  0.00  0.00    +0.000 A 
ATOM     14  C   UNL     1       1.121   2.621  21.609  0.00  0.00    +0.000 A 
ATOM     15  C   UNL     1       2.408   2.128  21.830  0.00  0.00    +0.000 A 
ATOM     16  C   UNL     1       3.452   2.487  20.976  0.00  0.00    +0.000 A 
ENDBRANCH   8  11
ENDBRANCH   1   9
BRANCH   6  17
ATOM     17  C   UNL     1       4.258   7.025  17.019  0.00  0.00    +0.000 C 
ATOM     18  C   UNL     1       3.360   6.818  18.002  0.00  0.00    +0.000 C 
BRANCH  18  19
ATOM     19  C   UNL     1       2.452   7.855  18.528  0.00  0.00    +0.000 A 
ATOM     20  C   UNL     1       2.142   8.940  17.690  0.00  0.00    +0.000 A 
ATOM     21  C   UNL     1       1.371  10.016  18.146  0.00  0.00    +0.000 A 
ATOM     22  C   UNL     1       0.875  10.001  19.454  0.00  0.00    +0.000 A 
ATOM     23  C   UNL     1       1.154   8.924  20.301  0.00  0.00    +0.000 A 
ATOM     24  C   UNL     1       1.932   7.852  19.833  0.00  0.00    +0.000 A 
BRANCH  22  25
ATOM     25  N   UNL     1       0.056  11.123  19.935  0.00  0.00    +0.000 N 
ATOM     26  O   UNL     1      -1.036  11.317  19.389  0.00  0.00    +0.000 OA
ATOM     27  O   UNL     1       0.512  11.808  20.864  0.00  0.00    +0.000 OA
ENDBRANCH  22  25
ENDBRANCH  18  19
ENDBRANCH   6  17
TORSDOF 5
ENDMDL
MODEL 5
REMARK VINA RESULT:      -8.4      3.392      5.647
REMARK  Name = 
REMARK  5 active torsions:
REMARK  status: ('A' for Active; 'I' for Inactive)
REMARK    1  A    between atoms: C_2  and  C_21
REMARK    2  A    between atoms: N_3  and  C_4
REMARK    3  A    between atoms: C_9  and  C_10
REMARK    4  A    between atoms: C_11  and  C_12
REMARK    5  A    between atoms: C_15  and  N_16
REMARK                            x       y       z     vdW  Elec       q    Type
REMARK                         _______ _______ _______ _____ _____    ______ ____
ROOT
ATOM      1  C   UNL     1       6.402   6.186  16.553  0.00  0.00    +0.000 A 
ATOM      2  C   UNL     1       7.084   5.254  15.760  0.00  0.00    +0.000 A 
ATOM      3  C   UNL     1       6.502   4.046  15.400  0.00  0.00    +0.000 A 
ATOM      4  C   UNL     1       5.221   3.739  15.841  0.00  0.00    +0.000 A 
ATOM      5  C   UNL     1       4.531   4.638  16.662  0.00  0.00    +0.000 A 
ATOM      6  C   UNL     1       5.112   5.857  17.041  0.00  0.00    +0.000 A 
ENDROOT
BRANCH   1   9
ATOM      7  O   UNL     1       8.294   6.815  18.738  0.00  0.00    +0.000 OA
ATOM      8  C   UNL     1       7.843   7.658  17.962  0.00  0.00    +0.000 C 
ATOM      9  N   UNL     1       7.007   7.427  16.879  0.00  0.00    +0.000 N 
ATOM     10  H   UNL     1       6.925   8.162  16.186  0.00  0.00    +0.000 HD
BRANCH   8  11
ATOM     11  C   UNL     1       8.272   9.063  18.162  0.00  0.00    +0.000 A 
ATOM     12  C   UNL     1       9.151   9.354  19.214  0.00  0.00    +0.000 A 
ATOM     13  C   UNL     1       9.566  10.665  19.434  0.00  0.00    +0.000 A 
ATOM     14  C   UNL     1       9.091  11.689  18.614  0.00  0.00    +0.000 A 
ATOM     15  C   UNL     1       8.197  11.406  17.580  0.00  0.00    +0.000 A 
ATOM     16  C   UNL     1       7.778  10.094  17.356  0.00  0.00    +0.000 A 
ENDBRANCH   8  11
ENDBRANCH   1   9
BRANCH   6  17
ATOM     17  C   UNL     1       4.371   6.743  17.959  0.00  0.00    +0.000 C 
ATOM     18  C   UNL     1       3.026   6.749  18.046  0.00  0.00    +0.000 C 
BRANCH  18  19
ATOM     19  C   UNL     1       2.244   7.791  18.738  0.00  0.00    +0.000 A 
ATOM     20  C   UNL     1       1.932   8.959  18.021  0.00  0.00    +0.000 A 
ATOM     21  C   UNL     1       1.281  10.038  18.633  0.00  0.00    +0.000 A 
ATOM     22  C   UNL     1       0.909   9.943  19.978  0.00  0.00    +0.000 A 
ATOM     23  C   UNL     1       1.191   8.783  20.708  0.00  0.00    +0.000 A 
ATOM     24  C   UNL     1       1.848   7.710  20.084  0.00  0.00    +0.000 A 
BRANCH  22  25
ATOM     25  N   UNL     1       0.217  11.068  20.623  0.00  0.00    +0.000 N 
ATOM     26  O   UNL     1       0.901  11.884  21.251  0.00  0.00    +0.000 OA
ATOM     27  O   UNL     1      -1.016  11.130  20.497  0.00  0.00    +0.000 OA
ENDBRANCH  22  25
ENDBRANCH  18  19
ENDBRANCH   6  17
TORSDOF 5
ENDMDL
MODEL 6
REMARK VINA RESULT:      -8.4      3.492      5.703
REMARK  Name = 
REMARK  5 active torsions:
REMARK  status: ('A' for Active; 'I' for Inactive)
REMARK    1  A    between atoms: C_2  and  C_21
REMARK    2  A    between atoms: N_3  and  C_4
REMARK    3  A    between atoms: C_9  and  C_10
REMARK    4  A    between atoms: C_11  and  C_12
REMARK    5  A    between atoms: C_15  and  N_16
REMARK                            x       y       z     vdW  Elec       q    Type
REMARK                         _______ _______ _______ _____ _____    ______ ____
ROOT
ATOM      1  C   UNL     1       6.549   6.359  16.555  0.00  0.00    +0.000 A 
ATOM      2  C   UNL     1       7.273   5.384  15.858  0.00  0.00    +0.000 A 
ATOM      3  C   UNL     1       6.687   4.186  15.470  0.00  0.00    +0.000 A 
ATOM      4  C   UNL     1       5.359   3.934  15.787  0.00  0.00    +0.000 A 
ATOM      5  C   UNL     1       4.622   4.878  16.512  0.00  0.00    +0.000 A 
ATOM      6  C   UNL     1       5.206   6.087  16.918  0.00  0.00    +0.000 A 
ENDROOT
BRANCH   1   9
ATOM      7  O   UNL     1       8.313   6.961  18.852  0.00  0.00    +0.000 OA
ATOM      8  C   UNL     1       7.934   7.808  18.043  0.00  0.00    +0.000 C 
ATOM      9  N   UNL     1       7.163   7.588  16.911  0.00  0.00    +0.000 N 
ATOM     10  H   UNL     1       7.143   8.319  16.209  0.00  0.00    +0.000 HD
BRANCH   8  11
ATOM     11  C   UNL     1       8.383   9.204  18.260  0.00  0.00    +0.000 A 
ATOM     12  C   UNL     1       7.903  10.205  17.402  0.00  0.00    +0.000 A 
ATOM     13  C   UNL     1       8.312  11.525  17.574  0.00  0.00    +0.000 A 
ATOM     14  C   UNL     1       9.211  11.845  18.592  0.00  0.00    +0.000 A 
ATOM     15  C   UNL     1       9.708  10.848  19.432  0.00  0.00    +0.000 A 
ATOM     16  C   UNL     1       9.301   9.523  19.264  0.00  0.00    +0.000 A 
ENDBRANCH   8  11
ENDBRANCH   1   9
BRANCH   6  17
ATOM     17  C   UNL     1       4.408   7.023  17.734  0.00  0.00    +0.000 C 
ATOM     18  C   UNL     1       3.146   6.761  18.127  0.00  0.00    +0.000 C 
BRANCH  18  19
ATOM     19  C   UNL     1       2.230   7.766  18.701  0.00  0.00    +0.000 A 
ATOM     20  C   UNL     1       1.744   8.771  17.849  0.00  0.00    +0.000 A 
ATOM     21  C   UNL     1       0.953   9.819  18.335  0.00  0.00    +0.000 A 
ATOM     22  C   UNL     1       0.616   9.853  19.692  0.00  0.00    +0.000 A 
ATOM     23  C   UNL     1       1.072   8.854  20.558  0.00  0.00    +0.000 A 
ATOM     24  C   UNL     1       1.869   7.810  20.058  0.00  0.00    +0.000 A 
BRANCH  22  25
ATOM     25  N   UNL     1      -0.223  10.945  20.207  0.00  0.00    +0.000 N 
ATOM     26  O   UNL     1      -0.705  11.738  19.390  0.00  0.00    +0.000 OA
ATOM     27  O   UNL     1      -0.399  11.004  21.434  0.00  0.00    +0.000 OA
ENDBRANCH  22  25
ENDBRANCH  18  19
ENDBRANCH   6  17
TORSDOF 5
ENDMDL
MODEL 7
REMARK VINA RESULT:      -8.4      1.735      4.998
REMARK  Name = 
REMARK  5 active torsions:
REMARK  status: ('A' for Active; 'I' for Inactive)
REMARK    1  A    between atoms: C_2  and  C_21
REMARK    2  A    between atoms: N_3  and  C_4
REMARK    3  A    between atoms: C_9  and  C_10
REMARK    4  A    between atoms: C_11  and  C_12
REMARK    5  A    between atoms: C_15  and  N_16
REMARK                            x       y       z     vdW  Elec       q    Type
REMARK                         _______ _______ _______ _____ _____    ______ ____
ROOT
ATOM      1  C   UNL     1       3.010   3.472  19.371  0.00  0.00    +0.000 A 
ATOM      2  C   UNL     1       3.016   2.208  19.974  0.00  0.00    +0.000 A 
ATOM      3  C   UNL     1       2.218   1.927  21.076  0.00  0.00    +0.000 A 
ATOM      4  C   UNL     1       1.403   2.918  21.607  0.00  0.00    +0.000 A 
ATOM      5  C   UNL     1       1.403   4.199  21.044  0.00  0.00    +0.000 A 
ATOM      6  C   UNL     1       2.211   4.497  19.937  0.00  0.00    +0.000 A 
ENDROOT
BRANCH   1   9
ATOM      7  O   UNL     1       5.909   4.040  19.216  0.00  0.00    +0.000 OA
ATOM      8  C   UNL     1       5.160   4.042  18.239  0.00  0.00    +0.000 C 
ATOM      9  N   UNL     1       3.810   3.722  18.227  0.00  0.00    +0.000 N 
ATOM     10  H   UNL     1       3.386   3.517  17.329  0.00  0.00    +0.000 HD
BRANCH   8  11
ATOM     11  C   UNL     1       5.762   4.366  16.923  0.00  0.00    +0.000 A 
ATOM     12  C   UNL     1       4.979   4.210  15.771  0.00  0.00    +0.000 A 
ATOM     13  C   UNL     1       5.517   4.498  14.519  0.00  0.00    +0.000 A 
ATOM     14  C   UNL     1       6.839   4.928  14.415  0.00  0.00    +0.000 A 
ATOM     15  C   UNL     1       7.628   5.061  15.558  0.00  0.00    +0.000 A 
ATOM     16  C   UNL     1       7.094   4.774  16.815  0.00  0.00    +0.000 A 
ENDBRANCH   8  11
ENDBRANCH   1   9
BRANCH   6  17
ATOM     17  C   UNL     1       2.224   5.879  19.418  0.00  0.00    +0.000 C 
ATOM     18  C   UNL     1       2.056   6.960  20.205  0.00  0.00    +0.000 C 
BRANCH  18  19
ATOM     19  C   UNL     1       1.792   8.321  19.700  0.00  0.00    +0.000 A 
ATOM     20  C   UNL     1       1.177   9.235  20.572  0.00  0.00    +0.000 A 
ATOM     21  C   UNL     1       0.801  10.513  20.142  0.00  0.00    +0.000 A 
ATOM     22  C   UNL     1       1.067  10.901  18.824  0.00  0.00    +0.000 A 
ATOM     23  C   UNL     1       1.695  10.015  17.942  0.00  0.00    +0.000 A 
ATOM     24  C   UNL     1       2.064   8.734  18.385  0.00  0.00    +0.000 A 
BRANCH  22  25
ATOM     25  N   UNL     1       0.684  12.245  18.369  0.00  0.00    +0.000 N 
ATOM     26  O   UNL     1      -0.520  12.483  18.220  0.00  0.00    +0.000 OA
ATOM     27  O   UNL     1       1.595  13.062  18.164  0.00  0.00    +0.000 OA
ENDBRANCH  22  25
ENDBRANCH  18  19
ENDBRANCH   6  17
TORSDOF 5
ENDMDL
MODEL 8
REMARK VINA RESULT:      -8.3      1.521      4.926
REMARK  Name = 
REMARK  5 active torsions:
REMARK  status: ('A' for Active; 'I' for Inactive)
REMARK    1  A    between atoms: C_2  and  C_21
REMARK    2  A    between atoms: N_3  and  C_4
REMARK    3  A    between atoms: C_9  and  C_10
REMARK    4  A    between atoms: C_11  and  C_12
REMARK    5  A    between atoms: C_15  and  N_16
REMARK                            x       y       z     vdW  Elec       q    Type
REMARK                         _______ _______ _______ _____ _____    ______ ____
ROOT
ATOM      1  C   UNL     1       3.459   3.833  19.697  0.00  0.00    +0.000 A 
ATOM      2  C   UNL     1       3.581   2.573  20.297  0.00  0.00    +0.000 A 
ATOM      3  C   UNL     1       2.735   2.173  21.322  0.00  0.00    +0.000 A 
ATOM      4  C   UNL     1       1.750   3.039  21.780  0.00  0.00    +0.000 A 
ATOM      5  C   UNL     1       1.627   4.316  21.221  0.00  0.00    +0.000 A 
ATOM      6  C   UNL     1       2.483   4.735  20.192  0.00  0.00    +0.000 A 
ENDROOT
BRANCH   1   9
ATOM      7  O   UNL     1       3.099   3.416  16.791  0.00  0.00    +0.000 OA
ATOM      8  C   UNL     1       4.106   3.919  17.288  0.00  0.00    +0.000 C 
ATOM      9  N   UNL     1       4.316   4.204  18.630  0.00  0.00    +0.000 N 
ATOM     10  H   UNL     1       5.070   4.842  18.860  0.00  0.00    +0.000 HD
BRANCH   8  11
ATOM     11  C   UNL     1       5.195   4.315  16.363  0.00  0.00    +0.000 A 
ATOM     12  C   UNL     1       5.096   3.948  15.013  0.00  0.00    +0.000 A 
ATOM     13  C   UNL     1       6.106   4.297  14.120  0.00  0.00    +0.000 A 
ATOM     14  C   UNL     1       7.222   4.999  14.576  0.00  0.00    +0.000 A 
ATOM     15  C   UNL     1       7.335   5.344  15.923  0.00  0.00    +0.000 A 
ATOM     16  C   UNL     1       6.325   4.997  16.823  0.00  0.00    +0.000 A 
ENDBRANCH   8  11
ENDBRANCH   1   9
BRANCH   6  17
ATOM     17  C   UNL     1       2.356   6.113  19.678  0.00  0.00    +0.000 C 
ATOM     18  C   UNL     1       1.956   7.147  20.444  0.00  0.00    +0.000 C 
BRANCH  18  19
ATOM     19  C   UNL     1       1.559   8.466  19.915  0.00  0.00    +0.000 A 
ATOM     20  C   UNL     1       0.852   9.328  20.770  0.00  0.00    +0.000 A 
ATOM     21  C   UNL     1       0.351  10.554  20.318  0.00  0.00    +0.000 A 
ATOM     22  C   UNL     1       0.580  10.944  18.994  0.00  0.00    +0.000 A 
ATOM     23  C   UNL     1       1.296  10.112  18.128  0.00  0.00    +0.000 A 
ATOM     24  C   UNL     1       1.791   8.882  18.593  0.00  0.00    +0.000 A 
BRANCH  22  25
ATOM     25  N   UNL     1       0.065  12.235  18.515  0.00  0.00    +0.000 N 
ATOM     26  O   UNL     1       0.881  13.138  18.296  0.00  0.00    +0.000 OA
ATOM     27  O   UNL     1      -1.162  12.340  18.357  0.00  0.00    +0.000 OA
ENDBRANCH  22  25
ENDBRANCH  18  19
ENDBRANCH   6  17
TORSDOF 5
ENDMDL
MODEL 9
REMARK VINA RESULT:      -8.3      1.035      1.680
REMARK  Name = 
REMARK  5 active torsions:
REMARK  status: ('A' for Active; 'I' for Inactive)
REMARK    1  A    between atoms: C_2  and  C_21
REMARK    2  A    between atoms: N_3  and  C_4
REMARK    3  A    between atoms: C_9  and  C_10
REMARK    4  A    between atoms: C_11  and  C_12
REMARK    5  A    between atoms: C_15  and  N_16
REMARK                            x       y       z     vdW  Elec       q    Type
REMARK                         _______ _______ _______ _____ _____    ______ ____
ROOT
ATOM      1  C   UNL     1       4.715   4.543  16.668  0.00  0.00    +0.000 A 
ATOM      2  C   UNL     1       5.350   3.536  15.930  0.00  0.00    +0.000 A 
ATOM      3  C   UNL     1       6.230   3.839  14.900  0.00  0.00    +0.000 A 
ATOM      4  C   UNL     1       6.484   5.165  14.578  0.00  0.00    +0.000 A 
ATOM      5  C   UNL     1       5.838   6.190  15.278  0.00  0.00    +0.000 A 
ATOM      6  C   UNL     1       4.939   5.897  16.314  0.00  0.00    +0.000 A 
ENDROOT
BRANCH   1   9
ATOM      7  O   UNL     1       5.389   3.698  19.422  0.00  0.00    +0.000 OA
ATOM      8  C   UNL     1       4.239   3.759  18.990  0.00  0.00    +0.000 C 
ATOM      9  N   UNL     1       3.845   4.206  17.737  0.00  0.00    +0.000 N 
ATOM     10  H   UNL     1       2.867   4.442  17.611  0.00  0.00    +0.000 HD
BRANCH   8  11
ATOM     11  C   UNL     1       3.145   3.365  19.911  0.00  0.00    +0.000 A 
ATOM     12  C   UNL     1       3.451   2.538  21.001  0.00  0.00    +0.000 A 
ATOM     13  C   UNL     1       2.445   2.143  21.880  0.00  0.00    +0.000 A 
ATOM     14  C   UNL     1       1.132   2.561  21.664  0.00  0.00    +0.000 A 
ATOM     15  C   UNL     1       0.821   3.365  20.566  0.00  0.00    +0.000 A 
ATOM     16  C   UNL     1       1.825   3.764  19.682  0.00  0.00    +0.000 A 
ENDBRANCH   8  11
ENDBRANCH   1   9
BRANCH   6  17
ATOM     17  C   UNL     1       4.234   7.009  16.980  0.00  0.00    +0.000 C 
ATOM     18  C   UNL     1       3.391   6.828  18.016  0.00  0.00    +0.000 C 
BRANCH  18  19
ATOM     19  C   UNL     1       2.470   7.861  18.528  0.00  0.00    +0.000 A 
ATOM     20  C   UNL     1       2.161   8.939  17.680  0.00  0.00    +0.000 A 
ATOM     21  C   UNL     1       1.378  10.012  18.123  0.00  0.00    +0.000 A 
ATOM     22  C   UNL     1       0.868  10.000  19.426  0.00  0.00    +0.000 A 
ATOM     23  C   UNL     1       1.146   8.929  20.282  0.00  0.00    +0.000 A 
ATOM     24  C   UNL     1       1.937   7.861  19.827  0.00  0.00    +0.000 A 
BRANCH  22  25
ATOM     25  N   UNL     1       0.036  11.118  19.892  0.00  0.00    +0.000 N 
ATOM     26  O   UNL     1      -0.805  10.886  20.768  0.00  0.00    +0.000 OA
ATOM     27  O   UNL     1       0.231  12.231  19.379  0.00  0.00    +0.000 OA
ENDBRANCH  22  25
ENDBRANCH  18  19
ENDBRANCH   6  17
TORSDOF 5
ENDMDL
