MODEL 1
REMARK VINA RESULT:      -9.0      0.000      0.000
REMARK  Name = 
REMARK  10 active torsions:
REMARK  status: ('A' for Active; 'I' for Inactive)
REMARK    1  A    between atoms: C_1  and  C_2
REMARK    2  A    between atoms: C_4  and  C_5
REMARK    3  A    between atoms: C_10  and  C_11
REMARK    4  A    between atoms: C_17  and  C_18
REMARK    5  A    between atoms: C_22  and  O_23
REMARK    6  A    between atoms: O_23  and  C_24
REMARK    7  A    between atoms: C_24  and  C_25
REMARK    8  A    between atoms: C_25  and  N_26
REMARK    9  A    between atoms: C_25  and  C_27
REMARK   10  A    between atoms: C_27  and  C_28
REMARK                            x       y       z     vdW  Elec       q    Type
REMARK                         _______ _______ _______ _____ _____    ______ ____
ROOT
ATOM      1  C   UNL     1      -0.326   8.673  21.738  0.00  0.00    +0.000 C 
ATOM      2  C   UNL     1       0.708   8.043  20.858  0.00  0.00    +0.000 A 
ATOM      3  N   UNL     1       0.895   6.720  21.102  0.00  0.00    +0.000 NA
ATOM      4  C   UNL     1       1.763   5.991  20.343  0.00  0.00    +0.000 A 
ATOM      5  C   UNL     1       2.500   6.553  19.284  0.00  0.00    +0.000 A 
ATOM      6  C   UNL     1       2.274   7.927  19.056  0.00  0.00    +0.000 A 
ATOM      7  C   UNL     1       1.405   8.693  19.843  0.00  0.00    +0.000 A 
ENDROOT
BRANCH   5   8
ATOM      8  C   UNL     1       3.492   5.820  18.469  0.00  0.00    +0.000 A 
ATOM      9  C   UNL     1       3.145   4.805  17.562  0.00  0.00    +0.000 A 
ATOM     10  N   UNL     1       4.022   4.080  16.808  0.00  0.00    +0.000 NA
ATOM     11  C   UNL     1       5.290   4.451  17.078  0.00  0.00    +0.000 A 
ATOM     12  N   UNL     1       6.449   3.940  16.569  0.00  0.00    +0.000 N 
ATOM     13  N   UNL     1       7.569   4.472  17.109  0.00  0.00    +0.000 NA
ATOM     14  C   UNL     1       7.100   5.394  17.974  0.00  0.00    +0.000 A 
ATOM     15  C   UNL     1       8.015   6.187  18.822  0.00  0.00    +0.000 C 
ATOM     16  C   UNL     1       5.682   5.439  17.963  0.00  0.00    +0.000 A 
ATOM     17  N   UNL     1       4.784   6.188  18.647  0.00  0.00    +0.000 NA
ATOM     18  H   UNL     1       6.538   3.219  15.865  0.00  0.00    +0.000 HD
ENDBRANCH   5   8
BRANCH   4  19
ATOM     19  C   UNL     1       1.830   4.595  20.758  0.00  0.00    +0.000 A 
ATOM     20  C   UNL     1       2.753   3.867  21.559  0.00  0.00    +0.000 A 
ATOM     21  C   UNL     1       2.247   2.595  21.692  0.00  0.00    +0.000 A 
ATOM     22  O   UNL     1       1.115   2.458  20.959  0.00  0.00    +0.000 OA
ATOM     23  C   UNL     1       0.878   3.665  20.383  0.00  0.00    +0.000 A 
ENDBRANCH   4  19
BRANCH   7  24
ATOM     24  O   UNL     1       1.326  10.000  19.452  0.00  0.00    +0.000 OA
BRANCH  24  25
ATOM     25  C   UNL     1       0.251  10.369  18.580  0.00  0.00    +0.000 C 
BRANCH  25  26
ATOM     26  C   UNL     1      -0.690  11.360  19.307  0.00  0.00    +0.000 C 
BRANCH  26  27
ATOM     27  N   UNL     1       0.066  12.142  20.308  0.00  0.00    +0.000 NA
ATOM     28  H   UNL     1       0.304  13.056  19.928  0.00  0.00    +0.000 HD
ATOM     29  H   UNL     1       0.950  11.664  20.485  0.00  0.00    +0.000 HD
ENDBRANCH  26  27
BRANCH  26  30
ATOM     30  C   UNL     1      -1.408  12.247  18.260  0.00  0.00    +0.000 C 
BRANCH  30  31
ATOM     31  C   UNL     1      -2.746  11.729  17.826  0.00  0.00    +0.000 A 
ATOM     32  C   UNL     1      -3.006  11.090  16.627  0.00  0.00    +0.000 A 
ATOM     33  N   UNL     1      -4.343  10.819  16.563  0.00  0.00    +0.000 N 
ATOM     34  C   UNL     1      -4.971  11.243  17.709  0.00  0.00    +0.000 A 
ATOM     35  C   UNL     1      -6.324  11.187  18.061  0.00  0.00    +0.000 A 
ATOM     36  C   UNL     1      -6.693  11.701  19.306  0.00  0.00    +0.000 A 
ATOM     37  C   UNL     1      -5.737  12.232  20.170  0.00  0.00    +0.000 A 
ATOM     38  C   UNL     1      -4.386  12.281  19.801  0.00  0.00    +0.000 A 
ATOM     39  C   UNL     1      -3.990  11.793  18.538  0.00  0.00    +0.000 A 
ATOM     40  H   UNL     1      -4.813  10.379  15.785  0.00  0.00    +0.000 HD
ENDBRANCH  30  31
ENDBRANCH  26  30
ENDBRANCH  25  26
ENDBRANCH  24  25
ENDBRANCH   7  24
TORSDOF 8
ENDMDL
MODEL 2
REMARK VINA RESULT:      -9.0      1.012      1.419
REMARK  Name = 
REMARK  10 active torsions:
REMARK  status: ('A' for Active; 'I' for Inactive)
REMARK    1  A    between atoms: C_1  and  C_2
REMARK    2  A    between atoms: C_4  and  C_5
REMARK    3  A    between atoms: C_10  and  C_11
REMARK    4  A    between atoms: C_17  and  C_18
REMARK    5  A    between atoms: C_22  and  O_23
REMARK    6  A    between atoms: O_23  and  C_24
REMARK    7  A    between atoms: C_24  and  C_25
REMARK    8  A    between atoms: C_25  and  N_26
REMARK    9  A    between atoms: C_25  and  C_27
REMARK   10  A    between atoms: C_27  and  C_28
REMARK                            x       y       z     vdW  Elec       q    Type
REMARK                         _______ _______ _______ _____ _____    ______ ____
ROOT
ATOM      1  C   UNL     1      -0.236   8.809  21.699  0.00  0.00    +0.000 C 
ATOM      2  C   UNL     1       0.749   8.144  20.789  0.00  0.00    +0.000 A 
ATOM      3  N   UNL     1       0.937   6.827  21.063  0.00  0.00    +0.000 NA
ATOM      4  C   UNL     1       1.762   6.069  20.285  0.00  0.00    +0.000 A 
ATOM      5  C   UNL     1       2.452   6.593  19.175  0.00  0.00    +0.000 A 
ATOM      6  C   UNL     1       2.225   7.962  18.919  0.00  0.00    +0.000 A 
ATOM      7  C   UNL     1       1.401   8.758  19.724  0.00  0.00    +0.000 A 
ENDROOT
BRANCH   5   8
ATOM      8  C   UNL     1       3.398   5.828  18.335  0.00  0.00    +0.000 A 
ATOM      9  C   UNL     1       3.037   4.669  17.629  0.00  0.00    +0.000 A 
ATOM     10  N   UNL     1       3.876   3.912  16.864  0.00  0.00    +0.000 NA
ATOM     11  C   UNL     1       5.127   4.414  16.904  0.00  0.00    +0.000 A 
ATOM     12  N   UNL     1       6.256   3.925  16.311  0.00  0.00    +0.000 N 
ATOM     13  N   UNL     1       7.379   4.613  16.615  0.00  0.00    +0.000 NA
ATOM     14  C   UNL     1       6.937   5.612  17.406  0.00  0.00    +0.000 A 
ATOM     15  C   UNL     1       7.873   6.586  18.006  0.00  0.00    +0.000 C 
ATOM     16  C   UNL     1       5.532   5.547  17.586  0.00  0.00    +0.000 A 
ATOM     17  N   UNL     1       4.660   6.316  18.282  0.00  0.00    +0.000 NA
ATOM     18  H   UNL     1       6.323   3.119  15.704  0.00  0.00    +0.000 HD
ENDBRANCH   5   8
BRANCH   4  19
ATOM     19  C   UNL     1       1.839   4.684  20.736  0.00  0.00    +0.000 A 
ATOM     20  C   UNL     1       2.765   3.985  21.558  0.00  0.00    +0.000 A 
ATOM     21  C   UNL     1       2.268   2.713  21.725  0.00  0.00    +0.000 A 
ATOM     22  O   UNL     1       1.138   2.548  20.993  0.00  0.00    +0.000 OA
ATOM     23  C   UNL     1       0.894   3.738  20.384  0.00  0.00    +0.000 A 
ENDBRANCH   4  19
BRANCH   7  24
ATOM     24  O   UNL     1       1.313  10.054  19.298  0.00  0.00    +0.000 OA
BRANCH  24  25
ATOM     25  C   UNL     1       0.346  10.357  18.286  0.00  0.00    +0.000 C 
BRANCH  25  26
ATOM     26  C   UNL     1      -0.420  11.647  18.670  0.00  0.00    +0.000 C 
BRANCH  26  27
ATOM     27  N   UNL     1       0.342  12.840  18.242  0.00  0.00    +0.000 NA
ATOM     28  H   UNL     1       1.298  12.783  18.584  0.00  0.00    +0.000 HD
ATOM     29  H   UNL     1      -0.074  13.660  18.684  0.00  0.00    +0.000 HD
ENDBRANCH  26  27
BRANCH  26  30
ATOM     30  C   UNL     1      -1.848  11.592  18.073  0.00  0.00    +0.000 C 
BRANCH  30  31
ATOM     31  C   UNL     1      -2.928  12.022  19.019  0.00  0.00    +0.000 A 
ATOM     32  C   UNL     1      -2.725  12.672  20.223  0.00  0.00    +0.000 A 
ATOM     33  N   UNL     1      -3.936  12.847  20.829  0.00  0.00    +0.000 N 
ATOM     34  C   UNL     1      -4.942  12.347  20.038  0.00  0.00    +0.000 A 
ATOM     35  C   UNL     1      -6.321  12.295  20.270  0.00  0.00    +0.000 A 
ATOM     36  C   UNL     1      -7.124  11.722  19.282  0.00  0.00    +0.000 A 
ATOM     37  C   UNL     1      -6.566  11.240  18.101  0.00  0.00    +0.000 A 
ATOM     38  C   UNL     1      -5.183  11.299  17.884  0.00  0.00    +0.000 A 
ATOM     39  C   UNL     1      -4.345  11.849  18.878  0.00  0.00    +0.000 A 
ATOM     40  H   UNL     1      -4.080  13.272  21.734  0.00  0.00    +0.000 HD
ENDBRANCH  30  31
ENDBRANCH  26  30
ENDBRANCH  25  26
ENDBRANCH  24  25
ENDBRANCH   7  24
TORSDOF 8
ENDMDL
MODEL 3
REMARK VINA RESULT:      -8.8      1.179      1.676
REMARK  Name = 
REMARK  10 active torsions:
REMARK  status: ('A' for Active; 'I' for Inactive)
REMARK    1  A    between atoms: C_1  and  C_2
REMARK    2  A    between atoms: C_4  and  C_5
REMARK    3  A    between atoms: C_10  and  C_11
REMARK    4  A    between atoms: C_17  and  C_18
REMARK    5  A    between atoms: C_22  and  O_23
REMARK    6  A    between atoms: O_23  and  C_24
REMARK    7  A    between atoms: C_24  and  C_25
REMARK    8  A    between atoms: C_25  and  N_26
REMARK    9  A    between atoms: C_25  and  C_27
REMARK   10  A    between atoms: C_27  and  C_28
REMARK                            x       y       z     vdW  Elec       q    Type
REMARK                         _______ _______ _______ _____ _____    ______ ____
ROOT
ATOM      1  C   UNL     1      -0.319   8.746  21.803  0.00  0.00    +0.000 C 
ATOM      2  C   UNL     1       0.708   8.103  20.924  0.00  0.00    +0.000 A 
ATOM      3  N   UNL     1       0.846   6.769  21.137  0.00  0.00    +0.000 NA
ATOM      4  C   UNL     1       1.703   6.031  20.374  0.00  0.00    +0.000 A 
ATOM      5  C   UNL     1       2.477   6.595  19.342  0.00  0.00    +0.000 A 
ATOM      6  C   UNL     1       2.301   7.980  19.147  0.00  0.00    +0.000 A 
ATOM      7  C   UNL     1       1.445   8.755  19.939  0.00  0.00    +0.000 A 
ENDROOT
BRANCH   5   8
ATOM      8  C   UNL     1       3.458   5.849  18.525  0.00  0.00    +0.000 A 
ATOM      9  C   UNL     1       3.098   4.833  17.625  0.00  0.00    +0.000 A 
ATOM     10  N   UNL     1       3.964   4.097  16.870  0.00  0.00    +0.000 NA
ATOM     11  C   UNL     1       5.237   4.458  17.131  0.00  0.00    +0.000 A 
ATOM     12  N   UNL     1       6.389   3.936  16.617  0.00  0.00    +0.000 N 
ATOM     13  N   UNL     1       7.516   4.461  17.148  0.00  0.00    +0.000 NA
ATOM     14  C   UNL     1       7.059   5.391  18.011  0.00  0.00    +0.000 A 
ATOM     15  C   UNL     1       7.986   6.180  18.850  0.00  0.00    +0.000 C 
ATOM     16  C   UNL     1       5.642   5.448  18.008  0.00  0.00    +0.000 A 
ATOM     17  N   UNL     1       4.754   6.208  18.694  0.00  0.00    +0.000 NA
ATOM     18  H   UNL     1       6.468   3.211  15.917  0.00  0.00    +0.000 HD
ENDBRANCH   5   8
BRANCH   4  19
ATOM     19  C   UNL     1       1.715   4.623  20.752  0.00  0.00    +0.000 A 
ATOM     20  C   UNL     1       0.985   3.492  20.294  0.00  0.00    +0.000 A 
ATOM     21  C   UNL     1       1.496   2.396  20.950  0.00  0.00    +0.000 A 
ATOM     22  O   UNL     1       2.437   2.779  21.846  0.00  0.00    +0.000 OA
ATOM     23  C   UNL     1       2.553   4.128  21.734  0.00  0.00    +0.000 A 
ENDBRANCH   4  19
BRANCH   7  24
ATOM     24  O   UNL     1       1.417  10.074  19.581  0.00  0.00    +0.000 OA
BRANCH  24  25
ATOM     25  C   UNL     1       0.804  10.410  18.331  0.00  0.00    +0.000 C 
BRANCH  25  26
ATOM     26  C   UNL     1      -0.328  11.440  18.569  0.00  0.00    +0.000 C 
BRANCH  26  27
ATOM     27  N   UNL     1      -0.001  12.721  17.908  0.00  0.00    +0.000 NA
ATOM     28  H   UNL     1       1.009  12.838  17.857  0.00  0.00    +0.000 HD
ATOM     29  H   UNL     1      -0.350  13.480  18.493  0.00  0.00    +0.000 HD
ENDBRANCH  26  27
BRANCH  26  30
ATOM     30  C   UNL     1      -1.675  10.839  18.096  0.00  0.00    +0.000 C 
BRANCH  30  31
ATOM     31  C   UNL     1      -2.886  11.536  18.639  0.00  0.00    +0.000 A 
ATOM     32  C   UNL     1      -4.083  11.702  17.967  0.00  0.00    +0.000 A 
ATOM     33  N   UNL     1      -4.924  12.433  18.755  0.00  0.00    +0.000 N 
ATOM     34  C   UNL     1      -4.316  12.735  19.950  0.00  0.00    +0.000 A 
ATOM     35  C   UNL     1      -4.796  13.476  21.036  0.00  0.00    +0.000 A 
ATOM     36  C   UNL     1      -3.953  13.630  22.138  0.00  0.00    +0.000 A 
ATOM     37  C   UNL     1      -2.688  13.047  22.157  0.00  0.00    +0.000 A 
ATOM     38  C   UNL     1      -2.223  12.308  21.060  0.00  0.00    +0.000 A 
ATOM     39  C   UNL     1      -3.044  12.159  19.922  0.00  0.00    +0.000 A 
ATOM     40  H   UNL     1      -5.857  12.724  18.501  0.00  0.00    +0.000 HD
ENDBRANCH  30  31
ENDBRANCH  26  30
ENDBRANCH  25  26
ENDBRANCH  24  25
ENDBRANCH   7  24
TORSDOF 8
ENDMDL
MODEL 4
REMARK VINA RESULT:      -8.7      1.659      2.189
REMARK  Name = 
REMARK  10 active torsions:
REMARK  status: ('A' for Active; 'I' for Inactive)
REMARK    1  A    between atoms: C_1  and  C_2
REMARK    2  A    between atoms: C_4  and  C_5
REMARK    3  A    between atoms: C_10  and  C_11
REMARK    4  A    between atoms: C_17  and  C_18
REMARK    5  A    between atoms: C_22  and  O_23
REMARK    6  A    between atoms: O_23  and  C_24
REMARK    7  A    between atoms: C_24  and  C_25
REMARK    8  A    between atoms: C_25  and  N_26
REMARK    9  A    between atoms: C_25  and  C_27
REMARK   10  A    between atoms: C_27  and  C_28
REMARK                            x       y       z     vdW  Elec       q    Type
REMARK                         _______ _______ _______ _____ _____    ______ ____
ROOT
ATOM      1  C   UNL     1      -0.339   8.667  21.895  0.00  0.00    +0.000 C 
ATOM      2  C   UNL     1       0.689   8.045  21.003  0.00  0.00    +0.000 A 
ATOM      3  N   UNL     1       0.839   6.709  21.198  0.00  0.00    +0.000 NA
ATOM      4  C   UNL     1       1.699   5.989  20.422  0.00  0.00    +0.000 A 
ATOM      5  C   UNL     1       2.464   6.572  19.394  0.00  0.00    +0.000 A 
ATOM      6  C   UNL     1       2.275   7.959  19.218  0.00  0.00    +0.000 A 
ATOM      7  C   UNL     1       1.416   8.716  20.024  0.00  0.00    +0.000 A 
ENDROOT
BRANCH   5   8
ATOM      8  C   UNL     1       3.447   5.846  18.563  0.00  0.00    +0.000 A 
ATOM      9  C   UNL     1       3.089   4.860  17.629  0.00  0.00    +0.000 A 
ATOM     10  N   UNL     1       3.957   4.142  16.859  0.00  0.00    +0.000 NA
ATOM     11  C   UNL     1       5.230   4.487  17.142  0.00  0.00    +0.000 A 
ATOM     12  N   UNL     1       6.383   3.973  16.622  0.00  0.00    +0.000 N 
ATOM     13  N   UNL     1       7.509   4.475  17.179  0.00  0.00    +0.000 NA
ATOM     14  C   UNL     1       7.050   5.381  18.066  0.00  0.00    +0.000 A 
ATOM     15  C   UNL     1       7.974   6.139  18.936  0.00  0.00    +0.000 C 
ATOM     16  C   UNL     1       5.633   5.447  18.053  0.00  0.00    +0.000 A 
ATOM     17  N   UNL     1       4.744   6.191  18.753  0.00  0.00    +0.000 NA
ATOM     18  H   UNL     1       6.463   3.269  15.901  0.00  0.00    +0.000 HD
ENDBRANCH   5   8
BRANCH   4  19
ATOM     19  C   UNL     1       1.725   4.576  20.782  0.00  0.00    +0.000 A 
ATOM     20  C   UNL     1       0.990   3.447  20.323  0.00  0.00    +0.000 A 
ATOM     21  C   UNL     1       1.520   2.346  20.955  0.00  0.00    +0.000 A 
ATOM     22  O   UNL     1       2.477   2.722  21.838  0.00  0.00    +0.000 OA
ATOM     23  C   UNL     1       2.584   4.073  21.741  0.00  0.00    +0.000 A 
ENDBRANCH   4  19
BRANCH   7  24
ATOM     24  O   UNL     1       1.375  10.040  19.683  0.00  0.00    +0.000 OA
BRANCH  24  25
ATOM     25  C   UNL     1       0.869  10.376  18.386  0.00  0.00    +0.000 C 
BRANCH  25  26
ATOM     26  C   UNL     1      -0.553  10.973  18.523  0.00  0.00    +0.000 C 
BRANCH  26  27
ATOM     27  N   UNL     1      -1.571   9.940  18.235  0.00  0.00    +0.000 NA
ATOM     28  H   UNL     1      -1.127   9.028  18.155  0.00  0.00    +0.000 HD
ATOM     29  H   UNL     1      -1.981  10.142  17.323  0.00  0.00    +0.000 HD
ENDBRANCH  26  27
BRANCH  26  30
ATOM     30  C   UNL     1      -0.711  11.605  19.928  0.00  0.00    +0.000 C 
BRANCH  30  31
ATOM     31  C   UNL     1      -2.084  12.131  20.217  0.00  0.00    +0.000 A 
ATOM     32  C   UNL     1      -2.993  12.561  19.268  0.00  0.00    +0.000 A 
ATOM     33  N   UNL     1      -4.106  13.022  19.911  0.00  0.00    +0.000 N 
ATOM     34  C   UNL     1      -3.963  12.882  21.271  0.00  0.00    +0.000 A 
ATOM     35  C   UNL     1      -4.838  13.237  22.303  0.00  0.00    +0.000 A 
ATOM     36  C   UNL     1      -4.432  12.979  23.614  0.00  0.00    +0.000 A 
ATOM     37  C   UNL     1      -3.206  12.371  23.875  0.00  0.00    +0.000 A 
ATOM     38  C   UNL     1      -2.341  12.023  22.829  0.00  0.00    +0.000 A 
ATOM     39  C   UNL     1      -2.715  12.296  21.496  0.00  0.00    +0.000 A 
ATOM     40  H   UNL     1      -4.918  13.420  19.461  0.00  0.00    +0.000 HD
ENDBRANCH  30  31
ENDBRANCH  26  30
ENDBRANCH  25  26
ENDBRANCH  24  25
ENDBRANCH   7  24
TORSDOF 8
ENDMDL
MODEL 5
REMARK VINA RESULT:      -8.7      2.094      3.108
REMARK  Name = 
REMARK  10 active torsions:
REMARK  status: ('A' for Active; 'I' for Inactive)
REMARK    1  A    between atoms: C_1  and  C_2
REMARK    2  A    between atoms: C_4  and  C_5
REMARK    3  A    between atoms: C_10  and  C_11
REMARK    4  A    between atoms: C_17  and  C_18
REMARK    5  A    between atoms: C_22  and  O_23
REMARK    6  A    between atoms: O_23  and  C_24
REMARK    7  A    between atoms: C_24  and  C_25
REMARK    8  A    between atoms: C_25  and  N_26
REMARK    9  A    between atoms: C_25  and  C_27
REMARK   10  A    between atoms: C_27  and  C_28
REMARK                            x       y       z     vdW  Elec       q    Type
REMARK                         _______ _______ _______ _____ _____    ______ ____
ROOT
ATOM      1  C   UNL     1      -0.237   8.921  21.852  0.00  0.00    +0.000 C 
ATOM      2  C   UNL     1       0.715   8.279  20.892  0.00  0.00    +0.000 A 
ATOM      3  N   UNL     1       0.889   6.949  21.108  0.00  0.00    +0.000 NA
ATOM      4  C   UNL     1       1.682   6.210  20.281  0.00  0.00    +0.000 A 
ATOM      5  C   UNL     1       2.353   6.769  19.176  0.00  0.00    +0.000 A 
ATOM      6  C   UNL     1       2.142   8.150  18.980  0.00  0.00    +0.000 A 
ATOM      7  C   UNL     1       1.351   8.925  19.836  0.00  0.00    +0.000 A 
ENDROOT
BRANCH   5   8
ATOM      8  C   UNL     1       3.266   6.024  18.283  0.00  0.00    +0.000 A 
ATOM      9  C   UNL     1       2.940   4.785  17.708  0.00  0.00    +0.000 A 
ATOM     10  N   UNL     1       3.755   4.044  16.901  0.00  0.00    +0.000 NA
ATOM     11  C   UNL     1       4.948   4.655  16.754  0.00  0.00    +0.000 A 
ATOM     12  N   UNL     1       6.043   4.221  16.064  0.00  0.00    +0.000 N 
ATOM     13  N   UNL     1       7.123   5.027  16.181  0.00  0.00    +0.000 NA
ATOM     14  C   UNL     1       6.680   6.044  16.948  0.00  0.00    +0.000 A 
ATOM     15  C   UNL     1       7.580   7.141  17.360  0.00  0.00    +0.000 C 
ATOM     16  C   UNL     1       5.318   5.871  17.301  0.00  0.00    +0.000 A 
ATOM     17  N   UNL     1       4.461   6.614  18.043  0.00  0.00    +0.000 NA
ATOM     18  H   UNL     1       6.118   3.377  15.511  0.00  0.00    +0.000 HD
ENDBRANCH   5   8
BRANCH   4  19
ATOM     19  C   UNL     1       1.747   4.808  20.674  0.00  0.00    +0.000 A 
ATOM     20  C   UNL     1       0.901   3.693  20.423  0.00  0.00    +0.000 A 
ATOM     21  C   UNL     1       1.524   2.592  20.963  0.00  0.00    +0.000 A 
ATOM     22  O   UNL     1       2.659   2.959  21.607  0.00  0.00    +0.000 OA
ATOM     23  C   UNL     1       2.779   4.303  21.443  0.00  0.00    +0.000 A 
ENDBRANCH   4  19
BRANCH   7  24
ATOM     24  O   UNL     1       1.274  10.239  19.465  0.00  0.00    +0.000 OA
BRANCH  24  25
ATOM     25  C   UNL     1       0.290  10.596  18.488  0.00  0.00    +0.000 C 
BRANCH  25  26
ATOM     26  C   UNL     1      -0.362  11.946  18.877  0.00  0.00    +0.000 C 
BRANCH  26  27
ATOM     27  N   UNL     1      -0.972  12.580  17.689  0.00  0.00    +0.000 NA
ATOM     28  H   UNL     1      -1.597  11.923  17.228  0.00  0.00    +0.000 HD
ATOM     29  H   UNL     1      -0.229  12.788  17.021  0.00  0.00    +0.000 HD
ENDBRANCH  26  27
BRANCH  26  30
ATOM     30  C   UNL     1      -1.371  11.715  20.029  0.00  0.00    +0.000 C 
BRANCH  30  31
ATOM     31  C   UNL     1      -1.214  12.657  21.184  0.00  0.00    +0.000 A 
ATOM     32  C   UNL     1      -0.084  13.405  21.459  0.00  0.00    +0.000 A 
ATOM     33  N   UNL     1      -0.293  14.094  22.619  0.00  0.00    +0.000 N 
ATOM     34  C   UNL     1      -1.552  13.837  23.106  0.00  0.00    +0.000 A 
ATOM     35  C   UNL     1      -2.175  14.307  24.268  0.00  0.00    +0.000 A 
ATOM     36  C   UNL     1      -3.478  13.877  24.524  0.00  0.00    +0.000 A 
ATOM     37  C   UNL     1      -4.135  13.025  23.640  0.00  0.00    +0.000 A 
ATOM     38  C   UNL     1      -3.496  12.562  22.481  0.00  0.00    +0.000 A 
ATOM     39  C   UNL     1      -2.169  12.961  22.211  0.00  0.00    +0.000 A 
ATOM     40  H   UNL     1       0.379  14.700  23.068  0.00  0.00    +0.000 HD
ENDBRANCH  30  31
ENDBRANCH  26  30
ENDBRANCH  25  26
ENDBRANCH  24  25
ENDBRANCH   7  24
TORSDOF 8
ENDMDL
MODEL 6
REMARK VINA RESULT:      -8.6      2.343      3.224
REMARK  Name = 
REMARK  10 active torsions:
REMARK  status: ('A' for Active; 'I' for Inactive)
REMARK    1  A    between atoms: C_1  and  C_2
REMARK    2  A    between atoms: C_4  and  C_5
REMARK    3  A    between atoms: C_10  and  C_11
REMARK    4  A    between atoms: C_17  and  C_18
REMARK    5  A    between atoms: C_22  and  O_23
REMARK    6  A    between atoms: O_23  and  C_24
REMARK    7  A    between atoms: C_24  and  C_25
REMARK    8  A    between atoms: C_25  and  N_26
REMARK    9  A    between atoms: C_25  and  C_27
REMARK   10  A    between atoms: C_27  and  C_28
REMARK                            x       y       z     vdW  Elec       q    Type
REMARK                         _______ _______ _______ _____ _____    ______ ____
ROOT
ATOM      1  C   UNL     1      -0.315   8.627  21.874  0.00  0.00    +0.000 C 
ATOM      2  C   UNL     1       0.717   8.013  20.980  0.00  0.00    +0.000 A 
ATOM      3  N   UNL     1       0.860   6.674  21.156  0.00  0.00    +0.000 NA
ATOM      4  C   UNL     1       1.722   5.962  20.374  0.00  0.00    +0.000 A 
ATOM      5  C   UNL     1       2.496   6.557  19.360  0.00  0.00    +0.000 A 
ATOM      6  C   UNL     1       2.314   7.947  19.203  0.00  0.00    +0.000 A 
ATOM      7  C   UNL     1       1.452   8.696  20.015  0.00  0.00    +0.000 A 
ENDROOT
BRANCH   5   8
ATOM      8  C   UNL     1       3.482   5.839  18.525  0.00  0.00    +0.000 A 
ATOM      9  C   UNL     1       3.124   4.883  17.561  0.00  0.00    +0.000 A 
ATOM     10  N   UNL     1       3.994   4.173  16.785  0.00  0.00    +0.000 NA
ATOM     11  C   UNL     1       5.267   4.494  17.095  0.00  0.00    +0.000 A 
ATOM     12  N   UNL     1       6.421   3.978  16.579  0.00  0.00    +0.000 N 
ATOM     13  N   UNL     1       7.545   4.449  17.165  0.00  0.00    +0.000 NA
ATOM     14  C   UNL     1       7.085   5.338  18.069  0.00  0.00    +0.000 A 
ATOM     15  C   UNL     1       8.006   6.060  18.971  0.00  0.00    +0.000 C 
ATOM     16  C   UNL     1       5.669   5.424  18.036  0.00  0.00    +0.000 A 
ATOM     17  N   UNL     1       4.779   6.162  18.743  0.00  0.00    +0.000 NA
ATOM     18  H   UNL     1       6.502   3.291  15.840  0.00  0.00    +0.000 HD
ENDBRANCH   5   8
BRANCH   4  19
ATOM     19  C   UNL     1       1.740   4.544  20.714  0.00  0.00    +0.000 A 
ATOM     20  C   UNL     1       2.502   3.781  21.642  0.00  0.00    +0.000 A 
ATOM     21  C   UNL     1       2.012   2.496  21.598  0.00  0.00    +0.000 A 
ATOM     22  O   UNL     1       1.054   2.389  20.645  0.00  0.00    +0.000 OA
ATOM     23  C   UNL     1       0.907   3.626  20.102  0.00  0.00    +0.000 A 
ENDBRANCH   4  19
BRANCH   7  24
ATOM     24  O   UNL     1       1.419  10.024  19.693  0.00  0.00    +0.000 OA
BRANCH  24  25
ATOM     25  C   UNL     1       0.276  10.506  18.977  0.00  0.00    +0.000 C 
BRANCH  25  26
ATOM     26  C   UNL     1      -0.231  11.816  19.628  0.00  0.00    +0.000 C 
BRANCH  26  27
ATOM     27  N   UNL     1      -1.699  11.919  19.493  0.00  0.00    +0.000 NA
ATOM     28  H   UNL     1      -1.944  12.774  18.999  0.00  0.00    +0.000 HD
ATOM     29  H   UNL     1      -2.101  12.001  20.428  0.00  0.00    +0.000 HD
ENDBRANCH  26  27
BRANCH  26  30
ATOM     30  C   UNL     1       0.249  11.876  21.099  0.00  0.00    +0.000 C 
BRANCH  30  31
ATOM     31  C   UNL     1      -0.328  13.011  21.890  0.00  0.00    +0.000 A 
ATOM     32  C   UNL     1       0.204  14.286  21.967  0.00  0.00    +0.000 A 
ATOM     33  N   UNL     1      -0.561  15.023  22.824  0.00  0.00    +0.000 N 
ATOM     34  C   UNL     1      -1.607  14.268  23.300  0.00  0.00    +0.000 A 
ATOM     35  C   UNL     1      -2.615  14.609  24.208  0.00  0.00    +0.000 A 
ATOM     36  C   UNL     1      -3.564  13.633  24.520  0.00  0.00    +0.000 A 
ATOM     37  C   UNL     1      -3.512  12.373  23.928  0.00  0.00    +0.000 A 
ATOM     38  C   UNL     1      -2.494  12.047  23.021  0.00  0.00    +0.000 A 
ATOM     39  C   UNL     1      -1.507  13.007  22.708  0.00  0.00    +0.000 A 
ATOM     40  H   UNL     1      -0.385  15.982  23.086  0.00  0.00    +0.000 HD
ENDBRANCH  30  31
ENDBRANCH  26  30
ENDBRANCH  25  26
ENDBRANCH  24  25
ENDBRANCH   7  24
TORSDOF 8
ENDMDL
MODEL 7
REMARK VINA RESULT:      -8.5      2.375      4.075
REMARK  Name = 
REMARK  10 active torsions:
REMARK  status: ('A' for Active; 'I' for Inactive)
REMARK    1  A    between atoms: C_1  and  C_2
REMARK    2  A    between atoms: C_4  and  C_5
REMARK    3  A    between atoms: C_10  and  C_11
REMARK    4  A    between atoms: C_17  and  C_18
REMARK    5  A    between atoms: C_22  and  O_23
REMARK    6  A    between atoms: O_23  and  C_24
REMARK    7  A    between atoms: C_24  and  C_25
REMARK    8  A    between atoms: C_25  and  N_26
REMARK    9  A    between atoms: C_25  and  C_27
REMARK   10  A    between atoms: C_27  and  C_28
REMARK                            x       y       z     vdW  Elec       q    Type
REMARK                         _______ _______ _______ _____ _____    ______ ____
ROOT
ATOM      1  C   UNL     1      -0.339   8.621  21.870  0.00  0.00    +0.000 C 
ATOM      2  C   UNL     1       0.695   8.009  20.978  0.00  0.00    +0.000 A 
ATOM      3  N   UNL     1       0.877   6.680  21.191  0.00  0.00    +0.000 NA
ATOM      4  C   UNL     1       1.745   5.967  20.416  0.00  0.00    +0.000 A 
ATOM      5  C   UNL     1       2.487   6.552  19.372  0.00  0.00    +0.000 A 
ATOM      6  C   UNL     1       2.264   7.931  19.177  0.00  0.00    +0.000 A 
ATOM      7  C   UNL     1       1.396   8.681  19.981  0.00  0.00    +0.000 A 
ENDROOT
BRANCH   5   8
ATOM      8  C   UNL     1       3.478   5.836  18.542  0.00  0.00    +0.000 A 
ATOM      9  C   UNL     1       3.129   4.855  17.599  0.00  0.00    +0.000 A 
ATOM     10  N   UNL     1       4.005   4.146  16.830  0.00  0.00    +0.000 NA
ATOM     11  C   UNL     1       5.275   4.495  17.123  0.00  0.00    +0.000 A 
ATOM     12  N   UNL     1       6.433   3.989  16.607  0.00  0.00    +0.000 N 
ATOM     13  N   UNL     1       7.553   4.491  17.174  0.00  0.00    +0.000 NA
ATOM     14  C   UNL     1       7.085   5.389  18.065  0.00  0.00    +0.000 A 
ATOM     15  C   UNL     1       8.001   6.143  18.946  0.00  0.00    +0.000 C 
ATOM     16  C   UNL     1       5.669   5.449  18.043  0.00  0.00    +0.000 A 
ATOM     17  N   UNL     1       4.772   6.185  18.743  0.00  0.00    +0.000 NA
ATOM     18  H   UNL     1       6.521   3.290  15.880  0.00  0.00    +0.000 HD
ENDBRANCH   5   8
BRANCH   4  19
ATOM     19  C   UNL     1       1.807   4.561  20.797  0.00  0.00    +0.000 A 
ATOM     20  C   UNL     1       1.182   3.391  20.283  0.00  0.00    +0.000 A 
ATOM     21  C   UNL     1       1.700   2.324  20.981  0.00  0.00    +0.000 A 
ATOM     22  O   UNL     1       2.542   2.758  21.950  0.00  0.00    +0.000 OA
ATOM     23  C   UNL     1       2.589   4.112  21.845  0.00  0.00    +0.000 A 
ENDBRANCH   4  19
BRANCH   7  24
ATOM     24  O   UNL     1       1.322   9.998  19.620  0.00  0.00    +0.000 OA
BRANCH  24  25
ATOM     25  C   UNL     1       0.264  10.386  18.737  0.00  0.00    +0.000 C 
BRANCH  25  26
ATOM     26  C   UNL     1      -0.593  11.488  19.406  0.00  0.00    +0.000 C 
BRANCH  26  27
ATOM     27  N   UNL     1       0.003  11.885  20.699  0.00  0.00    +0.000 NA
ATOM     28  H   UNL     1       0.660  11.173  21.012  0.00  0.00    +0.000 HD
ATOM     29  H   UNL     1      -0.741  11.917  21.397  0.00  0.00    +0.000 HD
ENDBRANCH  26  27
BRANCH  26  30
ATOM     30  C   UNL     1      -0.759  12.675  18.425  0.00  0.00    +0.000 C 
BRANCH  30  31
ATOM     31  C   UNL     1      -0.023  13.916  18.829  0.00  0.00    +0.000 A 
ATOM     32  C   UNL     1      -0.595  15.033  19.411  0.00  0.00    +0.000 A 
ATOM     33  N   UNL     1       0.375  15.978  19.580  0.00  0.00    +0.000 N 
ATOM     34  C   UNL     1       1.587  15.501  19.143  0.00  0.00    +0.000 A 
ATOM     35  C   UNL     1       2.837  16.130  19.108  0.00  0.00    +0.000 A 
ATOM     36  C   UNL     1       3.916  15.402  18.604  0.00  0.00    +0.000 A 
ATOM     37  C   UNL     1       3.750  14.088  18.171  0.00  0.00    +0.000 A 
ATOM     38  C   UNL     1       2.491  13.473  18.212  0.00  0.00    +0.000 A 
ATOM     39  C   UNL     1       1.378  14.196  18.693  0.00  0.00    +0.000 A 
ATOM     40  H   UNL     1       0.230  16.902  19.960  0.00  0.00    +0.000 HD
ENDBRANCH  30  31
ENDBRANCH  26  30
ENDBRANCH  25  26
ENDBRANCH  24  25
ENDBRANCH   7  24
TORSDOF 8
ENDMDL
MODEL 8
REMARK VINA RESULT:      -8.5      2.625      4.001
REMARK  Name = 
REMARK  10 active torsions:
REMARK  status: ('A' for Active; 'I' for Inactive)
REMARK    1  A    between atoms: C_1  and  C_2
REMARK    2  A    between atoms: C_4  and  C_5
REMARK    3  A    between atoms: C_10  and  C_11
REMARK    4  A    between atoms: C_17  and  C_18
REMARK    5  A    between atoms: C_22  and  O_23
REMARK    6  A    between atoms: O_23  and  C_24
REMARK    7  A    between atoms: C_24  and  C_25
REMARK    8  A    between atoms: C_25  and  N_26
REMARK    9  A    between atoms: C_25  and  C_27
REMARK   10  A    between atoms: C_27  and  C_28
REMARK                            x       y       z     vdW  Elec       q    Type
REMARK                         _______ _______ _______ _____ _____    ______ ____
ROOT
ATOM      1  C   UNL     1      -0.306   8.805  21.744  0.00  0.00    +0.000 C 
ATOM      2  C   UNL     1       0.690   8.163  20.829  0.00  0.00    +0.000 A 
ATOM      3  N   UNL     1       0.884   6.842  21.079  0.00  0.00    +0.000 NA
ATOM      4  C   UNL     1       1.720   6.104  20.293  0.00  0.00    +0.000 A 
ATOM      5  C   UNL     1       2.415   6.654  19.199  0.00  0.00    +0.000 A 
ATOM      6  C   UNL     1       2.182   8.025  18.967  0.00  0.00    +0.000 A 
ATOM      7  C   UNL     1       1.347   8.801  19.781  0.00  0.00    +0.000 A 
ENDROOT
BRANCH   5   8
ATOM      8  C   UNL     1       3.371   5.910  18.352  0.00  0.00    +0.000 A 
ATOM      9  C   UNL     1       3.023   4.762  17.622  0.00  0.00    +0.000 A 
ATOM     10  N   UNL     1       3.873   4.025  16.849  0.00  0.00    +0.000 NA
ATOM     11  C   UNL     1       5.121   4.534  16.908  0.00  0.00    +0.000 A 
ATOM     12  N   UNL     1       6.257   4.063  16.314  0.00  0.00    +0.000 N 
ATOM     13  N   UNL     1       7.373   4.754  16.639  0.00  0.00    +0.000 NA
ATOM     14  C   UNL     1       6.919   5.734  17.445  0.00  0.00    +0.000 A 
ATOM     15  C   UNL     1       7.844   6.704  18.069  0.00  0.00    +0.000 C 
ATOM     16  C   UNL     1       5.513   5.657  17.614  0.00  0.00    +0.000 A 
ATOM     17  N   UNL     1       4.631   6.407  18.317  0.00  0.00    +0.000 NA
ATOM     18  H   UNL     1       6.333   3.269  15.693  0.00  0.00    +0.000 HD
ENDBRANCH   5   8
BRANCH   4  19
ATOM     19  C   UNL     1       1.801   4.712  20.719  0.00  0.00    +0.000 A 
ATOM     20  C   UNL     1       2.730   4.001  21.529  0.00  0.00    +0.000 A 
ATOM     21  C   UNL     1       2.237   2.724  21.671  0.00  0.00    +0.000 A 
ATOM     22  O   UNL     1       1.109   2.569  20.935  0.00  0.00    +0.000 OA
ATOM     23  C   UNL     1       0.860   3.769  20.349  0.00  0.00    +0.000 A 
ENDBRANCH   4  19
BRANCH   7  24
ATOM     24  O   UNL     1       1.254  10.105  19.379  0.00  0.00    +0.000 OA
BRANCH  24  25
ATOM     25  C   UNL     1       0.094  10.490  18.634  0.00  0.00    +0.000 C 
BRANCH  25  26
ATOM     26  C   UNL     1       0.170  11.999  18.297  0.00  0.00    +0.000 C 
BRANCH  26  27
ATOM     27  N   UNL     1      -1.113  12.460  17.724  0.00  0.00    +0.000 NA
ATOM     28  H   UNL     1      -0.978  13.342  17.235  0.00  0.00    +0.000 HD
ATOM     29  H   UNL     1      -1.756  12.652  18.492  0.00  0.00    +0.000 HD
ENDBRANCH  26  27
BRANCH  26  30
ATOM     30  C   UNL     1       0.585  12.786  19.564  0.00  0.00    +0.000 C 
BRANCH  30  31
ATOM     31  C   UNL     1       1.384  14.024  19.287  0.00  0.00    +0.000 A 
ATOM     32  C   UNL     1       2.760  14.126  19.376  0.00  0.00    +0.000 A 
ATOM     33  N   UNL     1       3.117  15.416  19.108  0.00  0.00    +0.000 N 
ATOM     34  C   UNL     1       2.004  16.169  18.819  0.00  0.00    +0.000 A 
ATOM     35  C   UNL     1       1.900  17.529  18.510  0.00  0.00    +0.000 A 
ATOM     36  C   UNL     1       0.626  18.041  18.258  0.00  0.00    +0.000 A 
ATOM     37  C   UNL     1      -0.495  17.215  18.295  0.00  0.00    +0.000 A 
ATOM     38  C   UNL     1      -0.373  15.854  18.607  0.00  0.00    +0.000 A 
ATOM     39  C   UNL     1       0.900  15.316  18.892  0.00  0.00    +0.000 A 
ATOM     40  H   UNL     1       4.060  15.777  19.129  0.00  0.00    +0.000 HD
ENDBRANCH  30  31
ENDBRANCH  26  30
ENDBRANCH  25  26
ENDBRANCH  24  25
ENDBRANCH   7  24
TORSDOF 8
ENDMDL
MODEL 9
REMARK VINA RESULT:      -8.4      1.035      1.700
REMARK  Name = 
REMARK  10 active torsions:
REMARK  status: ('A' for Active; 'I' for Inactive)
REMARK    1  A    between atoms: C_1  and  C_2
REMARK    2  A    between atoms: C_4  and  C_5
REMARK    3  A    between atoms: C_10  and  C_11
REMARK    4  A    between atoms: C_17  and  C_18
REMARK    5  A    between atoms: C_22  and  O_23
REMARK    6  A    between atoms: O_23  and  C_24
REMARK    7  A    between atoms: C_24  and  C_25
REMARK    8  A    between atoms: C_25  and  N_26
REMARK    9  A    between atoms: C_25  and  C_27
REMARK   10  A    between atoms: C_27  and  C_28
REMARK                            x       y       z     vdW  Elec       q    Type
REMARK                         _______ _______ _______ _____ _____    ______ ____
ROOT
ATOM      1  C   UNL     1      -0.119   8.655  21.972  0.00  0.00    +0.000 C 
ATOM      2  C   UNL     1       0.839   8.014  21.016  0.00  0.00    +0.000 A 
ATOM      3  N   UNL     1       0.964   6.673  21.190  0.00  0.00    +0.000 NA
ATOM      4  C   UNL     1       1.757   5.937  20.359  0.00  0.00    +0.000 A 
ATOM      5  C   UNL     1       2.477   6.511  19.293  0.00  0.00    +0.000 A 
ATOM      6  C   UNL     1       2.316   7.904  19.141  0.00  0.00    +0.000 A 
ATOM      7  C   UNL     1       1.526   8.676  20.002  0.00  0.00    +0.000 A 
ENDROOT
BRANCH   5   8
ATOM      8  C   UNL     1       3.390   5.767  18.400  0.00  0.00    +0.000 A 
ATOM      9  C   UNL     1       3.028   4.580  17.743  0.00  0.00    +0.000 A 
ATOM     10  N   UNL     1       3.840   3.842  16.932  0.00  0.00    +0.000 NA
ATOM     11  C   UNL     1       5.069   4.395  16.871  0.00  0.00    +0.000 A 
ATOM     12  N   UNL     1       6.171   3.939  16.205  0.00  0.00    +0.000 N 
ATOM     13  N   UNL     1       7.284   4.679  16.414  0.00  0.00    +0.000 NA
ATOM     14  C   UNL     1       6.859   5.675  17.218  0.00  0.00    +0.000 A 
ATOM     15  C   UNL     1       7.794   6.699  17.730  0.00  0.00    +0.000 C 
ATOM     16  C   UNL     1       5.475   5.557  17.502  0.00  0.00    +0.000 A 
ATOM     17  N   UNL     1       4.624   6.304  18.246  0.00  0.00    +0.000 NA
ATOM     18  H   UNL     1       6.227   3.124  15.610  0.00  0.00    +0.000 HD
ENDBRANCH   5   8
BRANCH   4  19
ATOM     19  C   UNL     1       1.765   4.521  20.705  0.00  0.00    +0.000 A 
ATOM     20  C   UNL     1       2.575   3.743  21.578  0.00  0.00    +0.000 A 
ATOM     21  C   UNL     1       2.052   2.471  21.579  0.00  0.00    +0.000 A 
ATOM     22  O   UNL     1       1.022   2.384  20.701  0.00  0.00    +0.000 OA
ATOM     23  C   UNL     1       0.865   3.622  20.163  0.00  0.00    +0.000 A 
ENDBRANCH   4  19
BRANCH   7  24
ATOM     24  O   UNL     1       1.502  10.003  19.675  0.00  0.00    +0.000 OA
BRANCH  24  25
ATOM     25  C   UNL     1       0.232  10.588  19.367  0.00  0.00    +0.000 C 
BRANCH  25  26
ATOM     26  C   UNL     1      -0.140  11.625  20.454  0.00  0.00    +0.000 C 
BRANCH  26  27
ATOM     27  N   UNL     1       1.071  12.059  21.183  0.00  0.00    +0.000 NA
ATOM     28  H   UNL     1       1.449  12.903  20.758  0.00  0.00    +0.000 HD
ATOM     29  H   UNL     1       1.785  11.338  21.073  0.00  0.00    +0.000 HD
ENDBRANCH  26  27
BRANCH  26  30
ATOM     30  C   UNL     1      -0.908  12.800  19.801  0.00  0.00    +0.000 C 
BRANCH  30  31
ATOM     31  C   UNL     1      -2.316  12.472  19.405  0.00  0.00    +0.000 A 
ATOM     32  C   UNL     1      -3.437  12.677  20.189  0.00  0.00    +0.000 A 
ATOM     33  N   UNL     1      -4.527  12.203  19.518  0.00  0.00    +0.000 N 
ATOM     34  C   UNL     1      -4.155  11.709  18.291  0.00  0.00    +0.000 A 
ATOM     35  C   UNL     1      -4.933  11.113  17.293  0.00  0.00    +0.000 A 
ATOM     36  C   UNL     1      -4.285  10.695  16.129  0.00  0.00    +0.000 A 
ATOM     37  C   UNL     1      -2.915  10.885  15.967  0.00  0.00    +0.000 A 
ATOM     38  C   UNL     1      -2.149  11.482  16.978  0.00  0.00    +0.000 A 
ATOM     39  C   UNL     1      -2.774  11.891  18.175  0.00  0.00    +0.000 A 
ATOM     40  H   UNL     1      -5.474  12.202  19.870  0.00  0.00    +0.000 HD
ENDBRANCH  30  31
ENDBRANCH  26  30
ENDBRANCH  25  26
ENDBRANCH  24  25
ENDBRANCH   7  24
TORSDOF 8
ENDMDL
