MODEL 1
REMARK VINA RESULT:      -8.5      0.000      0.000
REMARK  Name = 
REMARK  5 active torsions:
REMARK  status: ('A' for Active; 'I' for Inactive)
REMARK    1  A    between atoms: C_1  and  C_2
REMARK    2  A    between atoms: C_2  and  C_4
REMARK    3  A    between atoms: C_8  and  N_9
REMARK    4  A    between atoms: C_17  and  C_18
REMARK    5  A    between atoms: C_18  and  N_19
REMARK                            x       y       z     vdW  Elec       q    Type
REMARK                         _______ _______ _______ _____ _____    ______ ____
ROOT
ATOM      1  N   UNL     1       2.929   6.692  18.678  0.00  0.00    +0.000 N 
ATOM      2  C   UNL     1       2.490   5.516  18.093  0.00  0.00    +0.000 C 
ATOM      3  O   UNL     1       1.362   5.350  17.643  0.00  0.00    +0.000 OA
ATOM      4  N   UNL     1       3.449   4.513  18.000  0.00  0.00    +0.000 N 
ATOM      5  C   UNL     1       3.097   3.305  17.241  0.00  0.00    +0.000 C 
ATOM      6  C   UNL     1       2.901   2.090  18.148  0.00  0.00    +0.000 C 
ATOM      7  C   UNL     1       4.062   1.907  19.125  0.00  0.00    +0.000 C 
ATOM      8  C   UNL     1       4.339   3.209  19.871  0.00  0.00    +0.000 C 
ATOM      9  C   UNL     1       4.614   4.374  18.902  0.00  0.00    +0.000 C 
ATOM     10  H   UNL     1       3.927   6.839  18.704  0.00  0.00    +0.000 HD
ENDROOT
BRANCH   1  15
ATOM     11  C   UNL     1       1.047   9.261  20.602  0.00  0.00    +0.000 A 
ATOM     12  C   UNL     1       0.578  10.087  19.578  0.00  0.00    +0.000 A 
ATOM     13  C   UNL     1       0.865   9.784  18.253  0.00  0.00    +0.000 A 
ATOM     14  C   UNL     1       1.629   8.659  17.941  0.00  0.00    +0.000 A 
ATOM     15  C   UNL     1       2.130   7.829  18.951  0.00  0.00    +0.000 A 
ATOM     16  C   UNL     1       1.817   8.125  20.282  0.00  0.00    +0.000 A 
BRANCH  11  18
ATOM     17  C   UNL     1      -0.602  10.135  22.386  0.00  0.00    +0.000 C 
ATOM     18  C   UNL     1       0.750   9.565  22.035  0.00  0.00    +0.000 C 
ATOM     19  O   UNL     1       1.597   9.348  22.898  0.00  0.00    +0.000 OA
ENDBRANCH  11  18
ENDBRANCH   1  15
BRANCH   9  20
ATOM     20  C   UNL     1       5.931   4.210  18.105  0.00  0.00    +0.000 C 
BRANCH  20  21
ATOM     21  N   UNL     1       6.697   5.437  17.997  0.00  0.00    +0.000 N 
ATOM     22  C   UNL     1       6.300   6.528  17.144  0.00  0.00    +0.000 C 
ATOM     23  C   UNL     1       7.504   7.447  17.192  0.00  0.00    +0.000 C 
ATOM     24  C   UNL     1       8.062   7.231  18.594  0.00  0.00    +0.000 C 
ATOM     25  C   UNL     1       7.732   5.782  18.853  0.00  0.00    +0.000 C 
ATOM     26  O   UNL     1       8.245   5.065  19.695  0.00  0.00    +0.000 OA
ENDBRANCH  20  21
ENDBRANCH   9  20
TORSDOF 4
ENDMDL
MODEL 2
REMARK VINA RESULT:      -8.3      0.934      1.225
REMARK  Name = 
REMARK  5 active torsions:
REMARK  status: ('A' for Active; 'I' for Inactive)
REMARK    1  A    between atoms: C_1  and  C_2
REMARK    2  A    between atoms: C_2  and  C_4
REMARK    3  A    between atoms: C_8  and  N_9
REMARK    4  A    between atoms: C_17  and  C_18
REMARK    5  A    between atoms: C_18  and  N_19
REMARK                            x       y       z     vdW  Elec       q    Type
REMARK                         _______ _______ _______ _____ _____    ______ ____
ROOT
ATOM      1  N   UNL     1       2.857   6.746  18.716  0.00  0.00    +0.000 N 
ATOM      2  C   UNL     1       2.414   5.594  18.087  0.00  0.00    +0.000 C 
ATOM      3  O   UNL     1       1.286   5.447  17.633  0.00  0.00    +0.000 OA
ATOM      4  N   UNL     1       3.372   4.593  17.954  0.00  0.00    +0.000 N 
ATOM      5  C   UNL     1       3.017   3.416  17.150  0.00  0.00    +0.000 C 
ATOM      6  C   UNL     1       2.819   2.167  18.010  0.00  0.00    +0.000 C 
ATOM      7  C   UNL     1       3.981   1.945  18.978  0.00  0.00    +0.000 C 
ATOM      8  C   UNL     1       4.262   3.217  19.773  0.00  0.00    +0.000 C 
ATOM      9  C   UNL     1       4.538   4.418  18.849  0.00  0.00    +0.000 C 
ATOM     10  H   UNL     1       3.856   6.889  18.746  0.00  0.00    +0.000 HD
ENDROOT
BRANCH   1  15
ATOM     11  C   UNL     1       0.996   9.252  20.740  0.00  0.00    +0.000 A 
ATOM     12  C   UNL     1       0.514  10.109  19.748  0.00  0.00    +0.000 A 
ATOM     13  C   UNL     1       0.786   9.847  18.411  0.00  0.00    +0.000 A 
ATOM     14  C   UNL     1       1.547   8.733  18.056  0.00  0.00    +0.000 A 
ATOM     15  C   UNL     1       2.061   7.873  19.033  0.00  0.00    +0.000 A 
ATOM     16  C   UNL     1       1.763   8.128  20.377  0.00  0.00    +0.000 A 
BRANCH  11  18
ATOM     17  C   UNL     1      -0.682   9.912  22.588  0.00  0.00    +0.000 C 
ATOM     18  C   UNL     1       0.715   9.511  22.185  0.00  0.00    +0.000 C 
ATOM     19  O   UNL     1       1.612   9.394  23.016  0.00  0.00    +0.000 OA
ENDBRANCH  11  18
ENDBRANCH   1  15
BRANCH   9  20
ATOM     20  C   UNL     1       5.853   4.281  18.044  0.00  0.00    +0.000 C 
BRANCH  20  21
ATOM     21  N   UNL     1       6.641   5.499  18.016  0.00  0.00    +0.000 N 
ATOM     22  C   UNL     1       7.816   5.684  18.829  0.00  0.00    +0.000 C 
ATOM     23  C   UNL     1       8.134   7.153  18.630  0.00  0.00    +0.000 C 
ATOM     24  C   UNL     1       7.669   7.429  17.204  0.00  0.00    +0.000 C 
ATOM     25  C   UNL     1       6.493   6.495  17.062  0.00  0.00    +0.000 C 
ATOM     26  O   UNL     1       5.607   6.574  16.228  0.00  0.00    +0.000 OA
ENDBRANCH  20  21
ENDBRANCH   9  20
TORSDOF 4
ENDMDL
MODEL 3
REMARK VINA RESULT:      -8.0      3.471      7.466
REMARK  Name = 
REMARK  5 active torsions:
REMARK  status: ('A' for Active; 'I' for Inactive)
REMARK    1  A    between atoms: C_1  and  C_2
REMARK    2  A    between atoms: C_2  and  C_4
REMARK    3  A    between atoms: C_8  and  N_9
REMARK    4  A    between atoms: C_17  and  C_18
REMARK    5  A    between atoms: C_18  and  N_19
REMARK                            x       y       z     vdW  Elec       q    Type
REMARK                         _______ _______ _______ _____ _____    ______ ____
ROOT
ATOM      1  N   UNL     1       4.892   4.768  16.181  0.00  0.00    +0.000 N 
ATOM      2  C   UNL     1       4.645   3.789  17.129  0.00  0.00    +0.000 C 
ATOM      3  O   UNL     1       5.121   2.661  17.096  0.00  0.00    +0.000 OA
ATOM      4  N   UNL     1       3.832   4.189  18.186  0.00  0.00    +0.000 N 
ATOM      5  C   UNL     1       3.669   3.254  19.308  0.00  0.00    +0.000 C 
ATOM      6  C   UNL     1       2.266   2.647  19.355  0.00  0.00    +0.000 C 
ATOM      7  C   UNL     1       1.175   3.712  19.255  0.00  0.00    +0.000 C 
ATOM      8  C   UNL     1       1.426   4.621  18.054  0.00  0.00    +0.000 C 
ATOM      9  C   UNL     1       2.823   5.268  18.112  0.00  0.00    +0.000 C 
ATOM     10  H   UNL     1       4.738   5.724  16.467  0.00  0.00    +0.000 HD
ENDROOT
BRANCH   1  15
ATOM     11  C   UNL     1       5.761   3.609  12.754  0.00  0.00    +0.000 A 
ATOM     12  C   UNL     1       7.003   4.218  12.561  0.00  0.00    +0.000 A 
ATOM     13  C   UNL     1       7.562   4.992  13.570  0.00  0.00    +0.000 A 
ATOM     14  C   UNL     1       6.883   5.171  14.775  0.00  0.00    +0.000 A 
ATOM     15  C   UNL     1       5.626   4.591  14.983  0.00  0.00    +0.000 A 
ATOM     16  C   UNL     1       5.078   3.792  13.973  0.00  0.00    +0.000 A 
BRANCH  11  18
ATOM     17  C   UNL     1       3.868   3.256  11.035  0.00  0.00    +0.000 C 
ATOM     18  C   UNL     1       5.139   2.770  11.685  0.00  0.00    +0.000 C 
ATOM     19  O   UNL     1       5.665   1.711  11.350  0.00  0.00    +0.000 OA
ENDBRANCH  11  18
ENDBRANCH   1  15
BRANCH   9  20
ATOM     20  C   UNL     1       2.983   6.275  19.277  0.00  0.00    +0.000 C 
BRANCH  20  21
ATOM     21  N   UNL     1       2.429   7.584  18.989  0.00  0.00    +0.000 N 
ATOM     22  C   UNL     1       2.438   8.158  17.668  0.00  0.00    +0.000 C 
ATOM     23  C   UNL     1       1.982   9.581  17.917  0.00  0.00    +0.000 C 
ATOM     24  C   UNL     1       1.034   9.450  19.104  0.00  0.00    +0.000 C 
ATOM     25  C   UNL     1       1.640   8.304  19.875  0.00  0.00    +0.000 C 
ATOM     26  O   UNL     1       1.432   8.031  21.044  0.00  0.00    +0.000 OA
ENDBRANCH  20  21
ENDBRANCH   9  20
TORSDOF 4
ENDMDL
MODEL 4
REMARK VINA RESULT:      -7.9      1.728      4.025
REMARK  Name = 
REMARK  5 active torsions:
REMARK  status: ('A' for Active; 'I' for Inactive)
REMARK    1  A    between atoms: C_1  and  C_2
REMARK    2  A    between atoms: C_2  and  C_4
REMARK    3  A    between atoms: C_8  and  N_9
REMARK    4  A    between atoms: C_17  and  C_18
REMARK    5  A    between atoms: C_18  and  N_19
REMARK                            x       y       z     vdW  Elec       q    Type
REMARK                         _______ _______ _______ _____ _____    ______ ____
ROOT
ATOM      1  N   UNL     1       2.931   6.324  18.466  0.00  0.00    +0.000 N 
ATOM      2  C   UNL     1       4.299   6.164  18.328  0.00  0.00    +0.000 C 
ATOM      3  O   UNL     1       5.123   7.041  18.563  0.00  0.00    +0.000 OA
ATOM      4  N   UNL     1       4.705   4.892  17.936  0.00  0.00    +0.000 N 
ATOM      5  C   UNL     1       6.147   4.609  17.934  0.00  0.00    +0.000 C 
ATOM      6  C   UNL     1       6.708   4.480  16.518  0.00  0.00    +0.000 C 
ATOM      7  C   UNL     1       5.877   3.533  15.653  0.00  0.00    +0.000 C 
ATOM      8  C   UNL     1       4.400   3.918  15.711  0.00  0.00    +0.000 C 
ATOM      9  C   UNL     1       3.875   3.944  17.159  0.00  0.00    +0.000 C 
ATOM     10  H   UNL     1       2.386   5.481  18.575  0.00  0.00    +0.000 HD
ENDROOT
BRANCH   1  15
ATOM     11  C   UNL     1       1.267   8.973  20.481  0.00  0.00    +0.000 A 
ATOM     12  C   UNL     1       0.979   9.927  19.502  0.00  0.00    +0.000 A 
ATOM     13  C   UNL     1       1.314   9.686  18.175  0.00  0.00    +0.000 A 
ATOM     14  C   UNL     1       1.946   8.495  17.818  0.00  0.00    +0.000 A 
ATOM     15  C   UNL     1       2.268   7.534  18.784  0.00  0.00    +0.000 A 
ATOM     16  C   UNL     1       1.906   7.772  20.115  0.00  0.00    +0.000 A 
BRANCH  11  18
ATOM     17  C   UNL     1      -0.528   9.080  22.333  0.00  0.00    +0.000 C 
ATOM     18  C   UNL     1       0.916   9.208  21.914  0.00  0.00    +0.000 C 
ATOM     19  O   UNL     1       1.793   9.497  22.724  0.00  0.00    +0.000 OA
ENDBRANCH  11  18
ENDBRANCH   1  15
BRANCH   9  20
ATOM     20  C   UNL     1       3.838   2.547  17.823  0.00  0.00    +0.000 C 
BRANCH  20  21
ATOM     21  N   UNL     1       3.103   2.522  19.074  0.00  0.00    +0.000 N 
ATOM     22  C   UNL     1       3.742   2.685  20.355  0.00  0.00    +0.000 C 
ATOM     23  C   UNL     1       2.629   2.354  21.329  0.00  0.00    +0.000 C 
ATOM     24  C   UNL     1       1.371   2.822  20.607  0.00  0.00    +0.000 C 
ATOM     25  C   UNL     1       1.719   2.576  19.160  0.00  0.00    +0.000 C 
ATOM     26  O   UNL     1       0.933   2.494  18.233  0.00  0.00    +0.000 OA
ENDBRANCH  20  21
ENDBRANCH   9  20
TORSDOF 4
ENDMDL
MODEL 5
REMARK VINA RESULT:      -7.7      1.351      1.566
REMARK  Name = 
REMARK  5 active torsions:
REMARK  status: ('A' for Active; 'I' for Inactive)
REMARK    1  A    between atoms: C_1  and  C_2
REMARK    2  A    between atoms: C_2  and  C_4
REMARK    3  A    between atoms: C_8  and  N_9
REMARK    4  A    between atoms: C_17  and  C_18
REMARK    5  A    between atoms: C_18  and  N_19
REMARK                            x       y       z     vdW  Elec       q    Type
REMARK                         _______ _______ _______ _____ _____    ______ ____
ROOT
ATOM      1  N   UNL     1       2.745   6.652  18.891  0.00  0.00    +0.000 N 
ATOM      2  C   UNL     1       2.214   5.570  18.211  0.00  0.00    +0.000 C 
ATOM      3  O   UNL     1       1.218   5.624  17.500  0.00  0.00    +0.000 OA
ATOM      4  N   UNL     1       2.928   4.383  18.347  0.00  0.00    +0.000 N 
ATOM      5  C   UNL     1       2.514   3.242  17.519  0.00  0.00    +0.000 C 
ATOM      6  C   UNL     1       1.849   2.140  18.344  0.00  0.00    +0.000 C 
ATOM      7  C   UNL     1       2.676   1.762  19.572  0.00  0.00    +0.000 C 
ATOM      8  C   UNL     1       3.043   3.010  20.371  0.00  0.00    +0.000 C 
ATOM      9  C   UNL     1       3.786   4.044  19.504  0.00  0.00    +0.000 C 
ATOM     10  H   UNL     1       3.716   6.586  19.160  0.00  0.00    +0.000 HD
ENDROOT
BRANCH   1  15
ATOM     11  C   UNL     1       0.984   9.616  20.291  0.00  0.00    +0.000 A 
ATOM     12  C   UNL     1       1.034  10.504  19.214  0.00  0.00    +0.000 A 
ATOM     13  C   UNL     1       1.630  10.116  18.020  0.00  0.00    +0.000 A 
ATOM     14  C   UNL     1       2.186   8.842  17.896  0.00  0.00    +0.000 A 
ATOM     15  C   UNL     1       2.170   7.943  18.968  0.00  0.00    +0.000 A 
ATOM     16  C   UNL     1       1.547   8.330  20.161  0.00  0.00    +0.000 A 
BRANCH  11  18
ATOM     17  C   UNL     1      -0.411   8.961  22.362  0.00  0.00    +0.000 C 
ATOM     18  C   UNL     1       0.347  10.008  21.585  0.00  0.00    +0.000 C 
ATOM     19  O   UNL     1       0.449  11.161  21.996  0.00  0.00    +0.000 OA
ENDBRANCH  11  18
ENDBRANCH   1  15
BRANCH   9  20
ATOM     20  C   UNL     1       5.187   3.567  19.050  0.00  0.00    +0.000 C 
BRANCH  20  21
ATOM     21  N   UNL     1       5.943   4.587  18.348  0.00  0.00    +0.000 N 
ATOM     22  C   UNL     1       6.734   5.578  19.032  0.00  0.00    +0.000 C 
ATOM     23  C   UNL     1       7.120   6.528  17.917  0.00  0.00    +0.000 C 
ATOM     24  C   UNL     1       7.223   5.622  16.695  0.00  0.00    +0.000 C 
ATOM     25  C   UNL     1       6.173   4.577  16.980  0.00  0.00    +0.000 C 
ATOM     26  O   UNL     1       5.662   3.828  16.165  0.00  0.00    +0.000 OA
ENDBRANCH  20  21
ENDBRANCH   9  20
TORSDOF 4
ENDMDL
MODEL 6
REMARK VINA RESULT:      -7.7      1.578      2.340
REMARK  Name = 
REMARK  5 active torsions:
REMARK  status: ('A' for Active; 'I' for Inactive)
REMARK    1  A    between atoms: C_1  and  C_2
REMARK    2  A    between atoms: C_2  and  C_4
REMARK    3  A    between atoms: C_8  and  N_9
REMARK    4  A    between atoms: C_17  and  C_18
REMARK    5  A    between atoms: C_18  and  N_19
REMARK                            x       y       z     vdW  Elec       q    Type
REMARK                         _______ _______ _______ _____ _____    ______ ____
ROOT
ATOM      1  N   UNL     1       2.821   6.477  19.191  0.00  0.00    +0.000 N 
ATOM      2  C   UNL     1       2.330   5.428  18.431  0.00  0.00    +0.000 C 
ATOM      3  O   UNL     1       1.167   5.335  18.056  0.00  0.00    +0.000 OA
ATOM      4  N   UNL     1       3.275   4.475  18.065  0.00  0.00    +0.000 N 
ATOM      5  C   UNL     1       2.856   3.430  17.122  0.00  0.00    +0.000 C 
ATOM      6  C   UNL     1       2.736   2.061  17.793  0.00  0.00    +0.000 C 
ATOM      7  C   UNL     1       3.977   1.711  18.614  0.00  0.00    +0.000 C 
ATOM      8  C   UNL     1       4.321   2.851  19.569  0.00  0.00    +0.000 C 
ATOM      9  C   UNL     1       4.514   4.183  18.821  0.00  0.00    +0.000 C 
ATOM     10  H   UNL     1       3.818   6.630  19.158  0.00  0.00    +0.000 HD
ENDROOT
BRANCH   1  15
ATOM     11  C   UNL     1       1.095   9.759  19.490  0.00  0.00    +0.000 A 
ATOM     12  C   UNL     1       0.510   9.652  20.754  0.00  0.00    +0.000 A 
ATOM     13  C   UNL     1       0.703   8.505  21.515  0.00  0.00    +0.000 A 
ATOM     14  C   UNL     1       1.475   7.455  21.016  0.00  0.00    +0.000 A 
ATOM     15  C   UNL     1       2.052   7.529  19.743  0.00  0.00    +0.000 A 
ATOM     16  C   UNL     1       1.874   8.697  18.991  0.00  0.00    +0.000 A 
BRANCH  11  18
ATOM     17  C   UNL     1       2.121  11.767  18.234  0.00  0.00    +0.000 C 
ATOM     18  C   UNL     1       0.903  10.983  18.654  0.00  0.00    +0.000 C 
ATOM     19  O   UNL     1      -0.227  11.329  18.321  0.00  0.00    +0.000 OA
ENDBRANCH  11  18
ENDBRANCH   1  15
BRANCH   9  20
ATOM     20  C   UNL     1       5.756   4.193  17.897  0.00  0.00    +0.000 C 
BRANCH  20  21
ATOM     21  N   UNL     1       6.528   5.418  17.983  0.00  0.00    +0.000 N 
ATOM     22  C   UNL     1       7.784   5.498  18.684  0.00  0.00    +0.000 C 
ATOM     23  C   UNL     1       8.069   6.986  18.693  0.00  0.00    +0.000 C 
ATOM     24  C   UNL     1       7.451   7.476  17.388  0.00  0.00    +0.000 C 
ATOM     25  C   UNL     1       6.271   6.550  17.223  0.00  0.00    +0.000 C 
ATOM     26  O   UNL     1       5.299   6.740  16.513  0.00  0.00    +0.000 OA
ENDBRANCH  20  21
ENDBRANCH   9  20
TORSDOF 4
ENDMDL
MODEL 7
REMARK VINA RESULT:      -7.7      1.332      1.702
REMARK  Name = 
REMARK  5 active torsions:
REMARK  status: ('A' for Active; 'I' for Inactive)
REMARK    1  A    between atoms: C_1  and  C_2
REMARK    2  A    between atoms: C_2  and  C_4
REMARK    3  A    between atoms: C_8  and  N_9
REMARK    4  A    between atoms: C_17  and  C_18
REMARK    5  A    between atoms: C_18  and  N_19
REMARK                            x       y       z     vdW  Elec       q    Type
REMARK                         _______ _______ _______ _____ _____    ______ ____
ROOT
ATOM      1  N   UNL     1       2.984   6.430  18.645  0.00  0.00    +0.000 N 
ATOM      2  C   UNL     1       2.476   5.250  18.129  0.00  0.00    +0.000 C 
ATOM      3  O   UNL     1       1.319   5.104  17.754  0.00  0.00    +0.000 OA
ATOM      4  N   UNL     1       3.399   4.215  18.012  0.00  0.00    +0.000 N 
ATOM      5  C   UNL     1       2.967   2.995  17.318  0.00  0.00    +0.000 C 
ATOM      6  C   UNL     1       2.792   1.816  18.277  0.00  0.00    +0.000 C 
ATOM      7  C   UNL     1       4.005   1.630  19.188  0.00  0.00    +0.000 C 
ATOM      8  C   UNL     1       4.365   2.947  19.871  0.00  0.00    +0.000 C 
ATOM      9  C   UNL     1       4.613   4.070  18.846  0.00  0.00    +0.000 C 
ATOM     10  H   UNL     1       3.986   6.547  18.605  0.00  0.00    +0.000 HD
ENDROOT
BRANCH   1  15
ATOM     11  C   UNL     1       1.155   9.027  20.582  0.00  0.00    +0.000 A 
ATOM     12  C   UNL     1       0.782   9.917  19.571  0.00  0.00    +0.000 A 
ATOM     13  C   UNL     1       1.116   9.648  18.250  0.00  0.00    +0.000 A 
ATOM     14  C   UNL     1       1.830   8.493  17.929  0.00  0.00    +0.000 A 
ATOM     15  C   UNL     1       2.237   7.599  18.926  0.00  0.00    +0.000 A 
ATOM     16  C   UNL     1       1.876   7.863  20.252  0.00  0.00    +0.000 A 
BRANCH  11  18
ATOM     17  C   UNL     1      -0.626   9.114  22.448  0.00  0.00    +0.000 C 
ATOM     18  C   UNL     1       0.806   9.293  22.010  0.00  0.00    +0.000 C 
ATOM     19  O   UNL     1       1.677   9.647  22.801  0.00  0.00    +0.000 OA
ENDBRANCH  11  18
ENDBRANCH   1  15
BRANCH   9  20
ATOM     20  C   UNL     1       5.873   3.840  17.977  0.00  0.00    +0.000 C 
BRANCH  20  21
ATOM     21  N   UNL     1       5.854   4.575  16.727  0.00  0.00    +0.000 N 
ATOM     22  C   UNL     1       5.706   3.930  15.448  0.00  0.00    +0.000 C 
ATOM     23  C   UNL     1       5.980   5.056  14.471  0.00  0.00    +0.000 C 
ATOM     24  C   UNL     1       5.465   6.293  15.198  0.00  0.00    +0.000 C 
ATOM     25  C   UNL     1       5.740   5.955  16.642  0.00  0.00    +0.000 C 
ATOM     26  O   UNL     1       5.798   6.745  17.569  0.00  0.00    +0.000 OA
ENDBRANCH  20  21
ENDBRANCH   9  20
TORSDOF 4
ENDMDL
MODEL 8
REMARK VINA RESULT:      -7.7      1.894      3.720
REMARK  Name = 
REMARK  5 active torsions:
REMARK  status: ('A' for Active; 'I' for Inactive)
REMARK    1  A    between atoms: C_1  and  C_2
REMARK    2  A    between atoms: C_2  and  C_4
REMARK    3  A    between atoms: C_8  and  N_9
REMARK    4  A    between atoms: C_17  and  C_18
REMARK    5  A    between atoms: C_18  and  N_19
REMARK                            x       y       z     vdW  Elec       q    Type
REMARK                         _______ _______ _______ _____ _____    ______ ____
ROOT
ATOM      1  N   UNL     1       3.051   6.471  18.258  0.00  0.00    +0.000 N 
ATOM      2  C   UNL     1       4.419   6.290  18.146  0.00  0.00    +0.000 C 
ATOM      3  O   UNL     1       5.250   7.163  18.364  0.00  0.00    +0.000 OA
ATOM      4  N   UNL     1       4.814   5.000  17.803  0.00  0.00    +0.000 N 
ATOM      5  C   UNL     1       6.252   4.700  17.832  0.00  0.00    +0.000 C 
ATOM      6  C   UNL     1       6.832   4.517  16.429  0.00  0.00    +0.000 C 
ATOM      7  C   UNL     1       6.001   3.551  15.584  0.00  0.00    +0.000 C 
ATOM      8  C   UNL     1       4.530   3.956  15.607  0.00  0.00    +0.000 C 
ATOM      9  C   UNL     1       3.984   4.037  17.045  0.00  0.00    +0.000 C 
ATOM     10  H   UNL     1       2.493   5.639  18.387  0.00  0.00    +0.000 HD
ENDROOT
BRANCH   1  15
ATOM     11  C   UNL     1       1.222   9.125  20.117  0.00  0.00    +0.000 A 
ATOM     12  C   UNL     1       1.117  10.123  19.146  0.00  0.00    +0.000 A 
ATOM     13  C   UNL     1       1.631   9.911  17.872  0.00  0.00    +0.000 A 
ATOM     14  C   UNL     1       2.259   8.705  17.562  0.00  0.00    +0.000 A 
ATOM     15  C   UNL     1       2.399   7.699  18.525  0.00  0.00    +0.000 A 
ATOM     16  C   UNL     1       1.857   7.908  19.799  0.00  0.00    +0.000 A 
BRANCH  11  18
ATOM     17  C   UNL     1      -0.461   8.451  21.955  0.00  0.00    +0.000 C 
ATOM     18  C   UNL     1       0.676   9.328  21.494  0.00  0.00    +0.000 C 
ATOM     19  O   UNL     1       1.155  10.192  22.224  0.00  0.00    +0.000 OA
ENDBRANCH  11  18
ENDBRANCH   1  15
BRANCH   9  20
ATOM     20  C   UNL     1       3.919   2.663  17.755  0.00  0.00    +0.000 C 
BRANCH  20  21
ATOM     21  N   UNL     1       3.273   2.715  19.053  0.00  0.00    +0.000 N 
ATOM     22  C   UNL     1       1.846   2.837  19.207  0.00  0.00    +0.000 C 
ATOM     23  C   UNL     1       1.688   3.083  20.694  0.00  0.00    +0.000 C 
ATOM     24  C   UNL     1       2.847   2.306  21.309  0.00  0.00    +0.000 C 
ATOM     25  C   UNL     1       3.913   2.423  20.249  0.00  0.00    +0.000 C 
ATOM     26  O   UNL     1       5.108   2.242  20.405  0.00  0.00    +0.000 OA
ENDBRANCH  20  21
ENDBRANCH   9  20
TORSDOF 4
ENDMDL
MODEL 9
REMARK VINA RESULT:      -7.7      3.567      7.587
REMARK  Name = 
REMARK  5 active torsions:
REMARK  status: ('A' for Active; 'I' for Inactive)
REMARK    1  A    between atoms: C_1  and  C_2
REMARK    2  A    between atoms: C_2  and  C_4
REMARK    3  A    between atoms: C_8  and  N_9
REMARK    4  A    between atoms: C_17  and  C_18
REMARK    5  A    between atoms: C_18  and  N_19
REMARK                            x       y       z     vdW  Elec       q    Type
REMARK                         _______ _______ _______ _____ _____    ______ ____
ROOT
ATOM      1  N   UNL     1       5.058   4.875  16.025  0.00  0.00    +0.000 N 
ATOM      2  C   UNL     1       4.771   3.915  16.980  0.00  0.00    +0.000 C 
ATOM      3  O   UNL     1       5.172   2.758  16.936  0.00  0.00    +0.000 OA
ATOM      4  N   UNL     1       4.013   4.366  18.057  0.00  0.00    +0.000 N 
ATOM      5  C   UNL     1       3.818   3.443  19.183  0.00  0.00    +0.000 C 
ATOM      6  C   UNL     1       2.380   2.928  19.266  0.00  0.00    +0.000 C 
ATOM      7  C   UNL     1       1.358   4.062  19.192  0.00  0.00    +0.000 C 
ATOM      8  C   UNL     1       1.638   4.953  17.984  0.00  0.00    +0.000 C 
ATOM      9  C   UNL     1       3.074   5.508  18.007  0.00  0.00    +0.000 C 
ATOM     10  H   UNL     1       4.973   5.839  16.313  0.00  0.00    +0.000 HD
ENDROOT
BRANCH   1  15
ATOM     11  C   UNL     1       5.802   3.588  12.614  0.00  0.00    +0.000 A 
ATOM     12  C   UNL     1       7.038   4.185  12.355  0.00  0.00    +0.000 A 
ATOM     13  C   UNL     1       7.635   4.994  13.314  0.00  0.00    +0.000 A 
ATOM     14  C   UNL     1       6.998   5.219  14.535  0.00  0.00    +0.000 A 
ATOM     15  C   UNL     1       5.748   4.652  14.809  0.00  0.00    +0.000 A 
ATOM     16  C   UNL     1       5.164   3.818  13.849  0.00  0.00    +0.000 A 
BRANCH  11  18
ATOM     17  C   UNL     1       3.856   3.184  10.968  0.00  0.00    +0.000 C 
ATOM     18  C   UNL     1       5.141   2.712  11.600  0.00  0.00    +0.000 C 
ATOM     19  O   UNL     1       5.647   1.635  11.295  0.00  0.00    +0.000 OA
ENDBRANCH  11  18
ENDBRANCH   1  15
BRANCH   9  20
ATOM     20  C   UNL     1       3.329   6.502  19.166  0.00  0.00    +0.000 C 
BRANCH  20  21
ATOM     21  N   UNL     1       2.366   7.586  19.218  0.00  0.00    +0.000 N 
ATOM     22  C   UNL     1       1.651   7.933  20.420  0.00  0.00    +0.000 C 
ATOM     23  C   UNL     1       0.626   8.933  19.923  0.00  0.00    +0.000 C 
ATOM     24  C   UNL     1       1.338   9.630  18.769  0.00  0.00    +0.000 C 
ATOM     25  C   UNL     1       2.207   8.530  18.214  0.00  0.00    +0.000 C 
ATOM     26  O   UNL     1       2.718   8.503  17.108  0.00  0.00    +0.000 OA
ENDBRANCH  20  21
ENDBRANCH   9  20
TORSDOF 4
ENDMDL
