MODEL 1
REMARK VINA RESULT:      -7.6      0.000      0.000
REMARK  Name = 
REMARK  8 active torsions:
REMARK  status: ('A' for Active; 'I' for Inactive)
REMARK    1  A    between atoms: C_1  and  C_2
REMARK    2  A    between atoms: C_2  and  C_3
REMARK    3  A    between atoms: C_3  and  N_4
REMARK    4  A    between atoms: N_4  and  C_5
REMARK    5  A    between atoms: N_4  and  C_12
REMARK    6  A    between atoms: C_5  and  C_6
REMARK    7  A    between atoms: C_20  and  O_21
REMARK    8  A    between atoms: O_21  and  C_22
REMARK                            x       y       z     vdW  Elec       q    Type
REMARK                         _______ _______ _______ _____ _____    ______ ____
ROOT
ATOM      1  C   UNL     1       5.201   6.219  18.521  0.00  0.00    +0.000 C 
ATOM      2  C   UNL     1       6.150   7.129  17.650  0.00  0.00    +0.000 C 
ATOM      3  C   UNL     1       7.409   6.388  17.111  0.00  0.00    +0.000 C 
ATOM      4  C   UNL     1       6.906   5.256  16.234  0.00  0.00    +0.000 A 
ATOM      5  C   UNL     1       5.879   4.500  16.857  0.00  0.00    +0.000 A 
ATOM      6  C   UNL     1       4.988   3.737  16.104  0.00  0.00    +0.000 A 
ATOM      7  C   UNL     1       5.168   3.649  14.733  0.00  0.00    +0.000 A 
ATOM      8  C   UNL     1       6.274   4.262  14.138  0.00  0.00    +0.000 A 
ATOM      9  C   UNL     1       7.166   5.058  14.877  0.00  0.00    +0.000 A 
ATOM     10  C   UNL     1       5.665   4.747  18.330  0.00  0.00    +0.000 C 
ENDROOT
BRANCH   9  11
ATOM     11  O   UNL     1       8.136   5.609  14.089  0.00  0.00    +0.000 OA
ATOM     12  C   UNL     1       8.071   5.441  12.683  0.00  0.00    +0.000 C 
ENDBRANCH   9  11
BRANCH   1  13
ATOM     13  N   UNL     1       3.738   6.416  18.245  0.00  0.00    +0.000 NA
BRANCH  13  14
ATOM     14  C   UNL     1       3.398   7.713  17.618  0.00  0.00    +0.000 C 
BRANCH  14  16
ATOM     15  C   UNL     1       1.923   9.757  17.935  0.00  0.00    +0.000 C 
ATOM     16  C   UNL     1       1.970   8.237  17.847  0.00  0.00    +0.000 C 
ENDBRANCH  14  16
ENDBRANCH  13  14
BRANCH  13  17
ATOM     17  C   UNL     1       2.913   6.153  19.443  0.00  0.00    +0.000 C 
BRANCH  17  18
ATOM     18  C   UNL     1       2.052   4.907  19.439  0.00  0.00    +0.000 A 
ATOM     19  C   UNL     1       1.873   4.168  18.256  0.00  0.00    +0.000 A 
ATOM     20  C   UNL     1       1.306   2.893  18.303  0.00  0.00    +0.000 A 
ATOM     21  C   UNL     1       0.894   2.353  19.517  0.00  0.00    +0.000 A 
ATOM     22  C   UNL     1       1.024   3.095  20.689  0.00  0.00    +0.000 A 
ATOM     23  C   UNL     1       1.603   4.365  20.651  0.00  0.00    +0.000 A 
ENDBRANCH  17  18
ENDBRANCH  13  17
ENDBRANCH   1  13
TORSDOF 6
ENDMDL
MODEL 2
REMARK VINA RESULT:      -7.5      0.229      1.026
REMARK  Name = 
REMARK  8 active torsions:
REMARK  status: ('A' for Active; 'I' for Inactive)
REMARK    1  A    between atoms: C_1  and  C_2
REMARK    2  A    between atoms: C_2  and  C_3
REMARK    3  A    between atoms: C_3  and  N_4
REMARK    4  A    between atoms: N_4  and  C_5
REMARK    5  A    between atoms: N_4  and  C_12
REMARK    6  A    between atoms: C_5  and  C_6
REMARK    7  A    between atoms: C_20  and  O_21
REMARK    8  A    between atoms: O_21  and  C_22
REMARK                            x       y       z     vdW  Elec       q    Type
REMARK                         _______ _______ _______ _____ _____    ______ ____
ROOT
ATOM      1  C   UNL     1       5.227   6.218  18.578  0.00  0.00    +0.000 C 
ATOM      2  C   UNL     1       6.115   7.149  17.666  0.00  0.00    +0.000 C 
ATOM      3  C   UNL     1       7.388   6.450  17.104  0.00  0.00    +0.000 C 
ATOM      4  C   UNL     1       6.907   5.284  16.261  0.00  0.00    +0.000 A 
ATOM      5  C   UNL     1       5.929   4.498  16.924  0.00  0.00    +0.000 A 
ATOM      6  C   UNL     1       5.050   3.688  16.209  0.00  0.00    +0.000 A 
ATOM      7  C   UNL     1       5.195   3.582  14.834  0.00  0.00    +0.000 A 
ATOM      8  C   UNL     1       6.260   4.228  14.200  0.00  0.00    +0.000 A 
ATOM      9  C   UNL     1       7.139   5.073  14.900  0.00  0.00    +0.000 A 
ATOM     10  C   UNL     1       5.744   4.763  18.398  0.00  0.00    +0.000 C 
ENDROOT
BRANCH   9  11
ATOM     11  O   UNL     1       8.064   5.647  14.077  0.00  0.00    +0.000 OA
ATOM     12  C   UNL     1       8.036   5.361  12.689  0.00  0.00    +0.000 C 
ENDBRANCH   9  11
BRANCH   1  13
ATOM     13  N   UNL     1       3.750   6.351  18.338  0.00  0.00    +0.000 NA
BRANCH  13  14
ATOM     14  C   UNL     1       3.335   7.647  17.756  0.00  0.00    +0.000 C 
BRANCH  14  16
ATOM     15  C   UNL     1       1.870   9.721  17.842  0.00  0.00    +0.000 C 
ATOM     16  C   UNL     1       2.077   8.301  18.353  0.00  0.00    +0.000 C 
ENDBRANCH  14  16
ENDBRANCH  13  14
BRANCH  13  17
ATOM     17  C   UNL     1       2.966   6.017  19.546  0.00  0.00    +0.000 C 
BRANCH  17  18
ATOM     18  C   UNL     1       2.340   4.640  19.613  0.00  0.00    +0.000 A 
ATOM     19  C   UNL     1       1.995   4.072  20.852  0.00  0.00    +0.000 A 
ATOM     20  C   UNL     1       1.187   2.934  20.903  0.00  0.00    +0.000 A 
ATOM     21  C   UNL     1       0.737   2.340  19.728  0.00  0.00    +0.000 A 
ATOM     22  C   UNL     1       1.112   2.866  18.494  0.00  0.00    +0.000 A 
ATOM     23  C   UNL     1       1.906   4.013  18.436  0.00  0.00    +0.000 A 
ENDBRANCH  17  18
ENDBRANCH  13  17
ENDBRANCH   1  13
TORSDOF 6
ENDMDL
MODEL 3
REMARK VINA RESULT:      -6.9      1.499      3.840
REMARK  Name = 
REMARK  8 active torsions:
REMARK  status: ('A' for Active; 'I' for Inactive)
REMARK    1  A    between atoms: C_1  and  C_2
REMARK    2  A    between atoms: C_2  and  C_3
REMARK    3  A    between atoms: C_3  and  N_4
REMARK    4  A    between atoms: N_4  and  C_5
REMARK    5  A    between atoms: N_4  and  C_12
REMARK    6  A    between atoms: C_5  and  C_6
REMARK    7  A    between atoms: C_20  and  O_21
REMARK    8  A    between atoms: O_21  and  C_22
REMARK                            x       y       z     vdW  Elec       q    Type
REMARK                         _______ _______ _______ _____ _____    ______ ____
ROOT
ATOM      1  C   UNL     1       3.878   4.293  19.292  0.00  0.00    +0.000 C 
ATOM      2  C   UNL     1       4.859   5.491  19.591  0.00  0.00    +0.000 C 
ATOM      3  C   UNL     1       6.321   5.239  19.119  0.00  0.00    +0.000 C 
ATOM      4  C   UNL     1       6.266   5.040  17.616  0.00  0.00    +0.000 A 
ATOM      5  C   UNL     1       5.251   4.128  17.225  0.00  0.00    +0.000 A 
ATOM      6  C   UNL     1       4.733   4.139  15.931  0.00  0.00    +0.000 A 
ATOM      7  C   UNL     1       5.283   4.997  14.991  0.00  0.00    +0.000 A 
ATOM      8  C   UNL     1       6.389   5.780  15.332  0.00  0.00    +0.000 A 
ATOM      9  C   UNL     1       6.907   5.803  16.638  0.00  0.00    +0.000 A 
ATOM     10  C   UNL     1       4.615   3.320  18.328  0.00  0.00    +0.000 C 
ENDROOT
BRANCH   9  11
ATOM     11  O   UNL     1       7.945   6.681  16.764  0.00  0.00    +0.000 OA
ATOM     12  C   UNL     1       7.735   7.920  17.420  0.00  0.00    +0.000 C 
ENDBRANCH   9  11
BRANCH   1  13
ATOM     13  N   UNL     1       2.530   4.716  18.783  0.00  0.00    +0.000 NA
BRANCH  13  14
ATOM     14  C   UNL     1       1.774   3.653  18.083  0.00  0.00    +0.000 C 
BRANCH  14  16
ATOM     15  C   UNL     1       0.760   3.215  20.371  0.00  0.00    +0.000 C 
ATOM     16  C   UNL     1       0.984   2.672  18.966  0.00  0.00    +0.000 C 
ENDBRANCH  14  16
ENDBRANCH  13  14
BRANCH  13  17
ATOM     17  C   UNL     1       2.610   5.952  17.977  0.00  0.00    +0.000 C 
BRANCH  17  18
ATOM     18  C   UNL     1       2.218   7.251  18.650  0.00  0.00    +0.000 A 
ATOM     19  C   UNL     1       1.957   8.401  17.883  0.00  0.00    +0.000 A 
ATOM     20  C   UNL     1       1.346   9.512  18.469  0.00  0.00    +0.000 A 
ATOM     21  C   UNL     1       1.013   9.499  19.820  0.00  0.00    +0.000 A 
ATOM     22  C   UNL     1       1.310   8.383  20.599  0.00  0.00    +0.000 A 
ATOM     23  C   UNL     1       1.906   7.263  20.017  0.00  0.00    +0.000 A 
ENDBRANCH  17  18
ENDBRANCH  13  17
ENDBRANCH   1  13
TORSDOF 6
ENDMDL
MODEL 4
REMARK VINA RESULT:      -6.9      2.584      6.594
REMARK  Name = 
REMARK  8 active torsions:
REMARK  status: ('A' for Active; 'I' for Inactive)
REMARK    1  A    between atoms: C_1  and  C_2
REMARK    2  A    between atoms: C_2  and  C_3
REMARK    3  A    between atoms: C_3  and  N_4
REMARK    4  A    between atoms: N_4  and  C_5
REMARK    5  A    between atoms: N_4  and  C_12
REMARK    6  A    between atoms: C_5  and  C_6
REMARK    7  A    between atoms: C_20  and  O_21
REMARK    8  A    between atoms: O_21  and  C_22
REMARK                            x       y       z     vdW  Elec       q    Type
REMARK                         _______ _______ _______ _____ _____    ______ ____
ROOT
ATOM      1  C   UNL     1       4.760   5.588  16.595  0.00  0.00    +0.000 C 
ATOM      2  C   UNL     1       4.085   6.748  17.422  0.00  0.00    +0.000 C 
ATOM      3  C   UNL     1       2.607   6.460  17.818  0.00  0.00    +0.000 C 
ATOM      4  C   UNL     1       2.622   5.213  18.682  0.00  0.00    +0.000 A 
ATOM      5  C   UNL     1       3.398   4.167  18.115  0.00  0.00    +0.000 A 
ATOM      6  C   UNL     1       3.911   3.141  18.906  0.00  0.00    +0.000 A 
ATOM      7  C   UNL     1       3.582   3.098  20.252  0.00  0.00    +0.000 A 
ATOM      8  C   UNL     1       2.688   4.035  20.777  0.00  0.00    +0.000 A 
ATOM      9  C   UNL     1       2.183   5.093  20.002  0.00  0.00    +0.000 A 
ATOM     10  C   UNL     1       3.822   4.350  16.679  0.00  0.00    +0.000 C 
ENDROOT
BRANCH   9  11
ATOM     11  O   UNL     1       1.378   5.923  20.727  0.00  0.00    +0.000 OA
ATOM     12  C   UNL     1       1.713   7.295  20.841  0.00  0.00    +0.000 C 
ENDBRANCH   9  11
BRANCH   1  13
ATOM     13  N   UNL     1       6.173   5.283  17.004  0.00  0.00    +0.000 NA
BRANCH  13  14
ATOM     14  C   UNL     1       7.059   6.465  17.090  0.00  0.00    +0.000 C 
BRANCH  14  16
ATOM     15  C   UNL     1       7.376   5.681  19.485  0.00  0.00    +0.000 C 
ATOM     16  C   UNL     1       7.828   6.659  18.408  0.00  0.00    +0.000 C 
ENDBRANCH  14  16
ENDBRANCH  13  14
BRANCH  13  17
ATOM     17  C   UNL     1       6.766   4.213  16.174  0.00  0.00    +0.000 C 
BRANCH  17  18
ATOM     18  C   UNL     1       6.763   4.411  14.673  0.00  0.00    +0.000 A 
ATOM     19  C   UNL     1       7.667   5.302  14.069  0.00  0.00    +0.000 A 
ATOM     20  C   UNL     1       7.845   5.291  12.684  0.00  0.00    +0.000 A 
ATOM     21  C   UNL     1       7.113   4.415  11.889  0.00  0.00    +0.000 A 
ATOM     22  C   UNL     1       6.180   3.561  12.473  0.00  0.00    +0.000 A 
ATOM     23  C   UNL     1       6.008   3.556  13.858  0.00  0.00    +0.000 A 
ENDBRANCH  17  18
ENDBRANCH  13  17
ENDBRANCH   1  13
TORSDOF 6
ENDMDL
MODEL 5
REMARK VINA RESULT:      -6.8      2.649      6.649
REMARK  Name = 
REMARK  8 active torsions:
REMARK  status: ('A' for Active; 'I' for Inactive)
REMARK    1  A    between atoms: C_1  and  C_2
REMARK    2  A    between atoms: C_2  and  C_3
REMARK    3  A    between atoms: C_3  and  N_4
REMARK    4  A    between atoms: N_4  and  C_5
REMARK    5  A    between atoms: N_4  and  C_12
REMARK    6  A    between atoms: C_5  and  C_6
REMARK    7  A    between atoms: C_20  and  O_21
REMARK    8  A    between atoms: O_21  and  C_22
REMARK                            x       y       z     vdW  Elec       q    Type
REMARK                         _______ _______ _______ _____ _____    ______ ____
ROOT
ATOM      1  C   UNL     1       4.450   5.961  17.780  0.00  0.00    +0.000 C 
ATOM      2  C   UNL     1       4.350   5.867  19.351  0.00  0.00    +0.000 C 
ATOM      3  C   UNL     1       2.889   5.869  19.889  0.00  0.00    +0.000 C 
ATOM      4  C   UNL     1       2.207   4.649  19.300  0.00  0.00    +0.000 A 
ATOM      5  C   UNL     1       2.424   4.525  17.902  0.00  0.00    +0.000 A 
ATOM      6  C   UNL     1       2.289   3.296  17.258  0.00  0.00    +0.000 A 
ATOM      7  C   UNL     1       1.849   2.199  17.983  0.00  0.00    +0.000 A 
ATOM      8  C   UNL     1       1.480   2.357  19.321  0.00  0.00    +0.000 A 
ATOM      9  C   UNL     1       1.636   3.580  19.995  0.00  0.00    +0.000 A 
ATOM     10  C   UNL     1       3.024   5.723  17.209  0.00  0.00    +0.000 C 
ENDROOT
BRANCH   9  11
ATOM     11  O   UNL     1       1.272   3.495  21.307  0.00  0.00    +0.000 OA
ATOM     12  C   UNL     1       1.575   2.319  22.039  0.00  0.00    +0.000 C 
ENDBRANCH   9  11
BRANCH   1  13
ATOM     13  N   UNL     1       5.485   5.056  17.175  0.00  0.00    +0.000 NA
BRANCH  13  14
ATOM     14  C   UNL     1       6.394   4.419  18.154  0.00  0.00    +0.000 C 
BRANCH  14  16
ATOM     15  C   UNL     1       7.958   6.230  19.006  0.00  0.00    +0.000 C 
ATOM     16  C   UNL     1       7.839   4.945  18.198  0.00  0.00    +0.000 C 
ENDBRANCH  14  16
ENDBRANCH  13  14
BRANCH  13  17
ATOM     17  C   UNL     1       6.232   5.725  16.089  0.00  0.00    +0.000 C 
BRANCH  17  18
ATOM     18  C   UNL     1       6.446   4.947  14.807  0.00  0.00    +0.000 A 
ATOM     19  C   UNL     1       5.488   4.015  14.370  0.00  0.00    +0.000 A 
ATOM     20  C   UNL     1       5.553   3.496  13.075  0.00  0.00    +0.000 A 
ATOM     21  C   UNL     1       6.577   3.880  12.215  0.00  0.00    +0.000 A 
ATOM     22  C   UNL     1       7.558   4.767  12.654  0.00  0.00    +0.000 A 
ATOM     23  C   UNL     1       7.491   5.301  13.942  0.00  0.00    +0.000 A 
ENDBRANCH  17  18
ENDBRANCH  13  17
ENDBRANCH   1  13
TORSDOF 6
ENDMDL
MODEL 6
REMARK VINA RESULT:      -6.7      1.506      3.951
REMARK  Name = 
REMARK  8 active torsions:
REMARK  status: ('A' for Active; 'I' for Inactive)
REMARK    1  A    between atoms: C_1  and  C_2
REMARK    2  A    between atoms: C_2  and  C_3
REMARK    3  A    between atoms: C_3  and  N_4
REMARK    4  A    between atoms: N_4  and  C_5
REMARK    5  A    between atoms: N_4  and  C_12
REMARK    6  A    between atoms: C_5  and  C_6
REMARK    7  A    between atoms: C_20  and  O_21
REMARK    8  A    between atoms: O_21  and  C_22
REMARK                            x       y       z     vdW  Elec       q    Type
REMARK                         _______ _______ _______ _____ _____    ______ ____
ROOT
ATOM      1  C   UNL     1       3.916   4.326  19.308  0.00  0.00    +0.000 C 
ATOM      2  C   UNL     1       4.880   5.543  19.586  0.00  0.00    +0.000 C 
ATOM      3  C   UNL     1       6.346   5.302  19.122  0.00  0.00    +0.000 C 
ATOM      4  C   UNL     1       6.297   5.073  17.623  0.00  0.00    +0.000 A 
ATOM      5  C   UNL     1       5.297   4.139  17.247  0.00  0.00    +0.000 A 
ATOM      6  C   UNL     1       4.781   4.118  15.953  0.00  0.00    +0.000 A 
ATOM      7  C   UNL     1       5.322   4.964  14.997  0.00  0.00    +0.000 A 
ATOM      8  C   UNL     1       6.416   5.769  15.325  0.00  0.00    +0.000 A 
ATOM      9  C   UNL     1       6.930   5.826  16.632  0.00  0.00    +0.000 A 
ATOM     10  C   UNL     1       4.669   3.344  18.365  0.00  0.00    +0.000 C 
ENDROOT
BRANCH   9  11
ATOM     11  O   UNL     1       7.956   6.720  16.742  0.00  0.00    +0.000 OA
ATOM     12  C   UNL     1       7.753   7.928  17.457  0.00  0.00    +0.000 C 
ENDBRANCH   9  11
BRANCH   1  13
ATOM     13  N   UNL     1       2.563   4.720  18.788  0.00  0.00    +0.000 NA
BRANCH  13  14
ATOM     14  C   UNL     1       1.863   3.661  18.027  0.00  0.00    +0.000 C 
BRANCH  14  16
ATOM     15  C   UNL     1       0.744   3.182  20.257  0.00  0.00    +0.000 C 
ATOM     16  C   UNL     1       0.999   2.682  18.840  0.00  0.00    +0.000 C 
ENDBRANCH  14  16
ENDBRANCH  13  14
BRANCH  13  17
ATOM     17  C   UNL     1       2.613   5.992  18.037  0.00  0.00    +0.000 C 
BRANCH  17  18
ATOM     18  C   UNL     1       1.949   7.200  18.664  0.00  0.00    +0.000 A 
ATOM     19  C   UNL     1       1.700   7.239  20.048  0.00  0.00    +0.000 A 
ATOM     20  C   UNL     1       1.336   8.438  20.663  0.00  0.00    +0.000 A 
ATOM     21  C   UNL     1       1.194   9.599  19.909  0.00  0.00    +0.000 A 
ATOM     22  C   UNL     1       1.392   9.561  18.530  0.00  0.00    +0.000 A 
ATOM     23  C   UNL     1       1.771   8.369  17.911  0.00  0.00    +0.000 A 
ENDBRANCH  17  18
ENDBRANCH  13  17
ENDBRANCH   1  13
TORSDOF 6
ENDMDL
MODEL 7
REMARK VINA RESULT:      -6.7      2.294      6.285
REMARK  Name = 
REMARK  8 active torsions:
REMARK  status: ('A' for Active; 'I' for Inactive)
REMARK    1  A    between atoms: C_1  and  C_2
REMARK    2  A    between atoms: C_2  and  C_3
REMARK    3  A    between atoms: C_3  and  N_4
REMARK    4  A    between atoms: N_4  and  C_5
REMARK    5  A    between atoms: N_4  and  C_12
REMARK    6  A    between atoms: C_5  and  C_6
REMARK    7  A    between atoms: C_20  and  O_21
REMARK    8  A    between atoms: O_21  and  C_22
REMARK                            x       y       z     vdW  Elec       q    Type
REMARK                         _______ _______ _______ _____ _____    ______ ____
ROOT
ATOM      1  C   UNL     1       6.268   4.738  17.983  0.00  0.00    +0.000 C 
ATOM      2  C   UNL     1       5.444   3.493  17.475  0.00  0.00    +0.000 C 
ATOM      3  C   UNL     1       4.287   3.074  18.429  0.00  0.00    +0.000 C 
ATOM      4  C   UNL     1       3.344   4.259  18.516  0.00  0.00    +0.000 A 
ATOM      5  C   UNL     1       4.025   5.481  18.759  0.00  0.00    +0.000 A 
ATOM      6  C   UNL     1       3.445   6.705  18.435  0.00  0.00    +0.000 A 
ATOM      7  C   UNL     1       2.146   6.730  17.952  0.00  0.00    +0.000 A 
ATOM      8  C   UNL     1       1.417   5.541  17.865  0.00  0.00    +0.000 A 
ATOM      9  C   UNL     1       1.994   4.294  18.159  0.00  0.00    +0.000 A 
ATOM     10  C   UNL     1       5.475   5.370  19.162  0.00  0.00    +0.000 C 
ENDROOT
BRANCH   9  11
ATOM     11  O   UNL     1       1.125   3.263  17.949  0.00  0.00    +0.000 OA
ATOM     12  C   UNL     1       0.717   2.461  19.045  0.00  0.00    +0.000 C 
ENDBRANCH   9  11
BRANCH   1  13
ATOM     13  N   UNL     1       6.611   5.727  16.907  0.00  0.00    +0.000 NA
BRANCH  13  14
ATOM     14  C   UNL     1       6.704   7.131  17.367  0.00  0.00    +0.000 C 
BRANCH  14  16
ATOM     15  C   UNL     1       8.225   9.067  17.995  0.00  0.00    +0.000 C 
ATOM     16  C   UNL     1       8.029   7.556  18.023  0.00  0.00    +0.000 C 
ENDBRANCH  14  16
ENDBRANCH  13  14
BRANCH  13  17
ATOM     17  C   UNL     1       5.721   5.594  15.734  0.00  0.00    +0.000 C 
BRANCH  17  18
ATOM     18  C   UNL     1       6.285   4.914  14.504  0.00  0.00    +0.000 A 
ATOM     19  C   UNL     1       5.548   3.920  13.837  0.00  0.00    +0.000 A 
ATOM     20  C   UNL     1       5.941   3.484  12.570  0.00  0.00    +0.000 A 
ATOM     21  C   UNL     1       7.077   4.013  11.967  0.00  0.00    +0.000 A 
ATOM     22  C   UNL     1       7.842   4.965  12.639  0.00  0.00    +0.000 A 
ATOM     23  C   UNL     1       7.446   5.416  13.899  0.00  0.00    +0.000 A 
ENDBRANCH  17  18
ENDBRANCH  13  17
ENDBRANCH   1  13
TORSDOF 6
ENDMDL
MODEL 8
REMARK VINA RESULT:      -6.6      0.843      1.110
REMARK  Name = 
REMARK  8 active torsions:
REMARK  status: ('A' for Active; 'I' for Inactive)
REMARK    1  A    between atoms: C_1  and  C_2
REMARK    2  A    between atoms: C_2  and  C_3
REMARK    3  A    between atoms: C_3  and  N_4
REMARK    4  A    between atoms: N_4  and  C_5
REMARK    5  A    between atoms: N_4  and  C_12
REMARK    6  A    between atoms: C_5  and  C_6
REMARK    7  A    between atoms: C_20  and  O_21
REMARK    8  A    between atoms: O_21  and  C_22
REMARK                            x       y       z     vdW  Elec       q    Type
REMARK                         _______ _______ _______ _____ _____    ______ ____
ROOT
ATOM      1  C   UNL     1       5.064   5.821  18.104  0.00  0.00    +0.000 C 
ATOM      2  C   UNL     1       5.987   6.873  17.378  0.00  0.00    +0.000 C 
ATOM      3  C   UNL     1       7.350   6.290  16.903  0.00  0.00    +0.000 C 
ATOM      4  C   UNL     1       7.031   5.183  15.916  0.00  0.00    +0.000 A 
ATOM      5  C   UNL     1       6.035   4.294  16.399  0.00  0.00    +0.000 A 
ATOM      6  C   UNL     1       5.284   3.509  15.525  0.00  0.00    +0.000 A 
ATOM      7  C   UNL     1       5.581   3.536  14.171  0.00  0.00    +0.000 A 
ATOM      8  C   UNL     1       6.667   4.288  13.714  0.00  0.00    +0.000 A 
ATOM      9  C   UNL     1       7.416   5.107  14.576  0.00  0.00    +0.000 A 
ATOM     10  C   UNL     1       5.681   4.414  17.860  0.00  0.00    +0.000 C 
ENDROOT
BRANCH   9  11
ATOM     11  O   UNL     1       8.388   5.798  13.912  0.00  0.00    +0.000 OA
ATOM     12  C   UNL     1       8.361   5.851  12.496  0.00  0.00    +0.000 C 
ENDBRANCH   9  11
BRANCH   1  13
ATOM     13  N   UNL     1       3.615   5.903  17.716  0.00  0.00    +0.000 NA
BRANCH  13  14
ATOM     14  C   UNL     1       2.833   6.914  18.462  0.00  0.00    +0.000 C 
BRANCH  14  16
ATOM     15  C   UNL     1       1.377   8.931  17.946  0.00  0.00    +0.000 C 
ATOM     16  C   UNL     1       2.773   8.327  17.855  0.00  0.00    +0.000 C 
ENDBRANCH  14  16
ENDBRANCH  13  14
BRANCH  13  17
ATOM     17  C   UNL     1       2.963   4.577  17.743  0.00  0.00    +0.000 C 
BRANCH  17  18
ATOM     18  C   UNL     1       2.318   4.143  19.043  0.00  0.00    +0.000 A 
ATOM     19  C   UNL     1       1.000   3.652  19.056  0.00  0.00    +0.000 A 
ATOM     20  C   UNL     1       0.501   3.012  20.193  0.00  0.00    +0.000 A 
ATOM     21  C   UNL     1       1.294   2.875  21.327  0.00  0.00    +0.000 A 
ATOM     22  C   UNL     1       2.585   3.399  21.341  0.00  0.00    +0.000 A 
ATOM     23  C   UNL     1       3.096   4.026  20.203  0.00  0.00    +0.000 A 
ENDBRANCH  17  18
ENDBRANCH  13  17
ENDBRANCH   1  13
TORSDOF 6
ENDMDL
MODEL 9
REMARK VINA RESULT:      -6.5      2.622      6.337
REMARK  Name = 
REMARK  8 active torsions:
REMARK  status: ('A' for Active; 'I' for Inactive)
REMARK    1  A    between atoms: C_1  and  C_2
REMARK    2  A    between atoms: C_2  and  C_3
REMARK    3  A    between atoms: C_3  and  N_4
REMARK    4  A    between atoms: N_4  and  C_5
REMARK    5  A    between atoms: N_4  and  C_12
REMARK    6  A    between atoms: C_5  and  C_6
REMARK    7  A    between atoms: C_20  and  O_21
REMARK    8  A    between atoms: O_21  and  C_22
REMARK                            x       y       z     vdW  Elec       q    Type
REMARK                         _______ _______ _______ _____ _____    ______ ____
ROOT
ATOM      1  C   UNL     1       4.196   6.448  17.978  0.00  0.00    +0.000 C 
ATOM      2  C   UNL     1       4.358   6.063  19.499  0.00  0.00    +0.000 C 
ATOM      3  C   UNL     1       3.083   5.427  20.126  0.00  0.00    +0.000 C 
ATOM      4  C   UNL     1       2.801   4.157  19.346  0.00  0.00    +0.000 A 
ATOM      5  C   UNL     1       2.848   4.358  17.942  0.00  0.00    +0.000 A 
ATOM      6  C   UNL     1       3.066   3.294  17.069  0.00  0.00    +0.000 A 
ATOM      7  C   UNL     1       3.150   2.008  17.579  0.00  0.00    +0.000 A 
ATOM      8  C   UNL     1       2.942   1.791  18.944  0.00  0.00    +0.000 A 
ATOM      9  C   UNL     1       2.749   2.853  19.844  0.00  0.00    +0.000 A 
ATOM     10  C   UNL     1       2.880   5.791  17.471  0.00  0.00    +0.000 C 
ENDROOT
BRANCH   9  11
ATOM     11  O   UNL     1       2.628   2.420  21.132  0.00  0.00    +0.000 OA
ATOM     12  C   UNL     1       1.399   2.599  21.816  0.00  0.00    +0.000 C 
ENDBRANCH   9  11
BRANCH   1  13
ATOM     13  N   UNL     1       5.387   6.110  17.128  0.00  0.00    +0.000 NA
BRANCH  13  14
ATOM     14  C   UNL     1       6.628   6.830  17.492  0.00  0.00    +0.000 C 
BRANCH  14  16
ATOM     15  C   UNL     1       7.678   4.543  17.839  0.00  0.00    +0.000 C 
ATOM     16  C   UNL     1       7.709   6.016  18.224  0.00  0.00    +0.000 C 
ENDBRANCH  14  16
ENDBRANCH  13  14
BRANCH  13  17
ATOM     17  C   UNL     1       5.085   6.233  15.686  0.00  0.00    +0.000 C 
BRANCH  17  18
ATOM     18  C   UNL     1       5.788   5.281  14.742  0.00  0.00    +0.000 A 
ATOM     19  C   UNL     1       5.081   4.230  14.131  0.00  0.00    +0.000 A 
ATOM     20  C   UNL     1       5.652   3.521  13.072  0.00  0.00    +0.000 A 
ATOM     21  C   UNL     1       6.933   3.834  12.627  0.00  0.00    +0.000 A 
ATOM     22  C   UNL     1       7.660   4.843  13.256  0.00  0.00    +0.000 A 
ATOM     23  C   UNL     1       7.090   5.565  14.305  0.00  0.00    +0.000 A 
ENDBRANCH  17  18
ENDBRANCH  13  17
ENDBRANCH   1  13
TORSDOF 6
ENDMDL
