MODEL 1
REMARK VINA RESULT:      -7.7      0.000      0.000
REMARK  Name = 
REMARK  12 active torsions:
REMARK  status: ('A' for Active; 'I' for Inactive)
REMARK    1  A    between atoms: C_1  and  C_2
REMARK    2  A    between atoms: C_2  and  C_3
REMARK    3  A    between atoms: C_3  and  C_4
REMARK    4  A    between atoms: C_4  and  C_5
REMARK    5  A    between atoms: C_8  and  C_9
REMARK    6  A    between atoms: N_11  and  C_12
REMARK    7  A    between atoms: C_12  and  C_13
REMARK    8  A    between atoms: C_13  and  C_14
REMARK    9  A    between atoms: C_14  and  N_15
REMARK   10  A    between atoms: N_15  and  C_28
REMARK   11  A    between atoms: N_18  and  C_19
REMARK   12  A    between atoms: C_22  and  N_23
REMARK                            x       y       z     vdW  Elec       q    Type
REMARK                         _______ _______ _______ _____ _____    ______ ____
ROOT
ATOM      1  N   UNL     1       3.306   5.760  18.481  0.00  0.00    +0.000 N 
ATOM      2  C   UNL     1       2.271   6.419  19.168  0.00  0.00    +0.000 C 
ATOM      3  O   UNL     1       1.451   5.801  19.851  0.00  0.00    +0.000 OA
ATOM      4  N   UNL     1       2.245   7.799  19.092  0.00  0.00    +0.000 N 
ATOM      5  H   UNL     1       2.658   8.228  18.282  0.00  0.00    +0.000 HD
ENDROOT
BRANCH   4   6
ATOM      6  C   UNL     1       1.439   8.638  19.914  0.00  0.00    +0.000 A 
ATOM      7  C   UNL     1       1.354   8.501  21.310  0.00  0.00    +0.000 A 
ATOM      8  C   UNL     1       0.537   9.333  22.082  0.00  0.00    +0.000 A 
ATOM      9  C   UNL     1      -0.193  10.342  21.459  0.00  0.00    +0.000 A 
ATOM     10  C   UNL     1      -0.107  10.518  20.073  0.00  0.00    +0.000 A 
ATOM     11  C   UNL     1       0.711   9.668  19.306  0.00  0.00    +0.000 A 
BRANCH   9  12
ATOM     12  N   UNL     1      -1.048  11.221  22.266  0.00  0.00    +0.000 N 
ATOM     13  O   UNL     1      -0.999  11.109  23.496  0.00  0.00    +0.000 OA
ATOM     14  O   UNL     1      -1.770  12.031  21.663  0.00  0.00    +0.000 OA
ENDBRANCH   9  12
ENDBRANCH   4   6
BRANCH   1  15
ATOM     15  C   UNL     1       3.399   4.339  18.701  0.00  0.00    +0.000 A 
ATOM     16  C   UNL     1       4.172   3.840  19.761  0.00  0.00    +0.000 A 
ATOM     17  C   UNL     1       4.411   2.471  19.895  0.00  0.00    +0.000 A 
ATOM     18  C   UNL     1       3.877   1.583  18.966  0.00  0.00    +0.000 A 
ATOM     19  C   UNL     1       3.080   2.062  17.927  0.00  0.00    +0.000 A 
ATOM     20  C   UNL     1       2.827   3.432  17.801  0.00  0.00    +0.000 A 
ENDBRANCH   1  15
BRANCH   1  21
ATOM     21  C   UNL     1       4.365   6.367  17.638  0.00  0.00    +0.000 C 
BRANCH  21  22
ATOM     22  C   UNL     1       5.612   6.717  18.468  0.00  0.00    +0.000 C 
BRANCH  22  23
ATOM     23  C   UNL     1       6.871   6.918  17.619  0.00  0.00    +0.000 C 
BRANCH  23  26
ATOM     24  C   UNL     1       7.176   5.142  15.923  0.00  0.00    +0.000 C 
ATOM     25  O   UNL     1       7.864   4.477  16.694  0.00  0.00    +0.000 OA
ATOM     26  N   UNL     1       6.692   6.389  16.274  0.00  0.00    +0.000 N 
ATOM     27  H   UNL     1       6.135   6.923  15.625  0.00  0.00    +0.000 HD
BRANCH  24  31
ATOM     28  C   UNL     1       5.942   3.614  12.067  0.00  0.00    +0.000 A 
ATOM     29  C   UNL     1       5.214   3.353  13.232  0.00  0.00    +0.000 A 
ATOM     30  C   UNL     1       5.646   3.844  14.466  0.00  0.00    +0.000 A 
ATOM     31  C   UNL     1       6.829   4.590  14.572  0.00  0.00    +0.000 A 
ATOM     32  C   UNL     1       7.583   4.813  13.412  0.00  0.00    +0.000 A 
ATOM     33  C   UNL     1       7.142   4.328  12.171  0.00  0.00    +0.000 A 
BRANCH  28  34
ATOM     34  C   UNL     1       5.399   3.191  10.720  0.00  0.00    +0.000 C 
BRANCH  34  35
ATOM     35  C   UNL     1       3.938   2.745  10.849  0.00  0.00    +0.000 C 
BRANCH  35  37
ATOM     36  C   UNL     1       3.009   4.351   9.169  0.00  0.00    +0.000 C 
ATOM     37  C   UNL     1       2.949   3.884  10.616  0.00  0.00    +0.000 C 
ENDBRANCH  35  37
ENDBRANCH  34  35
ENDBRANCH  28  34
ENDBRANCH  24  31
ENDBRANCH  23  26
ENDBRANCH  22  23
ENDBRANCH  21  22
ENDBRANCH   1  21
TORSDOF 11
ENDMDL
MODEL 2
REMARK VINA RESULT:      -7.6      4.160      7.596
REMARK  Name = 
REMARK  12 active torsions:
REMARK  status: ('A' for Active; 'I' for Inactive)
REMARK    1  A    between atoms: C_1  and  C_2
REMARK    2  A    between atoms: C_2  and  C_3
REMARK    3  A    between atoms: C_3  and  C_4
REMARK    4  A    between atoms: C_4  and  C_5
REMARK    5  A    between atoms: C_8  and  C_9
REMARK    6  A    between atoms: N_11  and  C_12
REMARK    7  A    between atoms: C_12  and  C_13
REMARK    8  A    between atoms: C_13  and  C_14
REMARK    9  A    between atoms: C_14  and  N_15
REMARK   10  A    between atoms: N_15  and  C_28
REMARK   11  A    between atoms: N_18  and  C_19
REMARK   12  A    between atoms: C_22  and  N_23
REMARK                            x       y       z     vdW  Elec       q    Type
REMARK                         _______ _______ _______ _____ _____    ______ ____
ROOT
ATOM      1  N   UNL     1      -0.118  11.186  18.842  0.00  0.00    +0.000 N 
ATOM      2  C   UNL     1       0.534  12.422  18.685  0.00  0.00    +0.000 C 
ATOM      3  O   UNL     1      -0.075  13.436  18.339  0.00  0.00    +0.000 OA
ATOM      4  N   UNL     1       1.883  12.464  18.989  0.00  0.00    +0.000 N 
ATOM      5  H   UNL     1       2.405  11.609  18.906  0.00  0.00    +0.000 HD
ENDROOT
BRANCH   4   6
ATOM      6  C   UNL     1       2.641  13.661  19.133  0.00  0.00    +0.000 A 
ATOM      7  C   UNL     1       3.237  14.332  18.051  0.00  0.00    +0.000 A 
ATOM      8  C   UNL     1       3.991  15.497  18.234  0.00  0.00    +0.000 A 
ATOM      9  C   UNL     1       4.134  16.022  19.516  0.00  0.00    +0.000 A 
ATOM     10  C   UNL     1       3.530  15.389  20.608  0.00  0.00    +0.000 A 
ATOM     11  C   UNL     1       2.783  14.213  20.411  0.00  0.00    +0.000 A 
BRANCH   9  12
ATOM     12  N   UNL     1       4.920  17.247  19.712  0.00  0.00    +0.000 N 
ATOM     13  O   UNL     1       5.707  17.581  18.819  0.00  0.00    +0.000 OA
ATOM     14  O   UNL     1       4.744  17.880  20.765  0.00  0.00    +0.000 OA
ENDBRANCH   9  12
ENDBRANCH   4   6
BRANCH   1  15
ATOM     15  C   UNL     1      -1.548  11.206  18.665  0.00  0.00    +0.000 A 
ATOM     16  C   UNL     1      -2.124  10.627  17.522  0.00  0.00    +0.000 A 
ATOM     17  C   UNL     1      -3.484  10.778  17.248  0.00  0.00    +0.000 A 
ATOM     18  C   UNL     1      -4.286  11.511  18.117  0.00  0.00    +0.000 A 
ATOM     19  C   UNL     1      -3.735  12.063  19.272  0.00  0.00    +0.000 A 
ATOM     20  C   UNL     1      -2.375  11.899  19.556  0.00  0.00    +0.000 A 
ENDBRANCH   1  15
BRANCH   1  21
ATOM     21  C   UNL     1       0.476   9.893  19.261  0.00  0.00    +0.000 C 
BRANCH  21  22
ATOM     22  C   UNL     1       0.232   9.621  20.755  0.00  0.00    +0.000 C 
BRANCH  22  23
ATOM     23  C   UNL     1       0.734   8.248  21.212  0.00  0.00    +0.000 C 
BRANCH  23  26
ATOM     24  C   UNL     1       2.138   6.493  20.177  0.00  0.00    +0.000 C 
ATOM     25  O   UNL     1       1.439   5.603  20.655  0.00  0.00    +0.000 OA
ATOM     26  N   UNL     1       1.900   7.829  20.447  0.00  0.00    +0.000 N 
ATOM     27  H   UNL     1       2.489   8.544  20.051  0.00  0.00    +0.000 HD
BRANCH  24  31
ATOM     28  C   UNL     1       5.428   5.704  17.478  0.00  0.00    +0.000 A 
ATOM     29  C   UNL     1       4.408   6.604  17.155  0.00  0.00    +0.000 A 
ATOM     30  C   UNL     1       3.348   6.827  18.038  0.00  0.00    +0.000 A 
ATOM     31  C   UNL     1       3.269   6.137  19.257  0.00  0.00    +0.000 A 
ATOM     32  C   UNL     1       4.266   5.201  19.560  0.00  0.00    +0.000 A 
ATOM     33  C   UNL     1       5.336   4.987  18.677  0.00  0.00    +0.000 A 
BRANCH  28  34
ATOM     34  C   UNL     1       6.636   5.568  16.577  0.00  0.00    +0.000 C 
BRANCH  34  35
ATOM     35  C   UNL     1       6.504   4.326  15.690  0.00  0.00    +0.000 C 
BRANCH  35  37
ATOM     36  C   UNL     1       6.132   3.677  13.301  0.00  0.00    +0.000 C 
ATOM     37  C   UNL     1       5.671   4.579  14.436  0.00  0.00    +0.000 C 
ENDBRANCH  35  37
ENDBRANCH  34  35
ENDBRANCH  28  34
ENDBRANCH  24  31
ENDBRANCH  23  26
ENDBRANCH  22  23
ENDBRANCH  21  22
ENDBRANCH   1  21
TORSDOF 11
ENDMDL
MODEL 3
REMARK VINA RESULT:      -7.6      3.895      6.777
REMARK  Name = 
REMARK  12 active torsions:
REMARK  status: ('A' for Active; 'I' for Inactive)
REMARK    1  A    between atoms: C_1  and  C_2
REMARK    2  A    between atoms: C_2  and  C_3
REMARK    3  A    between atoms: C_3  and  C_4
REMARK    4  A    between atoms: C_4  and  C_5
REMARK    5  A    between atoms: C_8  and  C_9
REMARK    6  A    between atoms: N_11  and  C_12
REMARK    7  A    between atoms: C_12  and  C_13
REMARK    8  A    between atoms: C_13  and  C_14
REMARK    9  A    between atoms: C_14  and  N_15
REMARK   10  A    between atoms: N_15  and  C_28
REMARK   11  A    between atoms: N_18  and  C_19
REMARK   12  A    between atoms: C_22  and  N_23
REMARK                            x       y       z     vdW  Elec       q    Type
REMARK                         _______ _______ _______ _____ _____    ______ ____
ROOT
ATOM      1  N   UNL     1       3.657   5.497  17.673  0.00  0.00    +0.000 N 
ATOM      2  C   UNL     1       2.590   6.215  18.240  0.00  0.00    +0.000 C 
ATOM      3  O   UNL     1       1.728   5.661  18.926  0.00  0.00    +0.000 OA
ATOM      4  N   UNL     1       2.576   7.584  18.041  0.00  0.00    +0.000 N 
ATOM      5  H   UNL     1       3.038   7.938  17.221  0.00  0.00    +0.000 HD
ENDROOT
BRANCH   4   6
ATOM      6  C   UNL     1       1.731   8.493  18.738  0.00  0.00    +0.000 A 
ATOM      7  C   UNL     1       1.569   8.482  20.133  0.00  0.00    +0.000 A 
ATOM      8  C   UNL     1       0.714   9.381  20.781  0.00  0.00    +0.000 A 
ATOM      9  C   UNL     1       0.026  10.330  20.030  0.00  0.00    +0.000 A 
ATOM     10  C   UNL     1       0.189  10.381  18.641  0.00  0.00    +0.000 A 
ATOM     11  C   UNL     1       1.043   9.464  18.000  0.00  0.00    +0.000 A 
BRANCH   9  12
ATOM     12  N   UNL     1      -0.868  11.279  20.706  0.00  0.00    +0.000 N 
ATOM     13  O   UNL     1      -1.479  12.097  20.008  0.00  0.00    +0.000 OA
ATOM     14  O   UNL     1      -0.962  11.201  21.940  0.00  0.00    +0.000 OA
ENDBRANCH   9  12
ENDBRANCH   4   6
BRANCH   1  15
ATOM     15  C   UNL     1       3.728   4.100  18.023  0.00  0.00    +0.000 A 
ATOM     16  C   UNL     1       2.988   3.154  17.296  0.00  0.00    +0.000 A 
ATOM     17  C   UNL     1       2.911   1.825  17.715  0.00  0.00    +0.000 A 
ATOM     18  C   UNL     1       3.575   1.426  18.871  0.00  0.00    +0.000 A 
ATOM     19  C   UNL     1       4.341   2.348  19.585  0.00  0.00    +0.000 A 
ATOM     20  C   UNL     1       4.431   3.677  19.157  0.00  0.00    +0.000 A 
ENDBRANCH   1  15
BRANCH   1  21
ATOM     21  C   UNL     1       4.767   6.024  16.842  0.00  0.00    +0.000 C 
BRANCH  21  22
ATOM     22  C   UNL     1       5.918   6.556  17.713  0.00  0.00    +0.000 C 
BRANCH  22  23
ATOM     23  C   UNL     1       7.121   7.041  16.899  0.00  0.00    +0.000 C 
BRANCH  23  26
ATOM     24  C   UNL     1       8.394   8.571  18.369  0.00  0.00    +0.000 C 
ATOM     25  O   UNL     1       8.765   7.637  19.076  0.00  0.00    +0.000 OA
ATOM     26  N   UNL     1       7.531   8.378  17.306  0.00  0.00    +0.000 N 
ATOM     27  H   UNL     1       7.231   9.157  16.741  0.00  0.00    +0.000 HD
BRANCH  24  31
ATOM     28  C   UNL     1       9.633  12.656  19.079  0.00  0.00    +0.000 A 
ATOM     29  C   UNL     1       8.982  12.277  17.901  0.00  0.00    +0.000 A 
ATOM     30  C   UNL     1       8.609  10.946  17.691  0.00  0.00    +0.000 A 
ATOM     31  C   UNL     1       8.898   9.958  18.643  0.00  0.00    +0.000 A 
ATOM     32  C   UNL     1       9.592  10.329  19.802  0.00  0.00    +0.000 A 
ATOM     33  C   UNL     1       9.956  11.668  20.016  0.00  0.00    +0.000 A 
BRANCH  28  34
ATOM     34  C   UNL     1       9.915  14.117  19.354  0.00  0.00    +0.000 C 
BRANCH  34  35
ATOM     35  C   UNL     1      10.254  14.850  18.052  0.00  0.00    +0.000 C 
BRANCH  35  37
ATOM     36  C   UNL     1       7.959  15.823  17.819  0.00  0.00    +0.000 C 
ATOM     37  C   UNL     1       9.448  16.134  17.869  0.00  0.00    +0.000 C 
ENDBRANCH  35  37
ENDBRANCH  34  35
ENDBRANCH  28  34
ENDBRANCH  24  31
ENDBRANCH  23  26
ENDBRANCH  22  23
ENDBRANCH  21  22
ENDBRANCH   1  21
TORSDOF 11
ENDMDL
MODEL 4
REMARK VINA RESULT:      -7.6      3.921     12.285
REMARK  Name = 
REMARK  12 active torsions:
REMARK  status: ('A' for Active; 'I' for Inactive)
REMARK    1  A    between atoms: C_1  and  C_2
REMARK    2  A    between atoms: C_2  and  C_3
REMARK    3  A    between atoms: C_3  and  C_4
REMARK    4  A    between atoms: C_4  and  C_5
REMARK    5  A    between atoms: C_8  and  C_9
REMARK    6  A    between atoms: N_11  and  C_12
REMARK    7  A    between atoms: C_12  and  C_13
REMARK    8  A    between atoms: C_13  and  C_14
REMARK    9  A    between atoms: C_14  and  N_15
REMARK   10  A    between atoms: N_15  and  C_28
REMARK   11  A    between atoms: N_18  and  C_19
REMARK   12  A    between atoms: C_22  and  N_23
REMARK                            x       y       z     vdW  Elec       q    Type
REMARK                         _______ _______ _______ _____ _____    ______ ____
ROOT
ATOM      1  N   UNL     1       1.307   8.876  19.599  0.00  0.00    +0.000 N 
ATOM      2  C   UNL     1       1.929   8.216  18.525  0.00  0.00    +0.000 C 
ATOM      3  O   UNL     1       1.875   8.656  17.375  0.00  0.00    +0.000 OA
ATOM      4  N   UNL     1       2.654   7.076  18.822  0.00  0.00    +0.000 N 
ATOM      5  H   UNL     1       2.388   6.558  19.641  0.00  0.00    +0.000 HD
ENDROOT
BRANCH   4   6
ATOM      6  C   UNL     1       3.546   6.428  17.921  0.00  0.00    +0.000 A 
ATOM      7  C   UNL     1       3.490   5.054  17.632  0.00  0.00    +0.000 A 
ATOM      8  C   UNL     1       4.396   4.450  16.754  0.00  0.00    +0.000 A 
ATOM      9  C   UNL     1       5.364   5.232  16.128  0.00  0.00    +0.000 A 
ATOM     10  C   UNL     1       5.427   6.607  16.377  0.00  0.00    +0.000 A 
ATOM     11  C   UNL     1       4.516   7.201  17.270  0.00  0.00    +0.000 A 
BRANCH   9  12
ATOM     12  N   UNL     1       6.315   4.603  15.202  0.00  0.00    +0.000 N 
ATOM     13  O   UNL     1       5.862   3.866  14.318  0.00  0.00    +0.000 OA
ATOM     14  O   UNL     1       7.520   4.853  15.358  0.00  0.00    +0.000 OA
ENDBRANCH   9  12
ENDBRANCH   4   6
BRANCH   1  15
ATOM     15  C   UNL     1       0.688  10.139  19.284  0.00  0.00    +0.000 A 
ATOM     16  C   UNL     1      -0.642  10.179  18.835  0.00  0.00    +0.000 A 
ATOM     17  C   UNL     1      -1.208  11.366  18.368  0.00  0.00    +0.000 A 
ATOM     18  C   UNL     1      -0.448  12.531  18.346  0.00  0.00    +0.000 A 
ATOM     19  C   UNL     1       0.864  12.514  18.820  0.00  0.00    +0.000 A 
ATOM     20  C   UNL     1       1.427  11.328  19.303  0.00  0.00    +0.000 A 
ENDBRANCH   1  15
BRANCH   1  21
ATOM     21  C   UNL     1       1.296   8.476  21.027  0.00  0.00    +0.000 C 
BRANCH  21  22
ATOM     22  C   UNL     1      -0.031   8.856  21.706  0.00  0.00    +0.000 C 
BRANCH  22  23
ATOM     23  C   UNL     1       0.149   9.772  22.921  0.00  0.00    +0.000 C 
BRANCH  23  26
ATOM     24  C   UNL     1      -1.401  11.683  22.663  0.00  0.00    +0.000 C 
ATOM     25  O   UNL     1      -0.609  12.271  21.930  0.00  0.00    +0.000 OA
ATOM     26  N   UNL     1      -1.087  10.469  23.247  0.00  0.00    +0.000 N 
ATOM     27  H   UNL     1      -1.747  10.005  23.851  0.00  0.00    +0.000 HD
BRANCH  24  31
ATOM     28  C   UNL     1      -5.373  13.318  23.190  0.00  0.00    +0.000 A 
ATOM     29  C   UNL     1      -4.651  13.502  22.007  0.00  0.00    +0.000 A 
ATOM     30  C   UNL     1      -3.363  12.978  21.871  0.00  0.00    +0.000 A 
ATOM     31  C   UNL     1      -2.755  12.276  22.923  0.00  0.00    +0.000 A 
ATOM     32  C   UNL     1      -3.461  12.132  24.124  0.00  0.00    +0.000 A 
ATOM     33  C   UNL     1      -4.759  12.650  24.256  0.00  0.00    +0.000 A 
BRANCH  28  34
ATOM     34  C   UNL     1      -6.813  13.775  23.280  0.00  0.00    +0.000 C 
BRANCH  34  35
ATOM     35  C   UNL     1      -7.365  14.080  21.883  0.00  0.00    +0.000 C 
BRANCH  35  37
ATOM     36  C   UNL     1      -7.914  16.364  22.746  0.00  0.00    +0.000 C 
ATOM     37  C   UNL     1      -7.376  15.572  21.563  0.00  0.00    +0.000 C 
ENDBRANCH  35  37
ENDBRANCH  34  35
ENDBRANCH  28  34
ENDBRANCH  24  31
ENDBRANCH  23  26
ENDBRANCH  22  23
ENDBRANCH  21  22
ENDBRANCH   1  21
TORSDOF 11
ENDMDL
MODEL 5
REMARK VINA RESULT:      -7.6      3.588     10.137
REMARK  Name = 
REMARK  12 active torsions:
REMARK  status: ('A' for Active; 'I' for Inactive)
REMARK    1  A    between atoms: C_1  and  C_2
REMARK    2  A    between atoms: C_2  and  C_3
REMARK    3  A    between atoms: C_3  and  C_4
REMARK    4  A    between atoms: C_4  and  C_5
REMARK    5  A    between atoms: C_8  and  C_9
REMARK    6  A    between atoms: N_11  and  C_12
REMARK    7  A    between atoms: C_12  and  C_13
REMARK    8  A    between atoms: C_13  and  C_14
REMARK    9  A    between atoms: C_14  and  N_15
REMARK   10  A    between atoms: N_15  and  C_28
REMARK   11  A    between atoms: N_18  and  C_19
REMARK   12  A    between atoms: C_22  and  N_23
REMARK                            x       y       z     vdW  Elec       q    Type
REMARK                         _______ _______ _______ _____ _____    ______ ____
ROOT
ATOM      1  N   UNL     1       3.343   5.497  18.770  0.00  0.00    +0.000 N 
ATOM      2  C   UNL     1       4.114   4.845  17.792  0.00  0.00    +0.000 C 
ATOM      3  O   UNL     1       4.145   3.616  17.704  0.00  0.00    +0.000 OA
ATOM      4  N   UNL     1       4.797   5.645  16.894  0.00  0.00    +0.000 N 
ATOM      5  H   UNL     1       5.050   6.570  17.195  0.00  0.00    +0.000 HD
ENDROOT
BRANCH   4   6
ATOM      6  C   UNL     1       5.414   5.173  15.700  0.00  0.00    +0.000 A 
ATOM      7  C   UNL     1       6.775   5.365  15.407  0.00  0.00    +0.000 A 
ATOM      8  C   UNL     1       7.342   4.902  14.214  0.00  0.00    +0.000 A 
ATOM      9  C   UNL     1       6.547   4.211  13.303  0.00  0.00    +0.000 A 
ATOM     10  C   UNL     1       5.194   3.984  13.582  0.00  0.00    +0.000 A 
ATOM     11  C   UNL     1       4.634   4.463  14.780  0.00  0.00    +0.000 A 
BRANCH   9  12
ATOM     12  N   UNL     1       7.138   3.720  12.052  0.00  0.00    +0.000 N 
ATOM     13  O   UNL     1       7.037   2.514  11.798  0.00  0.00    +0.000 OA
ATOM     14  O   UNL     1       7.701   4.547  11.319  0.00  0.00    +0.000 OA
ENDBRANCH   9  12
ENDBRANCH   4   6
BRANCH   1  15
ATOM     15  C   UNL     1       2.525   4.644  19.594  0.00  0.00    +0.000 A 
ATOM     16  C   UNL     1       2.865   4.427  20.939  0.00  0.00    +0.000 A 
ATOM     17  C   UNL     1       2.187   3.480  21.709  0.00  0.00    +0.000 A 
ATOM     18  C   UNL     1       1.158   2.737  21.140  0.00  0.00    +0.000 A 
ATOM     19  C   UNL     1       0.787   2.965  19.815  0.00  0.00    +0.000 A 
ATOM     20  C   UNL     1       1.455   3.925  19.047  0.00  0.00    +0.000 A 
ENDBRANCH   1  15
BRANCH   1  21
ATOM     21  C   UNL     1       3.199   6.957  18.989  0.00  0.00    +0.000 C 
BRANCH  21  22
ATOM     22  C   UNL     1       2.484   7.634  17.807  0.00  0.00    +0.000 C 
BRANCH  22  23
ATOM     23  C   UNL     1       2.164   9.111  18.055  0.00  0.00    +0.000 C 
BRANCH  23  26
ATOM     24  C   UNL     1      -0.087   9.931  18.672  0.00  0.00    +0.000 C 
ATOM     25  O   UNL     1       0.242  10.053  19.849  0.00  0.00    +0.000 OA
ATOM     26  N   UNL     1       0.780   9.416  17.724  0.00  0.00    +0.000 N 
ATOM     27  H   UNL     1       0.489   9.318  16.765  0.00  0.00    +0.000 HD
BRANCH  24  31
ATOM     28  C   UNL     1      -3.967  11.417  17.459  0.00  0.00    +0.000 A 
ATOM     29  C   UNL     1      -3.350  11.843  18.640  0.00  0.00    +0.000 A 
ATOM     30  C   UNL     1      -2.104  11.333  19.015  0.00  0.00    +0.000 A 
ATOM     31  C   UNL     1      -1.454  10.367  18.233  0.00  0.00    +0.000 A 
ATOM     32  C   UNL     1      -2.094   9.905  17.075  0.00  0.00    +0.000 A 
ATOM     33  C   UNL     1      -3.340  10.427  16.693  0.00  0.00    +0.000 A 
BRANCH  28  34
ATOM     34  C   UNL     1      -5.250  12.070  16.995  0.00  0.00    +0.000 C 
BRANCH  34  35
ATOM     35  C   UNL     1      -6.028  12.629  18.191  0.00  0.00    +0.000 C 
BRANCH  35  37
ATOM     36  C   UNL     1      -7.568  12.108  20.094  0.00  0.00    +0.000 C 
ATOM     37  C   UNL     1      -7.064  11.648  18.734  0.00  0.00    +0.000 C 
ENDBRANCH  35  37
ENDBRANCH  34  35
ENDBRANCH  28  34
ENDBRANCH  24  31
ENDBRANCH  23  26
ENDBRANCH  22  23
ENDBRANCH  21  22
ENDBRANCH   1  21
TORSDOF 11
ENDMDL
MODEL 6
REMARK VINA RESULT:      -7.6      4.062      7.088
REMARK  Name = 
REMARK  12 active torsions:
REMARK  status: ('A' for Active; 'I' for Inactive)
REMARK    1  A    between atoms: C_1  and  C_2
REMARK    2  A    between atoms: C_2  and  C_3
REMARK    3  A    between atoms: C_3  and  C_4
REMARK    4  A    between atoms: C_4  and  C_5
REMARK    5  A    between atoms: C_8  and  C_9
REMARK    6  A    between atoms: N_11  and  C_12
REMARK    7  A    between atoms: C_12  and  C_13
REMARK    8  A    between atoms: C_13  and  C_14
REMARK    9  A    between atoms: C_14  and  N_15
REMARK   10  A    between atoms: N_15  and  C_28
REMARK   11  A    between atoms: N_18  and  C_19
REMARK   12  A    between atoms: C_22  and  N_23
REMARK                            x       y       z     vdW  Elec       q    Type
REMARK                         _______ _______ _______ _____ _____    ______ ____
ROOT
ATOM      1  N   UNL     1       0.130  10.995  18.659  0.00  0.00    +0.000 N 
ATOM      2  C   UNL     1       0.637  12.307  18.672  0.00  0.00    +0.000 C 
ATOM      3  O   UNL     1      -0.062  13.275  18.367  0.00  0.00    +0.000 OA
ATOM      4  N   UNL     1       1.943  12.471  19.097  0.00  0.00    +0.000 N 
ATOM      5  H   UNL     1       2.570  11.694  18.982  0.00  0.00    +0.000 HD
ENDROOT
BRANCH   4   6
ATOM      6  C   UNL     1       2.537  13.726  19.414  0.00  0.00    +0.000 A 
ATOM      7  C   UNL     1       2.623  14.231  20.722  0.00  0.00    +0.000 A 
ATOM      8  C   UNL     1       3.198  15.478  20.992  0.00  0.00    +0.000 A 
ATOM      9  C   UNL     1       3.724  16.228  19.944  0.00  0.00    +0.000 A 
ATOM     10  C   UNL     1       3.675  15.738  18.634  0.00  0.00    +0.000 A 
ATOM     11  C   UNL     1       3.085  14.487  18.375  0.00  0.00    +0.000 A 
BRANCH   9  12
ATOM     12  N   UNL     1       4.333  17.535  20.223  0.00  0.00    +0.000 N 
ATOM     13  O   UNL     1       5.553  17.576  20.420  0.00  0.00    +0.000 OA
ATOM     14  O   UNL     1       3.586  18.525  20.241  0.00  0.00    +0.000 OA
ENDBRANCH   9  12
ENDBRANCH   4   6
BRANCH   1  15
ATOM     15  C   UNL     1      -1.275  10.870  18.359  0.00  0.00    +0.000 A 
ATOM     16  C   UNL     1      -1.702  10.003  17.341  0.00  0.00    +0.000 A 
ATOM     17  C   UNL     1      -3.034   9.987  16.923  0.00  0.00    +0.000 A 
ATOM     18  C   UNL     1      -3.955  10.842  17.519  0.00  0.00    +0.000 A 
ATOM     19  C   UNL     1      -3.552  11.685  18.554  0.00  0.00    +0.000 A 
ATOM     20  C   UNL     1      -2.220  11.690  18.985  0.00  0.00    +0.000 A 
ENDBRANCH   1  15
BRANCH   1  21
ATOM     21  C   UNL     1       0.842   9.742  19.009  0.00  0.00    +0.000 C 
BRANCH  21  22
ATOM     22  C   UNL     1       0.832   9.497  20.528  0.00  0.00    +0.000 C 
BRANCH  22  23
ATOM     23  C   UNL     1       1.296   8.091  20.919  0.00  0.00    +0.000 C 
BRANCH  23  26
ATOM     24  C   UNL     1       2.468   6.175  19.879  0.00  0.00    +0.000 C 
ATOM     25  O   UNL     1       2.060   5.409  20.748  0.00  0.00    +0.000 OA
ATOM     26  N   UNL     1       2.190   7.530  19.915  0.00  0.00    +0.000 N 
ATOM     27  H   UNL     1       2.540   8.144  19.197  0.00  0.00    +0.000 HD
BRANCH  24  31
ATOM     28  C   UNL     1       4.979   4.753  16.654  0.00  0.00    +0.000 A 
ATOM     29  C   UNL     1       4.960   6.098  17.036  0.00  0.00    +0.000 A 
ATOM     30  C   UNL     1       4.126   6.533  18.069  0.00  0.00    +0.000 A 
ATOM     31  C   UNL     1       3.273   5.638  18.732  0.00  0.00    +0.000 A 
ATOM     32  C   UNL     1       3.258   4.299  18.318  0.00  0.00    +0.000 A 
ATOM     33  C   UNL     1       4.104   3.862  17.287  0.00  0.00    +0.000 A 
BRANCH  28  34
ATOM     34  C   UNL     1       5.978   4.269  15.626  0.00  0.00    +0.000 C 
BRANCH  34  35
ATOM     35  C   UNL     1       5.376   4.346  14.218  0.00  0.00    +0.000 C 
BRANCH  35  37
ATOM     36  C   UNL     1       5.614   3.080  12.072  0.00  0.00    +0.000 C 
ATOM     37  C   UNL     1       6.347   3.887  13.134  0.00  0.00    +0.000 C 
ENDBRANCH  35  37
ENDBRANCH  34  35
ENDBRANCH  28  34
ENDBRANCH  24  31
ENDBRANCH  23  26
ENDBRANCH  22  23
ENDBRANCH  21  22
ENDBRANCH   1  21
TORSDOF 11
ENDMDL
MODEL 7
REMARK VINA RESULT:      -7.5      3.729      8.017
REMARK  Name = 
REMARK  12 active torsions:
REMARK  status: ('A' for Active; 'I' for Inactive)
REMARK    1  A    between atoms: C_1  and  C_2
REMARK    2  A    between atoms: C_2  and  C_3
REMARK    3  A    between atoms: C_3  and  C_4
REMARK    4  A    between atoms: C_4  and  C_5
REMARK    5  A    between atoms: C_8  and  C_9
REMARK    6  A    between atoms: N_11  and  C_12
REMARK    7  A    between atoms: C_12  and  C_13
REMARK    8  A    between atoms: C_13  and  C_14
REMARK    9  A    between atoms: C_14  and  N_15
REMARK   10  A    between atoms: N_15  and  C_28
REMARK   11  A    between atoms: N_18  and  C_19
REMARK   12  A    between atoms: C_22  and  N_23
REMARK                            x       y       z     vdW  Elec       q    Type
REMARK                         _______ _______ _______ _____ _____    ______ ____
ROOT
ATOM      1  N   UNL     1       0.403  12.683  20.942  0.00  0.00    +0.000 N 
ATOM      2  C   UNL     1      -0.743  13.106  21.637  0.00  0.00    +0.000 C 
ATOM      3  O   UNL     1      -0.988  14.301  21.815  0.00  0.00    +0.000 OA
ATOM      4  N   UNL     1      -1.617  12.124  22.067  0.00  0.00    +0.000 N 
ATOM      5  H   UNL     1      -1.239  11.209  22.238  0.00  0.00    +0.000 HD
ENDROOT
BRANCH   4   6
ATOM      6  C   UNL     1      -2.932  12.370  22.554  0.00  0.00    +0.000 A 
ATOM      7  C   UNL     1      -3.262  12.371  23.920  0.00  0.00    +0.000 A 
ATOM      8  C   UNL     1      -4.571  12.599  24.360  0.00  0.00    +0.000 A 
ATOM      9  C   UNL     1      -5.569  12.859  23.425  0.00  0.00    +0.000 A 
ATOM     10  C   UNL     1      -5.264  12.890  22.059  0.00  0.00    +0.000 A 
ATOM     11  C   UNL     1      -3.946  12.649  21.630  0.00  0.00    +0.000 A 
BRANCH   9  12
ATOM     12  N   UNL     1      -6.943  13.104  23.882  0.00  0.00    +0.000 N 
ATOM     13  O   UNL     1      -7.715  12.140  23.940  0.00  0.00    +0.000 OA
ATOM     14  O   UNL     1      -7.249  14.267  24.187  0.00  0.00    +0.000 OA
ENDBRANCH   9  12
ENDBRANCH   4   6
BRANCH   1  15
ATOM     15  C   UNL     1       1.216  13.730  20.376  0.00  0.00    +0.000 A 
ATOM     16  C   UNL     1       2.411  14.112  21.006  0.00  0.00    +0.000 A 
ATOM     17  C   UNL     1       3.127  15.228  20.572  0.00  0.00    +0.000 A 
ATOM     18  C   UNL     1       2.654  15.978  19.499  0.00  0.00    +0.000 A 
ATOM     19  C   UNL     1       1.486  15.591  18.844  0.00  0.00    +0.000 A 
ATOM     20  C   UNL     1       0.775  14.463  19.268  0.00  0.00    +0.000 A 
ENDBRANCH   1  15
BRANCH   1  21
ATOM     21  C   UNL     1       0.821  11.291  20.643  0.00  0.00    +0.000 C 
BRANCH  21  22
ATOM     22  C   UNL     1       1.177  11.120  19.156  0.00  0.00    +0.000 C 
BRANCH  22  23
ATOM     23  C   UNL     1       0.496   9.912  18.504  0.00  0.00    +0.000 C 
BRANCH  23  26
ATOM     24  C   UNL     1       2.050   7.999  18.714  0.00  0.00    +0.000 C 
ATOM     25  O   UNL     1       1.842   7.918  19.922  0.00  0.00    +0.000 OA
ATOM     26  N   UNL     1       1.474   8.992  17.942  0.00  0.00    +0.000 N 
ATOM     27  H   UNL     1       1.663   9.047  16.954  0.00  0.00    +0.000 HD
BRANCH  24  31
ATOM     28  C   UNL     1       4.789   5.232  16.824  0.00  0.00    +0.000 A 
ATOM     29  C   UNL     1       4.852   6.609  16.589  0.00  0.00    +0.000 A 
ATOM     30  C   UNL     1       3.944   7.478  17.199  0.00  0.00    +0.000 A 
ATOM     31  C   UNL     1       2.934   6.989  18.042  0.00  0.00    +0.000 A 
ATOM     32  C   UNL     1       2.842   5.605  18.241  0.00  0.00    +0.000 A 
ATOM     33  C   UNL     1       3.762   4.735  17.636  0.00  0.00    +0.000 A 
BRANCH  28  34
ATOM     34  C   UNL     1       5.856   4.316  16.265  0.00  0.00    +0.000 C 
BRANCH  34  35
ATOM     35  C   UNL     1       7.248   4.798  16.686  0.00  0.00    +0.000 C 
BRANCH  35  37
ATOM     36  C   UNL     1       7.759   6.126  18.745  0.00  0.00    +0.000 C 
ATOM     37  C   UNL     1       7.464   4.738  18.196  0.00  0.00    +0.000 C 
ENDBRANCH  35  37
ENDBRANCH  34  35
ENDBRANCH  28  34
ENDBRANCH  24  31
ENDBRANCH  23  26
ENDBRANCH  22  23
ENDBRANCH  21  22
ENDBRANCH   1  21
TORSDOF 11
ENDMDL
MODEL 8
REMARK VINA RESULT:      -7.5      4.151      7.847
REMARK  Name = 
REMARK  12 active torsions:
REMARK  status: ('A' for Active; 'I' for Inactive)
REMARK    1  A    between atoms: C_1  and  C_2
REMARK    2  A    between atoms: C_2  and  C_3
REMARK    3  A    between atoms: C_3  and  C_4
REMARK    4  A    between atoms: C_4  and  C_5
REMARK    5  A    between atoms: C_8  and  C_9
REMARK    6  A    between atoms: N_11  and  C_12
REMARK    7  A    between atoms: C_12  and  C_13
REMARK    8  A    between atoms: C_13  and  C_14
REMARK    9  A    between atoms: C_14  and  N_15
REMARK   10  A    between atoms: N_15  and  C_28
REMARK   11  A    between atoms: N_18  and  C_19
REMARK   12  A    between atoms: C_22  and  N_23
REMARK                            x       y       z     vdW  Elec       q    Type
REMARK                         _______ _______ _______ _____ _____    ______ ____
ROOT
ATOM      1  N   UNL     1      -0.119  11.100  18.707  0.00  0.00    +0.000 N 
ATOM      2  C   UNL     1       0.515  12.348  18.578  0.00  0.00    +0.000 C 
ATOM      3  O   UNL     1      -0.064  13.321  18.092  0.00  0.00    +0.000 OA
ATOM      4  N   UNL     1       1.802  12.454  19.073  0.00  0.00    +0.000 N 
ATOM      5  H   UNL     1       2.354  11.614  19.114  0.00  0.00    +0.000 HD
ENDROOT
BRANCH   4   6
ATOM      6  C   UNL     1       2.498  13.682  19.259  0.00  0.00    +0.000 A 
ATOM      7  C   UNL     1       2.469  14.413  20.459  0.00  0.00    +0.000 A 
ATOM      8  C   UNL     1       3.151  15.626  20.598  0.00  0.00    +0.000 A 
ATOM      9  C   UNL     1       3.901  16.113  19.531  0.00  0.00    +0.000 A 
ATOM     10  C   UNL     1       3.969  15.393  18.332  0.00  0.00    +0.000 A 
ATOM     11  C   UNL     1       3.270  14.179  18.202  0.00  0.00    +0.000 A 
BRANCH   9  12
ATOM     12  N   UNL     1       4.623  17.384  19.673  0.00  0.00    +0.000 N 
ATOM     13  O   UNL     1       5.650  17.545  19.004  0.00  0.00    +0.000 OA
ATOM     14  O   UNL     1       4.155  18.226  20.455  0.00  0.00    +0.000 OA
ENDBRANCH   9  12
ENDBRANCH   4   6
BRANCH   1  15
ATOM     15  C   UNL     1      -1.507  11.060  18.322  0.00  0.00    +0.000 A 
ATOM     16  C   UNL     1      -2.453  11.828  19.020  0.00  0.00    +0.000 A 
ATOM     17  C   UNL     1      -3.820  11.681  18.775  0.00  0.00    +0.000 A 
ATOM     18  C   UNL     1      -4.256  10.762  17.826  0.00  0.00    +0.000 A 
ATOM     19  C   UNL     1      -3.327  10.016  17.102  0.00  0.00    +0.000 A 
ATOM     20  C   UNL     1      -1.956  10.173  17.336  0.00  0.00    +0.000 A 
ENDBRANCH   1  15
BRANCH   1  21
ATOM     21  C   UNL     1       0.442   9.851  19.279  0.00  0.00    +0.000 C 
BRANCH  21  22
ATOM     22  C   UNL     1       0.293   9.819  20.809  0.00  0.00    +0.000 C 
BRANCH  22  23
ATOM     23  C   UNL     1       0.751   8.498  21.436  0.00  0.00    +0.000 C 
BRANCH  23  26
ATOM     24  C   UNL     1       1.868   6.551  20.394  0.00  0.00    +0.000 C 
ATOM     25  O   UNL     1       1.027   5.781  20.850  0.00  0.00    +0.000 OA
ATOM     26  N   UNL     1       1.845   7.904  20.680  0.00  0.00    +0.000 N 
ATOM     27  H   UNL     1       2.548   8.520  20.302  0.00  0.00    +0.000 HD
BRANCH  24  31
ATOM     28  C   UNL     1       5.047   5.268  17.753  0.00  0.00    +0.000 A 
ATOM     29  C   UNL     1       4.292   6.416  17.495  0.00  0.00    +0.000 A 
ATOM     30  C   UNL     1       3.259   6.797  18.356  0.00  0.00    +0.000 A 
ATOM     31  C   UNL     1       2.940   6.028  19.484  0.00  0.00    +0.000 A 
ATOM     32  C   UNL     1       3.666   4.852  19.717  0.00  0.00    +0.000 A 
ATOM     33  C   UNL     1       4.711   4.477  18.858  0.00  0.00    +0.000 A 
BRANCH  28  34
ATOM     34  C   UNL     1       6.245   4.937  16.890  0.00  0.00    +0.000 C 
BRANCH  34  35
ATOM     35  C   UNL     1       7.177   6.149  16.781  0.00  0.00    +0.000 C 
BRANCH  35  37
ATOM     36  C   UNL     1       8.118   5.673  19.051  0.00  0.00    +0.000 C 
ATOM     37  C   UNL     1       7.535   6.743  18.140  0.00  0.00    +0.000 C 
ENDBRANCH  35  37
ENDBRANCH  34  35
ENDBRANCH  28  34
ENDBRANCH  24  31
ENDBRANCH  23  26
ENDBRANCH  22  23
ENDBRANCH  21  22
ENDBRANCH   1  21
TORSDOF 11
ENDMDL
MODEL 9
REMARK VINA RESULT:      -7.5      4.275      7.532
REMARK  Name = 
REMARK  12 active torsions:
REMARK  status: ('A' for Active; 'I' for Inactive)
REMARK    1  A    between atoms: C_1  and  C_2
REMARK    2  A    between atoms: C_2  and  C_3
REMARK    3  A    between atoms: C_3  and  C_4
REMARK    4  A    between atoms: C_4  and  C_5
REMARK    5  A    between atoms: C_8  and  C_9
REMARK    6  A    between atoms: N_11  and  C_12
REMARK    7  A    between atoms: C_12  and  C_13
REMARK    8  A    between atoms: C_13  and  C_14
REMARK    9  A    between atoms: C_14  and  N_15
REMARK   10  A    between atoms: N_15  and  C_28
REMARK   11  A    between atoms: N_18  and  C_19
REMARK   12  A    between atoms: C_22  and  N_23
REMARK                            x       y       z     vdW  Elec       q    Type
REMARK                         _______ _______ _______ _____ _____    ______ ____
ROOT
ATOM      1  N   UNL     1      -0.481  11.763  19.399  0.00  0.00    +0.000 N 
ATOM      2  C   UNL     1       0.365  12.816  19.010  0.00  0.00    +0.000 C 
ATOM      3  O   UNL     1      -0.056  13.783  18.372  0.00  0.00    +0.000 OA
ATOM      4  N   UNL     1       1.683  12.749  19.422  0.00  0.00    +0.000 N 
ATOM      5  H   UNL     1       2.068  11.837  19.599  0.00  0.00    +0.000 HD
ENDROOT
BRANCH   4   6
ATOM      6  C   UNL     1       2.611  13.826  19.343  0.00  0.00    +0.000 A 
ATOM      7  C   UNL     1       3.399  14.086  18.209  0.00  0.00    +0.000 A 
ATOM      8  C   UNL     1       4.313  15.144  18.175  0.00  0.00    +0.000 A 
ATOM      9  C   UNL     1       4.429  15.981  19.282  0.00  0.00    +0.000 A 
ATOM     10  C   UNL     1       3.638  15.761  20.416  0.00  0.00    +0.000 A 
ATOM     11  C   UNL     1       2.730  14.687  20.441  0.00  0.00    +0.000 A 
BRANCH   9  12
ATOM     12  N   UNL     1       5.383  17.096  19.250  0.00  0.00    +0.000 N 
ATOM     13  O   UNL     1       5.053  18.158  19.792  0.00  0.00    +0.000 OA
ATOM     14  O   UNL     1       6.470  16.906  18.683  0.00  0.00    +0.000 OA
ENDBRANCH   9  12
ENDBRANCH   4   6
BRANCH   1  15
ATOM     15  C   UNL     1      -1.878  11.934  19.087  0.00  0.00    +0.000 A 
ATOM     16  C   UNL     1      -2.749  12.491  20.037  0.00  0.00    +0.000 A 
ATOM     17  C   UNL     1      -4.127  12.514  19.822  0.00  0.00    +0.000 A 
ATOM     18  C   UNL     1      -4.653  11.979  18.650  0.00  0.00    +0.000 A 
ATOM     19  C   UNL     1      -3.797  11.452  17.683  0.00  0.00    +0.000 A 
ATOM     20  C   UNL     1      -2.414  11.442  17.891  0.00  0.00    +0.000 A 
ENDBRANCH   1  15
BRANCH   1  21
ATOM     21  C   UNL     1      -0.124  10.549  20.173  0.00  0.00    +0.000 C 
BRANCH  21  22
ATOM     22  C   UNL     1       0.609   9.519  19.296  0.00  0.00    +0.000 C 
BRANCH  22  23
ATOM     23  C   UNL     1       1.336   8.441  20.104  0.00  0.00    +0.000 C 
BRANCH  23  26
ATOM     24  C   UNL     1       2.541   6.394  19.411  0.00  0.00    +0.000 C 
ATOM     25  O   UNL     1       1.968   5.725  20.267  0.00  0.00    +0.000 OA
ATOM     26  N   UNL     1       2.335   7.757  19.295  0.00  0.00    +0.000 N 
ATOM     27  H   UNL     1       2.820   8.290  18.590  0.00  0.00    +0.000 HD
BRANCH  24  31
ATOM     28  C   UNL     1       5.043   4.336  16.541  0.00  0.00    +0.000 A 
ATOM     29  C   UNL     1       4.093   3.658  17.312  0.00  0.00    +0.000 A 
ATOM     30  C   UNL     1       3.310   4.345  18.244  0.00  0.00    +0.000 A 
ATOM     31  C   UNL     1       3.474   5.724  18.445  0.00  0.00    +0.000 A 
ATOM     32  C   UNL     1       4.458   6.394  17.707  0.00  0.00    +0.000 A 
ATOM     33  C   UNL     1       5.235   5.704  16.763  0.00  0.00    +0.000 A 
BRANCH  28  34
ATOM     34  C   UNL     1       5.790   3.608  15.445  0.00  0.00    +0.000 C 
BRANCH  34  35
ATOM     35  C   UNL     1       5.749   4.416  14.143  0.00  0.00    +0.000 C 
BRANCH  35  37
ATOM     36  C   UNL     1       7.052   4.089  12.031  0.00  0.00    +0.000 C 
ATOM     37  C   UNL     1       5.928   3.547  12.901  0.00  0.00    +0.000 C 
ENDBRANCH  35  37
ENDBRANCH  34  35
ENDBRANCH  28  34
ENDBRANCH  24  31
ENDBRANCH  23  26
ENDBRANCH  22  23
ENDBRANCH  21  22
ENDBRANCH   1  21
TORSDOF 11
ENDMDL
