MODEL 1
REMARK VINA RESULT:      -7.7      0.000      0.000
REMARK  Name = 
REMARK  10 active torsions:
REMARK  status: ('A' for Active; 'I' for Inactive)
REMARK    1  A    between atoms: C_1  and  C_2
REMARK    2  A    between atoms: C_2  and  C_3
REMARK    3  A    between atoms: C_3  and  C_4
REMARK    4  A    between atoms: C_4  and  N_5
REMARK    5  A    between atoms: C_8  and  O_9
REMARK    6  A    between atoms: C_8  and  C_10
REMARK    7  A    between atoms: C_10  and  C_11
REMARK    8  A    between atoms: C_11  and  C_13
REMARK    9  A    between atoms: C_14  and  C_15
REMARK   10  A    between atoms: C_18  and  C_19
REMARK                            x       y       z     vdW  Elec       q    Type
REMARK                         _______ _______ _______ _____ _____    ______ ____
ROOT
ATOM      1  N   UNL     1       6.645   5.700  17.641  0.00  0.00    +0.000 N 
ATOM      2  C   UNL     1       5.532   5.286  18.378  0.00  0.00    +0.000 C 
ATOM      3  O   UNL     1       5.278   5.514  19.552  0.00  0.00    +0.000 OA
ATOM      4  C   UNL     1       4.607   4.486  17.416  0.00  0.00    +0.000 C 
ATOM      5  C   UNL     1       5.347   4.587  16.111  0.00  0.00    +0.000 A 
ATOM      6  C   UNL     1       5.019   4.041  14.878  0.00  0.00    +0.000 A 
ATOM      7  C   UNL     1       5.963   4.133  13.857  0.00  0.00    +0.000 A 
ATOM      8 BR   UNL     1       5.591   3.345  12.178  0.00  0.00    +0.000 Br
ATOM      9  C   UNL     1       7.198   4.764  14.065  0.00  0.00    +0.000 A 
ATOM     10  C   UNL     1       7.508   5.330  15.307  0.00  0.00    +0.000 A 
ATOM     11  C   UNL     1       6.566   5.245  16.313  0.00  0.00    +0.000 A 
ENDROOT
BRANCH   4  12
ATOM     12  O   UNL     1       3.338   5.123  17.278  0.00  0.00    +0.000 OA
ATOM     13  H   UNL     1       2.672   4.469  17.561  0.00  0.00    +0.000 HD
ENDBRANCH   4  12
BRANCH   1  14
ATOM     14  C   UNL     1       7.731   6.477  18.196  0.00  0.00    +0.000 C 
BRANCH  14  15
ATOM     15  C   UNL     1       7.766   7.938  17.737  0.00  0.00    +0.000 C 
BRANCH  15  17
ATOM     16  C   UNL     1       8.757  10.227  18.027  0.00  0.00    +0.000 C 
ATOM     17  C   UNL     1       8.620   8.838  18.630  0.00  0.00    +0.000 C 
ENDBRANCH  15  17
ENDBRANCH  14  15
ENDBRANCH   1  14
BRANCH   4  18
ATOM     18  C   UNL     1       4.386   3.056  17.909  0.00  0.00    +0.000 C 
BRANCH  18  19
ATOM     19  C   UNL     1       2.987   2.784  18.437  0.00  0.00    +0.000 C 
ATOM     20  O   UNL     1       2.032   2.594  17.689  0.00  0.00    +0.000 OA
BRANCH  19  21
ATOM     21  C   UNL     1       2.786   2.741  19.877  0.00  0.00    +0.000 A 
ATOM     22  C   UNL     1       3.561   2.165  20.923  0.00  0.00    +0.000 A 
ATOM     23  C   UNL     1       4.857   1.443  20.868  0.00  0.00    +0.000 C 
ATOM     24  N   UNL     1       2.992   2.362  22.119  0.00  0.00    +0.000 NA
ATOM     25  N   UNL     1       1.889   3.074  21.852  0.00  0.00    +0.000 N 
ATOM     26  C   UNL     1       1.717   3.333  20.526  0.00  0.00    +0.000 A 
ATOM     27  C   UNL     1       0.555   4.093  20.001  0.00  0.00    +0.000 C 
ATOM     28  H   UNL     1       1.294   3.346  22.628  0.00  0.00    +0.000 HD
ENDBRANCH  19  21
ENDBRANCH  18  19
ENDBRANCH   4  18
TORSDOF 7
ENDMDL
MODEL 2
REMARK VINA RESULT:      -7.5      0.264      1.601
REMARK  Name = 
REMARK  10 active torsions:
REMARK  status: ('A' for Active; 'I' for Inactive)
REMARK    1  A    between atoms: C_1  and  C_2
REMARK    2  A    between atoms: C_2  and  C_3
REMARK    3  A    between atoms: C_3  and  C_4
REMARK    4  A    between atoms: C_4  and  N_5
REMARK    5  A    between atoms: C_8  and  O_9
REMARK    6  A    between atoms: C_8  and  C_10
REMARK    7  A    between atoms: C_10  and  C_11
REMARK    8  A    between atoms: C_11  and  C_13
REMARK    9  A    between atoms: C_14  and  C_15
REMARK   10  A    between atoms: C_18  and  C_19
REMARK                            x       y       z     vdW  Elec       q    Type
REMARK                         _______ _______ _______ _____ _____    ______ ____
ROOT
ATOM      1  N   UNL     1       6.671   5.662  17.659  0.00  0.00    +0.000 N 
ATOM      2  C   UNL     1       5.578   5.209  18.401  0.00  0.00    +0.000 C 
ATOM      3  O   UNL     1       5.327   5.421  19.579  0.00  0.00    +0.000 OA
ATOM      4  C   UNL     1       4.669   4.389  17.440  0.00  0.00    +0.000 C 
ATOM      5  C   UNL     1       5.395   4.523  16.130  0.00  0.00    +0.000 A 
ATOM      6  C   UNL     1       5.073   3.976  14.896  0.00  0.00    +0.000 A 
ATOM      7  C   UNL     1       6.005   4.104  13.868  0.00  0.00    +0.000 A 
ATOM      8 BR   UNL     1       5.644   3.318  12.186  0.00  0.00    +0.000 Br
ATOM      9  C   UNL     1       7.223   4.770  14.070  0.00  0.00    +0.000 A 
ATOM     10  C   UNL     1       7.526   5.335  15.314  0.00  0.00    +0.000 A 
ATOM     11  C   UNL     1       6.595   5.215  16.328  0.00  0.00    +0.000 A 
ENDROOT
BRANCH   4  12
ATOM     12  O   UNL     1       3.381   4.989  17.317  0.00  0.00    +0.000 OA
ATOM     13  H   UNL     1       3.003   4.656  16.481  0.00  0.00    +0.000 HD
ENDBRANCH   4  12
BRANCH   1  14
ATOM     14  C   UNL     1       7.739   6.467  18.210  0.00  0.00    +0.000 C 
BRANCH  14  15
ATOM     15  C   UNL     1       7.751   7.921  17.730  0.00  0.00    +0.000 C 
BRANCH  15  17
ATOM     16  C   UNL     1       8.673  10.241  18.001  0.00  0.00    +0.000 C 
ATOM     17  C   UNL     1       8.608   8.843  18.597  0.00  0.00    +0.000 C 
ENDBRANCH  15  17
ENDBRANCH  14  15
ENDBRANCH   1  14
BRANCH   4  18
ATOM     18  C   UNL     1       4.495   2.950  17.924  0.00  0.00    +0.000 C 
BRANCH  18  19
ATOM     19  C   UNL     1       3.066   2.576  18.281  0.00  0.00    +0.000 C 
ATOM     20  O   UNL     1       2.253   2.218  17.434  0.00  0.00    +0.000 OA
BRANCH  19  21
ATOM     21  C   UNL     1       2.662   2.641  19.677  0.00  0.00    +0.000 A 
ATOM     22  C   UNL     1       1.443   3.047  20.291  0.00  0.00    +0.000 A 
ATOM     23  C   UNL     1       0.171   3.509  19.681  0.00  0.00    +0.000 C 
ATOM     24  N   UNL     1       1.511   2.950  21.625  0.00  0.00    +0.000 NA
ATOM     25  N   UNL     1       2.737   2.464  21.864  0.00  0.00    +0.000 N 
ATOM     26  C   UNL     1       3.469   2.257  20.733  0.00  0.00    +0.000 A 
ATOM     27  C   UNL     1       4.859   1.738  20.762  0.00  0.00    +0.000 C 
ATOM     28  H   UNL     1       3.010   2.303  22.828  0.00  0.00    +0.000 HD
ENDBRANCH  19  21
ENDBRANCH  18  19
ENDBRANCH   4  18
TORSDOF 7
ENDMDL
MODEL 3
REMARK VINA RESULT:      -7.3      3.430      6.980
REMARK  Name = 
REMARK  10 active torsions:
REMARK  status: ('A' for Active; 'I' for Inactive)
REMARK    1  A    between atoms: C_1  and  C_2
REMARK    2  A    between atoms: C_2  and  C_3
REMARK    3  A    between atoms: C_3  and  C_4
REMARK    4  A    between atoms: C_4  and  N_5
REMARK    5  A    between atoms: C_8  and  O_9
REMARK    6  A    between atoms: C_8  and  C_10
REMARK    7  A    between atoms: C_10  and  C_11
REMARK    8  A    between atoms: C_11  and  C_13
REMARK    9  A    between atoms: C_14  and  C_15
REMARK   10  A    between atoms: C_18  and  C_19
REMARK                            x       y       z     vdW  Elec       q    Type
REMARK                         _______ _______ _______ _____ _____    ______ ____
ROOT
ATOM      1  N   UNL     1       2.628   5.460  20.317  0.00  0.00    +0.000 N 
ATOM      2  C   UNL     1       3.434   5.199  19.206  0.00  0.00    +0.000 C 
ATOM      3  O   UNL     1       4.095   4.196  18.973  0.00  0.00    +0.000 OA
ATOM      4  C   UNL     1       3.322   6.422  18.250  0.00  0.00    +0.000 C 
ATOM      5  C   UNL     1       2.338   7.298  18.975  0.00  0.00    +0.000 A 
ATOM      6  C   UNL     1       1.859   8.551  18.618  0.00  0.00    +0.000 A 
ATOM      7  C   UNL     1       1.082   9.236  19.549  0.00  0.00    +0.000 A 
ATOM      8 BR   UNL     1       0.461  10.974  19.138  0.00  0.00    +0.000 Br
ATOM      9  C   UNL     1       0.785   8.676  20.801  0.00  0.00    +0.000 A 
ATOM     10  C   UNL     1       1.257   7.403  21.140  0.00  0.00    +0.000 A 
ATOM     11  C   UNL     1       2.019   6.722  20.210  0.00  0.00    +0.000 A 
ENDROOT
BRANCH   4  12
ATOM     12  O   UNL     1       2.765   6.041  16.994  0.00  0.00    +0.000 OA
ATOM     13  H   UNL     1       2.935   5.084  16.899  0.00  0.00    +0.000 HD
ENDBRANCH   4  12
BRANCH   1  14
ATOM     14  C   UNL     1       2.471   4.547  21.427  0.00  0.00    +0.000 C 
BRANCH  14  15
ATOM     15  C   UNL     1       1.829   3.205  21.061  0.00  0.00    +0.000 C 
BRANCH  15  17
ATOM     16  C   UNL     1       0.874   2.532  18.838  0.00  0.00    +0.000 C 
ATOM     17  C   UNL     1       0.641   3.338  20.108  0.00  0.00    +0.000 C 
ENDBRANCH  15  17
ENDBRANCH  14  15
ENDBRANCH   1  14
BRANCH   4  18
ATOM     18  C   UNL     1       4.685   7.069  18.005  0.00  0.00    +0.000 C 
BRANCH  18  19
ATOM     19  C   UNL     1       5.342   6.673  16.693  0.00  0.00    +0.000 C 
ATOM     20  O   UNL     1       5.039   7.198  15.626  0.00  0.00    +0.000 OA
BRANCH  19  21
ATOM     21  C   UNL     1       6.366   5.640  16.716  0.00  0.00    +0.000 A 
ATOM     22  C   UNL     1       7.419   5.373  17.636  0.00  0.00    +0.000 A 
ATOM     23  C   UNL     1       7.784   6.061  18.899  0.00  0.00    +0.000 C 
ATOM     24  N   UNL     1       8.139   4.307  17.260  0.00  0.00    +0.000 NA
ATOM     25  N   UNL     1       7.545   3.881  16.138  0.00  0.00    +0.000 N 
ATOM     26  C   UNL     1       6.475   4.639  15.766  0.00  0.00    +0.000 A 
ATOM     27  C   UNL     1       5.677   4.358  14.547  0.00  0.00    +0.000 C 
ATOM     28  H   UNL     1       7.928   3.064  15.672  0.00  0.00    +0.000 HD
ENDBRANCH  19  21
ENDBRANCH  18  19
ENDBRANCH   4  18
TORSDOF 7
ENDMDL
MODEL 4
REMARK VINA RESULT:      -7.1      3.461      7.055
REMARK  Name = 
REMARK  10 active torsions:
REMARK  status: ('A' for Active; 'I' for Inactive)
REMARK    1  A    between atoms: C_1  and  C_2
REMARK    2  A    between atoms: C_2  and  C_3
REMARK    3  A    between atoms: C_3  and  C_4
REMARK    4  A    between atoms: C_4  and  N_5
REMARK    5  A    between atoms: C_8  and  O_9
REMARK    6  A    between atoms: C_8  and  C_10
REMARK    7  A    between atoms: C_10  and  C_11
REMARK    8  A    between atoms: C_11  and  C_13
REMARK    9  A    between atoms: C_14  and  C_15
REMARK   10  A    between atoms: C_18  and  C_19
REMARK                            x       y       z     vdW  Elec       q    Type
REMARK                         _______ _______ _______ _____ _____    ______ ____
ROOT
ATOM      1  N   UNL     1       2.617   5.477  20.142  0.00  0.00    +0.000 N 
ATOM      2  C   UNL     1       3.407   5.233  19.015  0.00  0.00    +0.000 C 
ATOM      3  O   UNL     1       4.039   4.223  18.742  0.00  0.00    +0.000 OA
ATOM      4  C   UNL     1       3.319   6.492  18.104  0.00  0.00    +0.000 C 
ATOM      5  C   UNL     1       2.364   7.367  18.867  0.00  0.00    +0.000 A 
ATOM      6  C   UNL     1       1.916   8.644  18.557  0.00  0.00    +0.000 A 
ATOM      7  C   UNL     1       1.165   9.316  19.519  0.00  0.00    +0.000 A 
ATOM      8 BR   UNL     1       0.587  11.084  19.174  0.00  0.00    +0.000 Br
ATOM      9  C   UNL     1       0.864   8.721  20.753  0.00  0.00    +0.000 A 
ATOM     10  C   UNL     1       1.305   7.425  21.044  0.00  0.00    +0.000 A 
ATOM     11  C   UNL     1       2.041   6.758  20.084  0.00  0.00    +0.000 A 
ENDROOT
BRANCH   4  12
ATOM     12  O   UNL     1       2.741   6.169  16.840  0.00  0.00    +0.000 OA
ATOM     13  H   UNL     1       1.796   5.992  17.009  0.00  0.00    +0.000 HD
ENDBRANCH   4  12
BRANCH   1  14
ATOM     14  C   UNL     1       2.445   4.530  21.221  0.00  0.00    +0.000 C 
BRANCH  14  15
ATOM     15  C   UNL     1       1.242   3.596  21.061  0.00  0.00    +0.000 C 
BRANCH  15  17
ATOM     16  C   UNL     1       0.901   2.459  18.849  0.00  0.00    +0.000 C 
ATOM     17  C   UNL     1       1.542   2.353  20.224  0.00  0.00    +0.000 C 
ENDBRANCH  15  17
ENDBRANCH  14  15
ENDBRANCH   1  14
BRANCH   4  18
ATOM     18  C   UNL     1       4.697   7.111  17.868  0.00  0.00    +0.000 C 
BRANCH  18  19
ATOM     19  C   UNL     1       5.339   6.729  16.545  0.00  0.00    +0.000 C 
ATOM     20  O   UNL     1       5.064   7.303  15.495  0.00  0.00    +0.000 OA
BRANCH  19  21
ATOM     21  C   UNL     1       6.316   5.652  16.535  0.00  0.00    +0.000 A 
ATOM     22  C   UNL     1       6.525   4.573  15.629  0.00  0.00    +0.000 A 
ATOM     23  C   UNL     1       5.816   4.227  14.372  0.00  0.00    +0.000 C 
ATOM     24  N   UNL     1       7.552   3.803  16.014  0.00  0.00    +0.000 NA
ATOM     25  N   UNL     1       8.011   4.389  17.128  0.00  0.00    +0.000 N 
ATOM     26  C   UNL     1       7.311   5.503  17.485  0.00  0.00    +0.000 A 
ATOM     27  C   UNL     1       7.636   6.301  18.693  0.00  0.00    +0.000 C 
ATOM     28  H   UNL     1       8.807   3.970  17.598  0.00  0.00    +0.000 HD
ENDBRANCH  19  21
ENDBRANCH  18  19
ENDBRANCH   4  18
TORSDOF 7
ENDMDL
MODEL 5
REMARK VINA RESULT:      -7.0      1.035      1.715
REMARK  Name = 
REMARK  10 active torsions:
REMARK  status: ('A' for Active; 'I' for Inactive)
REMARK    1  A    between atoms: C_1  and  C_2
REMARK    2  A    between atoms: C_2  and  C_3
REMARK    3  A    between atoms: C_3  and  C_4
REMARK    4  A    between atoms: C_4  and  N_5
REMARK    5  A    between atoms: C_8  and  O_9
REMARK    6  A    between atoms: C_8  and  C_10
REMARK    7  A    between atoms: C_10  and  C_11
REMARK    8  A    between atoms: C_11  and  C_13
REMARK    9  A    between atoms: C_14  and  C_15
REMARK   10  A    between atoms: C_18  and  C_19
REMARK                            x       y       z     vdW  Elec       q    Type
REMARK                         _______ _______ _______ _____ _____    ______ ____
ROOT
ATOM      1  N   UNL     1       6.609   5.141  17.705  0.00  0.00    +0.000 N 
ATOM      2  C   UNL     1       5.359   5.146  18.328  0.00  0.00    +0.000 C 
ATOM      3  O   UNL     1       5.102   5.383  19.499  0.00  0.00    +0.000 OA
ATOM      4  C   UNL     1       4.294   4.828  17.238  0.00  0.00    +0.000 C 
ATOM      5  C   UNL     1       5.136   4.714  15.998  0.00  0.00    +0.000 A 
ATOM      6  C   UNL     1       4.742   4.414  14.702  0.00  0.00    +0.000 A 
ATOM      7  C   UNL     1       5.742   4.195  13.756  0.00  0.00    +0.000 A 
ATOM      8 BR   UNL     1       5.259   3.717  11.991  0.00  0.00    +0.000 Br
ATOM      9  C   UNL     1       7.099   4.284  14.099  0.00  0.00    +0.000 A 
ATOM     10  C   UNL     1       7.482   4.608  15.406  0.00  0.00    +0.000 A 
ATOM     11  C   UNL     1       6.489   4.834  16.338  0.00  0.00    +0.000 A 
ENDROOT
BRANCH   4  12
ATOM     12  O   UNL     1       3.383   5.915  17.080  0.00  0.00    +0.000 OA
ATOM     13  H   UNL     1       3.210   5.989  16.122  0.00  0.00    +0.000 HD
ENDBRANCH   4  12
BRANCH   1  14
ATOM     14  C   UNL     1       7.852   5.400  18.397  0.00  0.00    +0.000 C 
BRANCH  14  15
ATOM     15  C   UNL     1       8.084   6.871  18.758  0.00  0.00    +0.000 C 
BRANCH  15  17
ATOM     16  C   UNL     1       8.229   9.245  17.953  0.00  0.00    +0.000 C 
ATOM     17  C   UNL     1       7.763   7.837  17.617  0.00  0.00    +0.000 C 
ENDBRANCH  15  17
ENDBRANCH  14  15
ENDBRANCH   1  14
BRANCH   4  18
ATOM     18  C   UNL     1       3.498   3.569  17.582  0.00  0.00    +0.000 C 
BRANCH  18  19
ATOM     19  C   UNL     1       2.156   3.836  18.244  0.00  0.00    +0.000 C 
ATOM     20  O   UNL     1       1.149   4.101  17.596  0.00  0.00    +0.000 OA
BRANCH  19  21
ATOM     21  C   UNL     1       2.074   3.763  19.695  0.00  0.00    +0.000 A 
ATOM     22  C   UNL     1       1.959   4.777  20.688  0.00  0.00    +0.000 A 
ATOM     23  C   UNL     1       1.852   6.250  20.543  0.00  0.00    +0.000 C 
ATOM     24  N   UNL     1       1.920   4.253  21.920  0.00  0.00    +0.000 NA
ATOM     25  N   UNL     1       1.980   2.929  21.723  0.00  0.00    +0.000 N 
ATOM     26  C   UNL     1       2.070   2.578  20.410  0.00  0.00    +0.000 A 
ATOM     27  C   UNL     1       2.164   1.166  19.962  0.00  0.00    +0.000 C 
ATOM     28  H   UNL     1       1.960   2.322  22.537  0.00  0.00    +0.000 HD
ENDBRANCH  19  21
ENDBRANCH  18  19
ENDBRANCH   4  18
TORSDOF 7
ENDMDL
MODEL 6
REMARK VINA RESULT:      -7.0      3.061      4.720
REMARK  Name = 
REMARK  10 active torsions:
REMARK  status: ('A' for Active; 'I' for Inactive)
REMARK    1  A    between atoms: C_1  and  C_2
REMARK    2  A    between atoms: C_2  and  C_3
REMARK    3  A    between atoms: C_3  and  C_4
REMARK    4  A    between atoms: C_4  and  N_5
REMARK    5  A    between atoms: C_8  and  O_9
REMARK    6  A    between atoms: C_8  and  C_10
REMARK    7  A    between atoms: C_10  and  C_11
REMARK    8  A    between atoms: C_11  and  C_13
REMARK    9  A    between atoms: C_14  and  C_15
REMARK   10  A    between atoms: C_18  and  C_19
REMARK                            x       y       z     vdW  Elec       q    Type
REMARK                         _______ _______ _______ _____ _____    ______ ____
ROOT
ATOM      1  N   UNL     1       5.335   5.617  16.831  0.00  0.00    +0.000 N 
ATOM      2  C   UNL     1       6.095   4.739  17.608  0.00  0.00    +0.000 C 
ATOM      3  O   UNL     1       7.048   4.057  17.259  0.00  0.00    +0.000 OA
ATOM      4  C   UNL     1       5.539   4.800  19.060  0.00  0.00    +0.000 C 
ATOM      5  C   UNL     1       4.456   5.836  18.939  0.00  0.00    +0.000 A 
ATOM      6  C   UNL     1       3.583   6.301  19.912  0.00  0.00    +0.000 A 
ATOM      7  C   UNL     1       2.549   7.142  19.506  0.00  0.00    +0.000 A 
ATOM      8 BR   UNL     1       1.293   7.750  20.782  0.00  0.00    +0.000 Br
ATOM      9  C   UNL     1       2.401   7.514  18.161  0.00  0.00    +0.000 A 
ATOM     10  C   UNL     1       3.301   7.054  17.193  0.00  0.00    +0.000 A 
ATOM     11  C   UNL     1       4.330   6.229  17.602  0.00  0.00    +0.000 A 
ENDROOT
BRANCH   4  12
ATOM     12  O   UNL     1       6.531   5.273  19.969  0.00  0.00    +0.000 OA
ATOM     13  H   UNL     1       6.867   6.110  19.596  0.00  0.00    +0.000 HD
ENDBRANCH   4  12
BRANCH   1  14
ATOM     14  C   UNL     1       5.556   5.838  15.419  0.00  0.00    +0.000 C 
BRANCH  14  15
ATOM     15  C   UNL     1       5.140   4.668  14.521  0.00  0.00    +0.000 C 
BRANCH  15  17
ATOM     16  C   UNL     1       6.257   3.648  12.516  0.00  0.00    +0.000 C 
ATOM     17  C   UNL     1       6.320   3.831  14.025  0.00  0.00    +0.000 C 
ENDBRANCH  15  17
ENDBRANCH  14  15
ENDBRANCH   1  14
BRANCH   4  18
ATOM     18  C   UNL     1       5.055   3.430  19.533  0.00  0.00    +0.000 C 
BRANCH  18  19
ATOM     19  C   UNL     1       3.864   2.883  18.761  0.00  0.00    +0.000 C 
ATOM     20  O   UNL     1       3.997   2.240  17.724  0.00  0.00    +0.000 OA
BRANCH  19  21
ATOM     21  C   UNL     1       2.529   3.131  19.283  0.00  0.00    +0.000 A 
ATOM     22  C   UNL     1       1.366   3.688  18.679  0.00  0.00    +0.000 A 
ATOM     23  C   UNL     1       1.144   4.168  17.292  0.00  0.00    +0.000 C 
ATOM     24  N   UNL     1       0.342   3.735  19.541  0.00  0.00    +0.000 NA
ATOM     25  N   UNL     1       0.826   3.194  20.666  0.00  0.00    +0.000 N 
ATOM     26  C   UNL     1       2.130   2.811  20.569  0.00  0.00    +0.000 A 
ATOM     27  C   UNL     1       2.875   2.202  21.699  0.00  0.00    +0.000 C 
ATOM     28  H   UNL     1       0.208   3.122  21.469  0.00  0.00    +0.000 HD
ENDBRANCH  19  21
ENDBRANCH  18  19
ENDBRANCH   4  18
TORSDOF 7
ENDMDL
MODEL 7
REMARK VINA RESULT:      -7.0      3.006      4.521
REMARK  Name = 
REMARK  10 active torsions:
REMARK  status: ('A' for Active; 'I' for Inactive)
REMARK    1  A    between atoms: C_1  and  C_2
REMARK    2  A    between atoms: C_2  and  C_3
REMARK    3  A    between atoms: C_3  and  C_4
REMARK    4  A    between atoms: C_4  and  N_5
REMARK    5  A    between atoms: C_8  and  O_9
REMARK    6  A    between atoms: C_8  and  C_10
REMARK    7  A    between atoms: C_10  and  C_11
REMARK    8  A    between atoms: C_11  and  C_13
REMARK    9  A    between atoms: C_14  and  C_15
REMARK   10  A    between atoms: C_18  and  C_19
REMARK                            x       y       z     vdW  Elec       q    Type
REMARK                         _______ _______ _______ _____ _____    ______ ____
ROOT
ATOM      1  N   UNL     1       5.362   5.721  16.732  0.00  0.00    +0.000 N 
ATOM      2  C   UNL     1       6.122   4.819  17.480  0.00  0.00    +0.000 C 
ATOM      3  O   UNL     1       7.078   4.151  17.110  0.00  0.00    +0.000 OA
ATOM      4  C   UNL     1       5.563   4.828  18.932  0.00  0.00    +0.000 C 
ATOM      5  C   UNL     1       4.478   5.865  18.845  0.00  0.00    +0.000 A 
ATOM      6  C   UNL     1       3.602   6.294  19.832  0.00  0.00    +0.000 A 
ATOM      7  C   UNL     1       2.567   7.146  19.452  0.00  0.00    +0.000 A 
ATOM      8 BR   UNL     1       1.306   7.707  20.746  0.00  0.00    +0.000 Br
ATOM      9  C   UNL     1       2.420   7.563  18.121  0.00  0.00    +0.000 A 
ATOM     10  C   UNL     1       3.324   7.140  17.139  0.00  0.00    +0.000 A 
ATOM     11  C   UNL     1       4.354   6.303  17.522  0.00  0.00    +0.000 A 
ENDROOT
BRANCH   4  12
ATOM     12  O   UNL     1       6.553   5.271  19.859  0.00  0.00    +0.000 OA
ATOM     13  H   UNL     1       6.993   6.037  19.442  0.00  0.00    +0.000 HD
ENDBRANCH   4  12
BRANCH   1  14
ATOM     14  C   UNL     1       5.585   5.990  15.329  0.00  0.00    +0.000 C 
BRANCH  14  15
ATOM     15  C   UNL     1       6.329   4.880  14.580  0.00  0.00    +0.000 C 
BRANCH  15  17
ATOM     16  C   UNL     1       6.231   3.472  12.504  0.00  0.00    +0.000 C 
ATOM     17  C   UNL     1       5.430   4.058  13.657  0.00  0.00    +0.000 C 
ENDBRANCH  15  17
ENDBRANCH  14  15
ENDBRANCH   1  14
BRANCH   4  18
ATOM     18  C   UNL     1       5.081   3.441  19.357  0.00  0.00    +0.000 C 
BRANCH  18  19
ATOM     19  C   UNL     1       3.830   2.963  18.638  0.00  0.00    +0.000 C 
ATOM     20  O   UNL     1       3.868   2.486  17.507  0.00  0.00    +0.000 OA
BRANCH  19  21
ATOM     21  C   UNL     1       2.553   3.073  19.324  0.00  0.00    +0.000 A 
ATOM     22  C   UNL     1       2.151   2.705  20.640  0.00  0.00    +0.000 A 
ATOM     23  C   UNL     1       2.938   2.112  21.750  0.00  0.00    +0.000 C 
ATOM     24  N   UNL     1       0.859   2.987  20.854  0.00  0.00    +0.000 NA
ATOM     25  N   UNL     1       0.445   3.551  19.711  0.00  0.00    +0.000 N 
ATOM     26  C   UNL     1       1.419   3.632  18.761  0.00  0.00    +0.000 A 
ATOM     27  C   UNL     1       1.179   4.206  17.414  0.00  0.00    +0.000 C 
ATOM     28  H   UNL     1      -0.522   3.854  19.648  0.00  0.00    +0.000 HD
ENDBRANCH  19  21
ENDBRANCH  18  19
ENDBRANCH   4  18
TORSDOF 7
ENDMDL
MODEL 8
REMARK VINA RESULT:      -7.0      8.714     11.531
REMARK  Name = 
REMARK  10 active torsions:
REMARK  status: ('A' for Active; 'I' for Inactive)
REMARK    1  A    between atoms: C_1  and  C_2
REMARK    2  A    between atoms: C_2  and  C_3
REMARK    3  A    between atoms: C_3  and  C_4
REMARK    4  A    between atoms: C_4  and  N_5
REMARK    5  A    between atoms: C_8  and  O_9
REMARK    6  A    between atoms: C_8  and  C_10
REMARK    7  A    between atoms: C_10  and  C_11
REMARK    8  A    between atoms: C_11  and  C_13
REMARK    9  A    between atoms: C_14  and  C_15
REMARK   10  A    between atoms: C_18  and  C_19
REMARK                            x       y       z     vdW  Elec       q    Type
REMARK                         _______ _______ _______ _____ _____    ______ ____
ROOT
ATOM      1  N   UNL     1      -4.333  11.853  18.258  0.00  0.00    +0.000 N 
ATOM      2  C   UNL     1      -3.308  11.429  17.409  0.00  0.00    +0.000 C 
ATOM      3  O   UNL     1      -3.406  10.977  16.277  0.00  0.00    +0.000 OA
ATOM      4  C   UNL     1      -1.960  11.670  18.149  0.00  0.00    +0.000 C 
ATOM      5  C   UNL     1      -2.415  12.305  19.433  0.00  0.00    +0.000 A 
ATOM      6  C   UNL     1      -1.654  12.722  20.516  0.00  0.00    +0.000 A 
ATOM      7  C   UNL     1      -2.330  13.122  21.667  0.00  0.00    +0.000 A 
ATOM      8 BR   UNL     1      -1.339  13.637  23.193  0.00  0.00    +0.000 Br
ATOM      9  C   UNL     1      -3.732  13.113  21.726  0.00  0.00    +0.000 A 
ATOM     10  C   UNL     1      -4.488  12.709  20.619  0.00  0.00    +0.000 A 
ATOM     11  C   UNL     1      -3.814  12.323  19.477  0.00  0.00    +0.000 A 
ENDROOT
BRANCH   4  12
ATOM     12  O   UNL     1      -1.145  12.599  17.437  0.00  0.00    +0.000 OA
ATOM     13  H   UNL     1      -1.289  13.468  17.859  0.00  0.00    +0.000 HD
ENDBRANCH   4  12
BRANCH   1  14
ATOM     14  C   UNL     1      -5.737  11.790  17.917  0.00  0.00    +0.000 C 
BRANCH  14  15
ATOM     15  C   UNL     1      -6.491  10.613  18.545  0.00  0.00    +0.000 C 
BRANCH  15  17
ATOM     16  C   UNL     1      -7.594   9.913  20.689  0.00  0.00    +0.000 C 
ATOM     17  C   UNL     1      -7.444  11.028  19.666  0.00  0.00    +0.000 C 
ENDBRANCH  15  17
ENDBRANCH  14  15
ENDBRANCH   1  14
BRANCH   4  18
ATOM     18  C   UNL     1      -1.178  10.369  18.327  0.00  0.00    +0.000 C 
BRANCH  18  19
ATOM     19  C   UNL     1       0.244  10.555  18.831  0.00  0.00    +0.000 C 
ATOM     20  O   UNL     1       0.871  11.595  18.649  0.00  0.00    +0.000 OA
BRANCH  19  21
ATOM     21  C   UNL     1       0.870   9.461  19.558  0.00  0.00    +0.000 A 
ATOM     22  C   UNL     1       1.794   8.459  19.147  0.00  0.00    +0.000 A 
ATOM     23  C   UNL     1       2.443   8.237  17.831  0.00  0.00    +0.000 C 
ATOM     24  N   UNL     1       2.106   7.637  20.158  0.00  0.00    +0.000 NA
ATOM     25  N   UNL     1       1.419   8.117  21.203  0.00  0.00    +0.000 N 
ATOM     26  C   UNL     1       0.664   9.210  20.903  0.00  0.00    +0.000 A 
ATOM     27  C   UNL     1      -0.189   9.896  21.905  0.00  0.00    +0.000 C 
ATOM     28  H   UNL     1       1.510   7.641  22.096  0.00  0.00    +0.000 HD
ENDBRANCH  19  21
ENDBRANCH  18  19
ENDBRANCH   4  18
TORSDOF 7
ENDMDL
MODEL 9
REMARK VINA RESULT:      -6.7      1.261      1.764
REMARK  Name = 
REMARK  10 active torsions:
REMARK  status: ('A' for Active; 'I' for Inactive)
REMARK    1  A    between atoms: C_1  and  C_2
REMARK    2  A    between atoms: C_2  and  C_3
REMARK    3  A    between atoms: C_3  and  C_4
REMARK    4  A    between atoms: C_4  and  N_5
REMARK    5  A    between atoms: C_8  and  O_9
REMARK    6  A    between atoms: C_8  and  C_10
REMARK    7  A    between atoms: C_10  and  C_11
REMARK    8  A    between atoms: C_11  and  C_13
REMARK    9  A    between atoms: C_14  and  C_15
REMARK   10  A    between atoms: C_18  and  C_19
REMARK                            x       y       z     vdW  Elec       q    Type
REMARK                         _______ _______ _______ _____ _____    ______ ____
ROOT
ATOM      1  N   UNL     1       6.699   5.754  17.683  0.00  0.00    +0.000 N 
ATOM      2  C   UNL     1       5.594   5.359  18.440  0.00  0.00    +0.000 C 
ATOM      3  O   UNL     1       5.359   5.605  19.615  0.00  0.00    +0.000 OA
ATOM      4  C   UNL     1       4.648   4.555  17.502  0.00  0.00    +0.000 C 
ATOM      5  C   UNL     1       5.370   4.633  16.185  0.00  0.00    +0.000 A 
ATOM      6  C   UNL     1       5.020   4.074  14.965  0.00  0.00    +0.000 A 
ATOM      7  C   UNL     1       5.950   4.144  13.929  0.00  0.00    +0.000 A 
ATOM      8 BR   UNL     1       5.548   3.339  12.266  0.00  0.00    +0.000 Br
ATOM      9  C   UNL     1       7.194   4.768  14.111  0.00  0.00    +0.000 A 
ATOM     10  C   UNL     1       7.526   5.347  15.341  0.00  0.00    +0.000 A 
ATOM     11  C   UNL     1       6.597   5.283  16.362  0.00  0.00    +0.000 A 
ENDROOT
BRANCH   4  12
ATOM     12  O   UNL     1       3.383   5.201  17.374  0.00  0.00    +0.000 OA
ATOM     13  H   UNL     1       3.460   5.802  16.608  0.00  0.00    +0.000 HD
ENDBRANCH   4  12
BRANCH   1  14
ATOM     14  C   UNL     1       7.800   6.529  18.212  0.00  0.00    +0.000 C 
BRANCH  14  15
ATOM     15  C   UNL     1       7.847   7.980  17.724  0.00  0.00    +0.000 C 
BRANCH  15  17
ATOM     16  C   UNL     1       8.675  10.323  18.087  0.00  0.00    +0.000 C 
ATOM     17  C   UNL     1       8.675   8.899  18.623  0.00  0.00    +0.000 C 
ENDBRANCH  15  17
ENDBRANCH  14  15
ENDBRANCH   1  14
BRANCH   4  18
ATOM     18  C   UNL     1       4.422   3.134  18.017  0.00  0.00    +0.000 C 
BRANCH  18  19
ATOM     19  C   UNL     1       3.939   3.057  19.456  0.00  0.00    +0.000 C 
ATOM     20  O   UNL     1       4.686   2.750  20.381  0.00  0.00    +0.000 OA
BRANCH  19  21
ATOM     21  C   UNL     1       2.546   3.366  19.736  0.00  0.00    +0.000 A 
ATOM     22  C   UNL     1       1.933   4.490  20.360  0.00  0.00    +0.000 A 
ATOM     23  C   UNL     1       2.538   5.733  20.900  0.00  0.00    +0.000 C 
ATOM     24  N   UNL     1       0.601   4.354  20.414  0.00  0.00    +0.000 NA
ATOM     25  N   UNL     1       0.359   3.182  19.812  0.00  0.00    +0.000 N 
ATOM     26  C   UNL     1       1.487   2.548  19.382  0.00  0.00    +0.000 A 
ATOM     27  C   UNL     1       1.456   1.229  18.702  0.00  0.00    +0.000 C 
ATOM     28  H   UNL     1      -0.604   2.872  19.733  0.00  0.00    +0.000 HD
ENDBRANCH  19  21
ENDBRANCH  18  19
ENDBRANCH   4  18
TORSDOF 7
ENDMDL
