MODEL 1
REMARK VINA RESULT:      -7.5      0.000      0.000
REMARK  Name = 
REMARK  7 active torsions:
REMARK  status: ('A' for Active; 'I' for Inactive)
REMARK    1  A    between atoms: C_1  and  O_2
REMARK    2  A    between atoms: O_2  and  C_3
REMARK    3  A    between atoms: C_3  and  C_4
REMARK    4  A    between atoms: C_5  and  C_6
REMARK    5  A    between atoms: C_10  and  C_11
REMARK    6  A    between atoms: N_13  and  C_14
REMARK    7  A    between atoms: N_23  and  C_24
REMARK                            x       y       z     vdW  Elec       q    Type
REMARK                         _______ _______ _______ _____ _____    ______ ____
ROOT
ATOM      1  C   UNL     1       0.964   9.832  20.399  0.00  0.00    +0.000 C 
ATOM      2  O   UNL     1       1.581  10.134  21.422  0.00  0.00    +0.000 OA
ATOM      3  N   UNL     1      -0.322  10.346  20.119  0.00  0.00    +0.000 N 
ATOM      4  C   UNL     1      -1.238   9.815  19.098  0.00  0.00    +0.000 C 
ATOM      5  C   UNL     1      -1.438  10.759  17.908  0.00  0.00    +0.000 C 
ATOM      6  C   UNL     1      -2.140   9.990  16.786  0.00  0.00    +0.000 C 
ATOM      7  C   UNL     1      -2.277  11.980  18.284  0.00  0.00    +0.000 C 
ATOM      8  N   UNL     1      -1.668  12.837  19.291  0.00  0.00    +0.000 N 
ATOM      9  C   UNL     1      -0.525  13.672  18.947  0.00  0.00    +0.000 C 
ATOM     10  C   UNL     1      -1.683  12.361  20.608  0.00  0.00    +0.000 A 
ATOM     11  C   UNL     1      -2.436  13.100  21.534  0.00  0.00    +0.000 A 
ATOM     12  C   UNL     1      -2.566  12.683  22.857  0.00  0.00    +0.000 A 
ATOM     13  C   UNL     1      -1.905  11.537  23.287  0.00  0.00    +0.000 A 
ATOM     14  C   UNL     1      -1.103  10.816  22.398  0.00  0.00    +0.000 A 
ATOM     15  C   UNL     1      -0.993  11.206  21.054  0.00  0.00    +0.000 A 
ENDROOT
BRANCH   1  17
ATOM     16  C   UNL     1       2.057   7.616  19.648  0.00  0.00    +0.000 A 
ATOM     17  C   UNL     1       1.598   8.921  19.428  0.00  0.00    +0.000 A 
ATOM     18  C   UNL     1       2.052   9.194  18.122  0.00  0.00    +0.000 A 
ATOM     19  N   UNL     1       2.584   8.144  17.511  0.00  0.00    +0.000 NA
ATOM     20  N   UNL     1       2.505   7.136  18.417  0.00  0.00    +0.000 N 
BRANCH  20  21
ATOM     21  C   UNL     1       2.857   5.823  17.981  0.00  0.00    +0.000 A 
ATOM     22  C   UNL     1       4.205   5.563  17.679  0.00  0.00    +0.000 A 
ATOM     23  C   UNL     1       4.605   4.301  17.231  0.00  0.00    +0.000 A 
ATOM     24  C   UNL     1       3.657   3.300  17.048  0.00  0.00    +0.000 A 
ATOM     25  C   UNL     1       2.313   3.555  17.320  0.00  0.00    +0.000 A 
ATOM     26  C   UNL     1       1.910   4.812  17.790  0.00  0.00    +0.000 A 
ENDBRANCH  20  21
BRANCH  16  27
ATOM     27  C   UNL     1       2.214   6.861  20.923  0.00  0.00    +0.000 C 
BRANCH  27  29
ATOM     28  C   UNL     1       1.961   4.524  21.204  0.00  0.00    +0.000 C 
ATOM     29  O   UNL     1       1.338   5.740  20.823  0.00  0.00    +0.000 OA
ENDBRANCH  27  29
ENDBRANCH  16  27
ENDBRANCH   1  17
TORSDOF 4
ENDMDL
MODEL 2
REMARK VINA RESULT:      -6.5      2.035      8.508
REMARK  Name = 
REMARK  7 active torsions:
REMARK  status: ('A' for Active; 'I' for Inactive)
REMARK    1  A    between atoms: C_1  and  O_2
REMARK    2  A    between atoms: O_2  and  C_3
REMARK    3  A    between atoms: C_3  and  C_4
REMARK    4  A    between atoms: C_5  and  C_6
REMARK    5  A    between atoms: C_10  and  C_11
REMARK    6  A    between atoms: N_13  and  C_14
REMARK    7  A    between atoms: N_23  and  C_24
REMARK                            x       y       z     vdW  Elec       q    Type
REMARK                         _______ _______ _______ _____ _____    ______ ____
ROOT
ATOM      1  C   UNL     1       3.458   7.358  18.074  0.00  0.00    +0.000 C 
ATOM      2  O   UNL     1       4.427   8.041  17.740  0.00  0.00    +0.000 OA
ATOM      3  N   UNL     1       3.355   5.989  17.743  0.00  0.00    +0.000 N 
ATOM      4  C   UNL     1       2.123   5.190  17.832  0.00  0.00    +0.000 C 
ATOM      5  C   UNL     1       2.159   4.134  18.942  0.00  0.00    +0.000 C 
ATOM      6  C   UNL     1       0.743   3.591  19.147  0.00  0.00    +0.000 C 
ATOM      7  C   UNL     1       3.098   2.978  18.597  0.00  0.00    +0.000 C 
ATOM      8  N   UNL     1       4.495   3.363  18.457  0.00  0.00    +0.000 N 
ATOM      9  C   UNL     1       5.280   3.710  19.634  0.00  0.00    +0.000 C 
ATOM     10  C   UNL     1       4.838   4.053  17.289  0.00  0.00    +0.000 A 
ATOM     11  C   UNL     1       5.722   3.404  16.412  0.00  0.00    +0.000 A 
ATOM     12  C   UNL     1       6.083   3.976  15.194  0.00  0.00    +0.000 A 
ATOM     13  C   UNL     1       5.598   5.233  14.852  0.00  0.00    +0.000 A 
ATOM     14  C   UNL     1       4.762   5.925  15.732  0.00  0.00    +0.000 A 
ATOM     15  C   UNL     1       4.361   5.344  16.947  0.00  0.00    +0.000 A 
ENDROOT
BRANCH   1  17
ATOM     16  C   UNL     1       1.747   9.214  18.621  0.00  0.00    +0.000 A 
ATOM     17  C   UNL     1       2.381   7.988  18.860  0.00  0.00    +0.000 A 
ATOM     18  C   UNL     1       1.862   7.610  20.115  0.00  0.00    +0.000 A 
ATOM     19  N   UNL     1       0.890   8.399  20.551  0.00  0.00    +0.000 NA
ATOM     20  N   UNL     1       0.747   9.343  19.585  0.00  0.00    +0.000 N 
BRANCH  20  21
ATOM     21  C   UNL     1      -0.349  10.250  19.701  0.00  0.00    +0.000 A 
ATOM     22  C   UNL     1      -1.262  10.328  18.635  0.00  0.00    +0.000 A 
ATOM     23  C   UNL     1      -2.344  11.211  18.686  0.00  0.00    +0.000 A 
ATOM     24  C   UNL     1      -2.504  12.047  19.787  0.00  0.00    +0.000 A 
ATOM     25  C   UNL     1      -1.589  11.995  20.839  0.00  0.00    +0.000 A 
ATOM     26  C   UNL     1      -0.515  11.097  20.802  0.00  0.00    +0.000 A 
ENDBRANCH  20  21
BRANCH  16  27
ATOM     27  C   UNL     1       2.091  10.295  17.654  0.00  0.00    +0.000 C 
BRANCH  27  29
ATOM     28  C   UNL     1       1.973  12.617  18.097  0.00  0.00    +0.000 C 
ATOM     29  O   UNL     1       2.577  11.381  18.440  0.00  0.00    +0.000 OA
ENDBRANCH  27  29
ENDBRANCH  16  27
ENDBRANCH   1  17
TORSDOF 4
ENDMDL
MODEL 3
REMARK VINA RESULT:      -6.5      2.022      3.671
REMARK  Name = 
REMARK  7 active torsions:
REMARK  status: ('A' for Active; 'I' for Inactive)
REMARK    1  A    between atoms: C_1  and  O_2
REMARK    2  A    between atoms: O_2  and  C_3
REMARK    3  A    between atoms: C_3  and  C_4
REMARK    4  A    between atoms: C_5  and  C_6
REMARK    5  A    between atoms: C_10  and  C_11
REMARK    6  A    between atoms: N_13  and  C_14
REMARK    7  A    between atoms: N_23  and  C_24
REMARK                            x       y       z     vdW  Elec       q    Type
REMARK                         _______ _______ _______ _____ _____    ______ ____
ROOT
ATOM      1  C   UNL     1       1.672   9.867  19.006  0.00  0.00    +0.000 C 
ATOM      2  O   UNL     1       2.085  10.102  17.869  0.00  0.00    +0.000 OA
ATOM      3  N   UNL     1       1.072  10.864  19.807  0.00  0.00    +0.000 N 
ATOM      4  C   UNL     1       0.834  10.754  21.254  0.00  0.00    +0.000 C 
ATOM      5  C   UNL     1      -0.649  10.644  21.621  0.00  0.00    +0.000 C 
ATOM      6  C   UNL     1      -0.760  10.223  23.089  0.00  0.00    +0.000 C 
ATOM      7  C   UNL     1      -1.385  11.968  21.420  0.00  0.00    +0.000 C 
ATOM      8  N   UNL     1      -1.416  12.431  20.040  0.00  0.00    +0.000 N 
ATOM      9  C   UNL     1      -2.262  11.760  19.062  0.00  0.00    +0.000 C 
ATOM     10  C   UNL     1      -0.225  12.961  19.532  0.00  0.00    +0.000 A 
ATOM     11  C   UNL     1      -0.239  14.322  19.186  0.00  0.00    +0.000 A 
ATOM     12  C   UNL     1       0.909  14.963  18.726  0.00  0.00    +0.000 A 
ATOM     13  C   UNL     1       2.085  14.239  18.562  0.00  0.00    +0.000 A 
ATOM     14  C   UNL     1       2.110  12.871  18.845  0.00  0.00    +0.000 A 
ATOM     15  C   UNL     1       0.969  12.221  19.344  0.00  0.00    +0.000 A 
ENDROOT
BRANCH   1  17
ATOM     16  C   UNL     1       2.324   7.370  18.898  0.00  0.00    +0.000 A 
ATOM     17  C   UNL     1       1.792   8.498  19.538  0.00  0.00    +0.000 A 
ATOM     18  C   UNL     1       1.250   7.955  20.721  0.00  0.00    +0.000 A 
ATOM     19  N   UNL     1       1.544   6.676  20.906  0.00  0.00    +0.000 NA
ATOM     20  N   UNL     1       2.290   6.330  19.826  0.00  0.00    +0.000 N 
BRANCH  20  21
ATOM     21  C   UNL     1       2.896   5.037  19.825  0.00  0.00    +0.000 A 
ATOM     22  C   UNL     1       2.127   3.942  20.257  0.00  0.00    +0.000 A 
ATOM     23  C   UNL     1       2.674   2.657  20.294  0.00  0.00    +0.000 A 
ATOM     24  C   UNL     1       4.003   2.460  19.933  0.00  0.00    +0.000 A 
ATOM     25  C   UNL     1       4.782   3.543  19.528  0.00  0.00    +0.000 A 
ATOM     26  C   UNL     1       4.234   4.831  19.469  0.00  0.00    +0.000 A 
ENDBRANCH  20  21
BRANCH  16  27
ATOM     27  C   UNL     1       2.731   7.182  17.477  0.00  0.00    +0.000 C 
BRANCH  27  29
ATOM     28  C   UNL     1       4.836   6.699  16.509  0.00  0.00    +0.000 C 
ATOM     29  O   UNL     1       4.117   7.512  17.421  0.00  0.00    +0.000 OA
ENDBRANCH  27  29
ENDBRANCH  16  27
ENDBRANCH   1  17
TORSDOF 4
ENDMDL
MODEL 4
REMARK VINA RESULT:      -6.5      1.399      2.532
REMARK  Name = 
REMARK  7 active torsions:
REMARK  status: ('A' for Active; 'I' for Inactive)
REMARK    1  A    between atoms: C_1  and  O_2
REMARK    2  A    between atoms: O_2  and  C_3
REMARK    3  A    between atoms: C_3  and  C_4
REMARK    4  A    between atoms: C_5  and  C_6
REMARK    5  A    between atoms: C_10  and  C_11
REMARK    6  A    between atoms: N_13  and  C_14
REMARK    7  A    between atoms: N_23  and  C_24
REMARK                            x       y       z     vdW  Elec       q    Type
REMARK                         _______ _______ _______ _____ _____    ______ ____
ROOT
ATOM      1  C   UNL     1       0.681  10.006  21.107  0.00  0.00    +0.000 C 
ATOM      2  O   UNL     1       1.240  10.481  22.097  0.00  0.00    +0.000 OA
ATOM      3  N   UNL     1      -0.470  10.596  20.540  0.00  0.00    +0.000 N 
ATOM      4  C   UNL     1      -1.362   9.943  19.570  0.00  0.00    +0.000 C 
ATOM      5  C   UNL     1      -1.290  10.556  18.167  0.00  0.00    +0.000 C 
ATOM      6  C   UNL     1      -2.002   9.620  17.187  0.00  0.00    +0.000 C 
ATOM      7  C   UNL     1      -1.946  11.936  18.114  0.00  0.00    +0.000 C 
ATOM      8  N   UNL     1      -1.301  12.938  18.950  0.00  0.00    +0.000 N 
ATOM      9  C   UNL     1      -0.008  13.488  18.566  0.00  0.00    +0.000 C 
ATOM     10  C   UNL     1      -1.518  12.835  20.329  0.00  0.00    +0.000 A 
ATOM     11  C   UNL     1      -2.221  13.888  20.934  0.00  0.00    +0.000 A 
ATOM     12  C   UNL     1      -2.542  13.858  22.290  0.00  0.00    +0.000 A 
ATOM     13  C   UNL     1      -2.123  12.789  23.075  0.00  0.00    +0.000 A 
ATOM     14  C   UNL     1      -1.372  11.756  22.507  0.00  0.00    +0.000 A 
ATOM     15  C   UNL     1      -1.074  11.757  21.135  0.00  0.00    +0.000 A 
ENDROOT
BRANCH   1  17
ATOM     16  C   UNL     1       1.825   8.667  19.218  0.00  0.00    +0.000 A 
ATOM     17  C   UNL     1       1.243   8.793  20.486  0.00  0.00    +0.000 A 
ATOM     18  C   UNL     1       1.173   7.456  20.928  0.00  0.00    +0.000 A 
ATOM     19  N   UNL     1       1.786   6.595  20.127  0.00  0.00    +0.000 NA
ATOM     20  N   UNL     1       2.276   7.352  19.112  0.00  0.00    +0.000 N 
BRANCH  20  21
ATOM     21  C   UNL     1       3.135   6.715  18.165  0.00  0.00    +0.000 A 
ATOM     22  C   UNL     1       3.069   5.316  18.044  0.00  0.00    +0.000 A 
ATOM     23  C   UNL     1       3.898   4.638  17.146  0.00  0.00    +0.000 A 
ATOM     24  C   UNL     1       4.824   5.348  16.389  0.00  0.00    +0.000 A 
ATOM     25  C   UNL     1       4.916   6.734  16.521  0.00  0.00    +0.000 A 
ATOM     26  C   UNL     1       4.072   7.421  17.403  0.00  0.00    +0.000 A 
ENDBRANCH  20  21
BRANCH  16  27
ATOM     27  C   UNL     1       1.872   9.638  18.088  0.00  0.00    +0.000 C 
BRANCH  27  29
ATOM     28  C   UNL     1       2.723  11.810  17.690  0.00  0.00    +0.000 C 
ATOM     29  O   UNL     1       2.262  10.884  18.660  0.00  0.00    +0.000 OA
ENDBRANCH  27  29
ENDBRANCH  16  27
ENDBRANCH   1  17
TORSDOF 4
ENDMDL
MODEL 5
REMARK VINA RESULT:      -6.4      3.121      5.202
REMARK  Name = 
REMARK  7 active torsions:
REMARK  status: ('A' for Active; 'I' for Inactive)
REMARK    1  A    between atoms: C_1  and  O_2
REMARK    2  A    between atoms: O_2  and  C_3
REMARK    3  A    between atoms: C_3  and  C_4
REMARK    4  A    between atoms: C_5  and  C_6
REMARK    5  A    between atoms: C_10  and  C_11
REMARK    6  A    between atoms: N_13  and  C_14
REMARK    7  A    between atoms: N_23  and  C_24
REMARK                            x       y       z     vdW  Elec       q    Type
REMARK                         _______ _______ _______ _____ _____    ______ ____
ROOT
ATOM      1  C   UNL     1      -1.210  13.108  22.983  0.00  0.00    +0.000 C 
ATOM      2  O   UNL     1      -0.424  13.687  23.734  0.00  0.00    +0.000 OA
ATOM      3  N   UNL     1      -2.477  13.644  22.666  0.00  0.00    +0.000 N 
ATOM      4  C   UNL     1      -3.577  12.895  22.038  0.00  0.00    +0.000 C 
ATOM      5  C   UNL     1      -3.877  13.341  20.603  0.00  0.00    +0.000 C 
ATOM      6  C   UNL     1      -4.800  12.306  19.953  0.00  0.00    +0.000 C 
ATOM      7  C   UNL     1      -4.549  14.713  20.562  0.00  0.00    +0.000 C 
ATOM      8  N   UNL     1      -3.729  15.796  21.083  0.00  0.00    +0.000 N 
ATOM      9  C   UNL     1      -2.587  16.282  20.320  0.00  0.00    +0.000 C 
ATOM     10  C   UNL     1      -3.583  15.856  22.474  0.00  0.00    +0.000 A 
ATOM     11  C   UNL     1      -4.126  16.981  23.115  0.00  0.00    +0.000 A 
ATOM     12  C   UNL     1      -4.088  17.113  24.501  0.00  0.00    +0.000 A 
ATOM     13  C   UNL     1      -3.464  16.136  25.270  0.00  0.00    +0.000 A 
ATOM     14  C   UNL     1      -2.866  15.035  24.652  0.00  0.00    +0.000 A 
ATOM     15  C   UNL     1      -2.929  14.873  23.258  0.00  0.00    +0.000 A 
ENDROOT
BRANCH   1  17
ATOM     16  C   UNL     1      -0.301  11.599  21.094  0.00  0.00    +0.000 A 
ATOM     17  C   UNL     1      -0.804  11.824  22.382  0.00  0.00    +0.000 A 
ATOM     18  C   UNL     1      -0.987  10.517  22.876  0.00  0.00    +0.000 A 
ATOM     19  N   UNL     1      -0.505   9.572  22.081  0.00  0.00    +0.000 NA
ATOM     20  N   UNL     1       0.008  10.241  21.016  0.00  0.00    +0.000 N 
BRANCH  20  21
ATOM     21  C   UNL     1       0.751   9.489  20.056  0.00  0.00    +0.000 A 
ATOM     22  C   UNL     1       1.438   8.345  20.496  0.00  0.00    +0.000 A 
ATOM     23  C   UNL     1       2.195   7.581  19.603  0.00  0.00    +0.000 A 
ATOM     24  C   UNL     1       2.300   7.974  18.273  0.00  0.00    +0.000 A 
ATOM     25  C   UNL     1       1.643   9.122  17.832  0.00  0.00    +0.000 A 
ATOM     26  C   UNL     1       0.865   9.880  18.717  0.00  0.00    +0.000 A 
ENDBRANCH  20  21
BRANCH  16  27
ATOM     27  C   UNL     1      -0.213  12.523  19.928  0.00  0.00    +0.000 C 
BRANCH  27  29
ATOM     28  C   UNL     1       1.996  13.265  19.514  0.00  0.00    +0.000 C 
ATOM     29  O   UNL     1       0.804  13.467  20.254  0.00  0.00    +0.000 OA
ENDBRANCH  27  29
ENDBRANCH  16  27
ENDBRANCH   1  17
TORSDOF 4
ENDMDL
MODEL 6
REMARK VINA RESULT:      -6.3      3.081      5.719
REMARK  Name = 
REMARK  7 active torsions:
REMARK  status: ('A' for Active; 'I' for Inactive)
REMARK    1  A    between atoms: C_1  and  O_2
REMARK    2  A    between atoms: O_2  and  C_3
REMARK    3  A    between atoms: C_3  and  C_4
REMARK    4  A    between atoms: C_5  and  C_6
REMARK    5  A    between atoms: C_10  and  C_11
REMARK    6  A    between atoms: N_13  and  C_14
REMARK    7  A    between atoms: N_23  and  C_24
REMARK                            x       y       z     vdW  Elec       q    Type
REMARK                         _______ _______ _______ _____ _____    ______ ____
ROOT
ATOM      1  C   UNL     1      -3.225  12.923  21.855  0.00  0.00    +0.000 C 
ATOM      2  O   UNL     1      -4.045  12.306  22.536  0.00  0.00    +0.000 OA
ATOM      3  N   UNL     1      -3.003  14.307  22.019  0.00  0.00    +0.000 N 
ATOM      4  C   UNL     1      -2.283  15.165  21.065  0.00  0.00    +0.000 C 
ATOM      5  C   UNL     1      -0.932  15.662  21.590  0.00  0.00    +0.000 C 
ATOM      6  C   UNL     1      -0.146  16.268  20.424  0.00  0.00    +0.000 C 
ATOM      7  C   UNL     1      -1.099  16.714  22.686  0.00  0.00    +0.000 C 
ATOM      8  N   UNL     1      -1.766  16.228  23.885  0.00  0.00    +0.000 N 
ATOM      9  C   UNL     1      -1.070  15.327  24.794  0.00  0.00    +0.000 C 
ATOM     10  C   UNL     1      -3.149  16.033  23.796  0.00  0.00    +0.000 A 
ATOM     11  C   UNL     1      -3.953  16.851  24.604  0.00  0.00    +0.000 A 
ATOM     12  C   UNL     1      -5.343  16.780  24.549  0.00  0.00    +0.000 A 
ATOM     13  C   UNL     1      -5.954  15.851  23.713  0.00  0.00    +0.000 A 
ATOM     14  C   UNL     1      -5.175  14.986  22.940  0.00  0.00    +0.000 A 
ATOM     15  C   UNL     1      -3.773  15.073  22.959  0.00  0.00    +0.000 A 
ENDROOT
BRANCH   1  17
ATOM     16  C   UNL     1      -1.143  11.666  20.983  0.00  0.00    +0.000 A 
ATOM     17  C   UNL     1      -2.438  12.185  20.849  0.00  0.00    +0.000 A 
ATOM     18  C   UNL     1      -2.713  11.983  19.482  0.00  0.00    +0.000 A 
ATOM     19  N   UNL     1      -1.790  11.271  18.850  0.00  0.00    +0.000 NA
ATOM     20  N   UNL     1      -0.859  10.989  19.797  0.00  0.00    +0.000 N 
BRANCH  20  21
ATOM     21  C   UNL     1       0.190  10.086  19.447  0.00  0.00    +0.000 A 
ATOM     22  C   UNL     1       0.727  10.161  18.150  0.00  0.00    +0.000 A 
ATOM     23  C   UNL     1       1.743   9.290  17.747  0.00  0.00    +0.000 A 
ATOM     24  C   UNL     1       2.206   8.315  18.625  0.00  0.00    +0.000 A 
ATOM     25  C   UNL     1       1.662   8.215  19.905  0.00  0.00    +0.000 A 
ATOM     26  C   UNL     1       0.659   9.099  20.321  0.00  0.00    +0.000 A 
ENDBRANCH  20  21
BRANCH  16  27
ATOM     27  C   UNL     1      -0.141  11.866  22.068  0.00  0.00    +0.000 C 
BRANCH  27  29
ATOM     28  C   UNL     1      -0.482   9.877  23.304  0.00  0.00    +0.000 C 
ATOM     29  O   UNL     1      -0.708  11.275  23.235  0.00  0.00    +0.000 OA
ENDBRANCH  27  29
ENDBRANCH  16  27
ENDBRANCH   1  17
TORSDOF 4
ENDMDL
MODEL 7
REMARK VINA RESULT:      -6.2      3.520      5.801
REMARK  Name = 
REMARK  7 active torsions:
REMARK  status: ('A' for Active; 'I' for Inactive)
REMARK    1  A    between atoms: C_1  and  O_2
REMARK    2  A    between atoms: O_2  and  C_3
REMARK    3  A    between atoms: C_3  and  C_4
REMARK    4  A    between atoms: C_5  and  C_6
REMARK    5  A    between atoms: C_10  and  C_11
REMARK    6  A    between atoms: N_13  and  C_14
REMARK    7  A    between atoms: N_23  and  C_24
REMARK                            x       y       z     vdW  Elec       q    Type
REMARK                         _______ _______ _______ _____ _____    ______ ____
ROOT
ATOM      1  C   UNL     1      -3.398  13.362  20.646  0.00  0.00    +0.000 C 
ATOM      2  O   UNL     1      -2.883  14.349  21.174  0.00  0.00    +0.000 OA
ATOM      3  N   UNL     1      -4.793  13.141  20.669  0.00  0.00    +0.000 N 
ATOM      4  C   UNL     1      -5.451  11.867  20.340  0.00  0.00    +0.000 C 
ATOM      5  C   UNL     1      -6.250  11.913  19.033  0.00  0.00    +0.000 C 
ATOM      6  C   UNL     1      -6.619  10.481  18.635  0.00  0.00    +0.000 C 
ATOM      7  C   UNL     1      -7.526  12.742  19.175  0.00  0.00    +0.000 C 
ATOM      8  N   UNL     1      -7.296  14.148  19.475  0.00  0.00    +0.000 N 
ATOM      9  C   UNL     1      -6.777  15.040  18.447  0.00  0.00    +0.000 C 
ATOM     10  C   UNL     1      -6.898  14.450  20.782  0.00  0.00    +0.000 A 
ATOM     11  C   UNL     1      -7.787  15.220  21.548  0.00  0.00    +0.000 A 
ATOM     12  C   UNL     1      -7.515  15.528  22.880  0.00  0.00    +0.000 A 
ATOM     13  C   UNL     1      -6.321  15.107  23.455  0.00  0.00    +0.000 A 
ATOM     14  C   UNL     1      -5.394  14.388  22.697  0.00  0.00    +0.000 A 
ATOM     15  C   UNL     1      -5.672  14.040  21.365  0.00  0.00    +0.000 A 
ENDROOT
BRANCH   1  17
ATOM     16  C   UNL     1      -1.301  11.878  20.384  0.00  0.00    +0.000 A 
ATOM     17  C   UNL     1      -2.531  12.393  19.952  0.00  0.00    +0.000 A 
ATOM     18  C   UNL     1      -2.631  11.895  18.638  0.00  0.00    +0.000 A 
ATOM     19  N   UNL     1      -1.678  11.030  18.319  0.00  0.00    +0.000 NA
ATOM     20  N   UNL     1      -0.902  10.941  19.430  0.00  0.00    +0.000 N 
BRANCH  20  21
ATOM     21  C   UNL     1       0.125   9.950  19.444  0.00  0.00    +0.000 A 
ATOM     22  C   UNL     1       0.818   9.695  18.248  0.00  0.00    +0.000 A 
ATOM     23  C   UNL     1       1.822   8.723  18.198  0.00  0.00    +0.000 A 
ATOM     24  C   UNL     1       2.117   7.975  19.334  0.00  0.00    +0.000 A 
ATOM     25  C   UNL     1       1.417   8.203  20.518  0.00  0.00    +0.000 A 
ATOM     26  C   UNL     1       0.425   9.190  20.580  0.00  0.00    +0.000 A 
ENDBRANCH  20  21
BRANCH  16  27
ATOM     27  C   UNL     1      -0.444  12.287  21.532  0.00  0.00    +0.000 C 
BRANCH  27  29
ATOM     28  C   UNL     1       0.614  14.388  21.787  0.00  0.00    +0.000 C 
ATOM     29  O   UNL     1       0.502  13.213  21.003  0.00  0.00    +0.000 OA
ENDBRANCH  27  29
ENDBRANCH  16  27
ENDBRANCH   1  17
TORSDOF 4
ENDMDL
MODEL 8
REMARK VINA RESULT:      -6.1      3.386      9.349
REMARK  Name = 
REMARK  7 active torsions:
REMARK  status: ('A' for Active; 'I' for Inactive)
REMARK    1  A    between atoms: C_1  and  O_2
REMARK    2  A    between atoms: O_2  and  C_3
REMARK    3  A    between atoms: C_3  and  C_4
REMARK    4  A    between atoms: C_5  and  C_6
REMARK    5  A    between atoms: C_10  and  C_11
REMARK    6  A    between atoms: N_13  and  C_14
REMARK    7  A    between atoms: N_23  and  C_24
REMARK                            x       y       z     vdW  Elec       q    Type
REMARK                         _______ _______ _______ _____ _____    ______ ____
ROOT
ATOM      1  C   UNL     1      -1.506  11.815  22.696  0.00  0.00    +0.000 C 
ATOM      2  O   UNL     1      -1.831  10.810  23.330  0.00  0.00    +0.000 OA
ATOM      3  N   UNL     1      -0.583  11.763  21.629  0.00  0.00    +0.000 N 
ATOM      4  C   UNL     1       0.081  12.931  21.030  0.00  0.00    +0.000 C 
ATOM      5  C   UNL     1      -0.388  13.234  19.603  0.00  0.00    +0.000 C 
ATOM      6  C   UNL     1       0.121  14.622  19.205  0.00  0.00    +0.000 C 
ATOM      7  C   UNL     1       0.130  12.201  18.602  0.00  0.00    +0.000 C 
ATOM      8  N   UNL     1      -0.355  10.849  18.833  0.00  0.00    +0.000 N 
ATOM      9  C   UNL     1      -1.740  10.508  18.537  0.00  0.00    +0.000 C 
ATOM     10  C   UNL     1       0.210  10.158  19.911  0.00  0.00    +0.000 A 
ATOM     11  C   UNL     1       0.963   9.015  19.600  0.00  0.00    +0.000 A 
ATOM     12  C   UNL     1       1.617   8.288  20.592  0.00  0.00    +0.000 A 
ATOM     13  C   UNL     1       1.490   8.668  21.924  0.00  0.00    +0.000 A 
ATOM     14  C   UNL     1       0.699   9.768  22.265  0.00  0.00    +0.000 A 
ATOM     15  C   UNL     1       0.064  10.531  21.271  0.00  0.00    +0.000 A 
ENDROOT
BRANCH   1  17
ATOM     16  C   UNL     1      -3.269  13.695  22.512  0.00  0.00    +0.000 A 
ATOM     17  C   UNL     1      -2.116  13.110  23.053  0.00  0.00    +0.000 A 
ATOM     18  C   UNL     1      -1.605  14.134  23.875  0.00  0.00    +0.000 A 
ATOM     19  N   UNL     1      -2.410  15.181  23.987  0.00  0.00    +0.000 NA
ATOM     20  N   UNL     1      -3.488  14.876  23.220  0.00  0.00    +0.000 N 
BRANCH  20  21
ATOM     21  C   UNL     1      -4.611  15.757  23.274  0.00  0.00    +0.000 A 
ATOM     22  C   UNL     1      -4.405  17.115  22.976  0.00  0.00    +0.000 A 
ATOM     23  C   UNL     1      -5.464  18.025  23.029  0.00  0.00    +0.000 A 
ATOM     24  C   UNL     1      -6.729  17.593  23.416  0.00  0.00    +0.000 A 
ATOM     25  C   UNL     1      -6.938  16.252  23.739  0.00  0.00    +0.000 A 
ATOM     26  C   UNL     1      -5.885  15.331  23.666  0.00  0.00    +0.000 A 
ENDBRANCH  20  21
BRANCH  16  27
ATOM     27  C   UNL     1      -4.078  13.293  21.327  0.00  0.00    +0.000 C 
BRANCH  27  29
ATOM     28  C   UNL     1      -6.236  12.365  21.035  0.00  0.00    +0.000 C 
ATOM     29  O   UNL     1      -5.051  12.371  21.814  0.00  0.00    +0.000 OA
ENDBRANCH  27  29
ENDBRANCH  16  27
ENDBRANCH   1  17
TORSDOF 4
ENDMDL
MODEL 9
REMARK VINA RESULT:      -6.1      3.090      5.779
REMARK  Name = 
REMARK  7 active torsions:
REMARK  status: ('A' for Active; 'I' for Inactive)
REMARK    1  A    between atoms: C_1  and  O_2
REMARK    2  A    between atoms: O_2  and  C_3
REMARK    3  A    between atoms: C_3  and  C_4
REMARK    4  A    between atoms: C_5  and  C_6
REMARK    5  A    between atoms: C_10  and  C_11
REMARK    6  A    between atoms: N_13  and  C_14
REMARK    7  A    between atoms: N_23  and  C_24
REMARK                            x       y       z     vdW  Elec       q    Type
REMARK                         _______ _______ _______ _____ _____    ______ ____
ROOT
ATOM      1  C   UNL     1      -1.101  14.470  20.173  0.00  0.00    +0.000 C 
ATOM      2  O   UNL     1      -0.745  15.370  19.411  0.00  0.00    +0.000 OA
ATOM      3  N   UNL     1      -1.696  14.739  21.425  0.00  0.00    +0.000 N 
ATOM      4  C   UNL     1      -1.868  13.756  22.506  0.00  0.00    +0.000 C 
ATOM      5  C   UNL     1      -3.330  13.370  22.752  0.00  0.00    +0.000 C 
ATOM      6  C   UNL     1      -3.364  12.136  23.658  0.00  0.00    +0.000 C 
ATOM      7  C   UNL     1      -4.115  14.503  23.414  0.00  0.00    +0.000 C 
ATOM      8  N   UNL     1      -4.220  15.709  22.606  0.00  0.00    +0.000 N 
ATOM      9  C   UNL     1      -5.086  15.732  21.435  0.00  0.00    +0.000 C 
ATOM     10  C   UNL     1      -3.068  16.499  22.510  0.00  0.00    +0.000 A 
ATOM     11  C   UNL     1      -3.139  17.784  23.069  0.00  0.00    +0.000 A 
ATOM     12  C   UNL     1      -2.033  18.631  23.080  0.00  0.00    +0.000 A 
ATOM     13  C   UNL     1      -0.843  18.218  22.489  0.00  0.00    +0.000 A 
ATOM     14  C   UNL     1      -0.763  16.965  21.876  0.00  0.00    +0.000 A 
ATOM     15  C   UNL     1      -1.861  16.089  21.890  0.00  0.00    +0.000 A 
ENDROOT
BRANCH   1  17
ATOM     16  C   UNL     1       0.288  12.367  19.607  0.00  0.00    +0.000 A 
ATOM     17  C   UNL     1      -0.916  13.068  19.754  0.00  0.00    +0.000 A 
ATOM     18  C   UNL     1      -1.867  12.165  19.238  0.00  0.00    +0.000 A 
ATOM     19  N   UNL     1      -1.369  10.970  18.954  0.00  0.00    +0.000 NA
ATOM     20  N   UNL     1      -0.051  11.057  19.269  0.00  0.00    +0.000 N 
BRANCH  20  21
ATOM     21  C   UNL     1       0.724   9.858  19.221  0.00  0.00    +0.000 A 
ATOM     22  C   UNL     1       0.904   9.136  20.413  0.00  0.00    +0.000 A 
ATOM     23  C   UNL     1       1.667   7.965  20.429  0.00  0.00    +0.000 A 
ATOM     24  C   UNL     1       2.284   7.526  19.262  0.00  0.00    +0.000 A 
ATOM     25  C   UNL     1       2.133   8.249  18.079  0.00  0.00    +0.000 A 
ATOM     26  C   UNL     1       1.352   9.412  18.053  0.00  0.00    +0.000 A 
ENDBRANCH  20  21
BRANCH  16  27
ATOM     27  C   UNL     1       1.692  12.864  19.638  0.00  0.00    +0.000 C 
BRANCH  27  29
ATOM     28  C   UNL     1       2.907  14.249  18.152  0.00  0.00    +0.000 C 
ATOM     29  O   UNL     1       2.040  13.134  18.282  0.00  0.00    +0.000 OA
ENDBRANCH  27  29
ENDBRANCH  16  27
ENDBRANCH   1  17
TORSDOF 4
ENDMDL
