MODEL 1
REMARK VINA RESULT:      -8.1      0.000      0.000
REMARK  Name = 
REMARK  3 active torsions:
REMARK  status: ('A' for Active; 'I' for Inactive)
REMARK    1  A    between atoms: C_2  and  C_17
REMARK    2  A    between atoms: N_3  and  N_4
REMARK    3  A    between atoms: C_5  and  C_6
REMARK                            x       y       z     vdW  Elec       q    Type
REMARK                         _______ _______ _______ _____ _____    ______ ____
ROOT
ATOM      1  N   UNL     1       8.024   8.869  18.238  0.00  0.00    +0.000 NA
ATOM      2  C   UNL     1       7.808   7.905  17.402  0.00  0.00    +0.000 C 
ENDROOT
BRANCH   2   3
ATOM      3  C   UNL     1       7.019   6.704  17.767  0.00  0.00    +0.000 A 
ATOM      4  C   UNL     1       7.331   6.021  18.876  0.00  0.00    +0.000 A 
ATOM      5  O   UNL     1       6.689   4.902  19.351  0.00  0.00    +0.000 OA
ATOM      6  C   UNL     1       5.587   4.462  18.660  0.00  0.00    +0.000 A 
ATOM      7  C   UNL     1       4.907   3.364  19.186  0.00  0.00    +0.000 A 
ATOM      8  C   UNL     1       3.774   2.874  18.535  0.00  0.00    +0.000 A 
ATOM      9  C   UNL     1       3.322   3.481  17.361  0.00  0.00    +0.000 A 
ATOM     10  C   UNL     1       4.007   4.578  16.832  0.00  0.00    +0.000 A 
ATOM     11  C   UNL     1       5.143   5.066  17.485  0.00  0.00    +0.000 A 
ATOM     12  C   UNL     1       5.886   6.224  16.951  0.00  0.00    +0.000 A 
ATOM     13  O   UNL     1       5.579   6.761  15.894  0.00  0.00    +0.000 OA
ENDBRANCH   2   3
BRANCH   1  16
ATOM     14  O   UNL     1       9.246  10.596  19.974  0.00  0.00    +0.000 OA
ATOM     15  C   UNL     1       9.337  10.758  18.760  0.00  0.00    +0.000 C 
ATOM     16  N   UNL     1       8.756   9.932  17.802  0.00  0.00    +0.000 N 
ATOM     17  H   UNL     1       8.952  10.030  16.812  0.00  0.00    +0.000 HD
BRANCH  15  18
ATOM     18  C   UNL     1      10.157  11.884  18.263  0.00  0.00    +0.000 A 
ATOM     19  C   UNL     1      11.532  11.704  18.093  0.00  0.00    +0.000 A 
ATOM     20  C   UNL     1      12.316  12.765  17.647  0.00  0.00    +0.000 A 
ATOM     21  C   UNL     1      11.693  13.975  17.391  0.00  0.00    +0.000 A 
ATOM     22  N   UNL     1      10.368  14.189  17.557  0.00  0.00    +0.000 NA
ATOM     23  C   UNL     1       9.630  13.141  18.003  0.00  0.00    +0.000 A 
ENDBRANCH  15  18
ENDBRANCH   1  16
TORSDOF 3
ENDMDL
MODEL 2
REMARK VINA RESULT:      -7.8      1.063      2.028
REMARK  Name = 
REMARK  3 active torsions:
REMARK  status: ('A' for Active; 'I' for Inactive)
REMARK    1  A    between atoms: C_2  and  C_17
REMARK    2  A    between atoms: N_3  and  N_4
REMARK    3  A    between atoms: C_5  and  C_6
REMARK                            x       y       z     vdW  Elec       q    Type
REMARK                         _______ _______ _______ _____ _____    ______ ____
ROOT
ATOM      1  N   UNL     1       7.886   8.837  18.087  0.00  0.00    +0.000 NA
ATOM      2  C   UNL     1       8.007   7.552  18.174  0.00  0.00    +0.000 C 
ENDROOT
BRANCH   2   3
ATOM      3  C   UNL     1       6.874   6.631  17.913  0.00  0.00    +0.000 A 
ATOM      4  C   UNL     1       6.177   6.747  16.776  0.00  0.00    +0.000 A 
ATOM      5  O   UNL     1       5.116   5.965  16.388  0.00  0.00    +0.000 OA
ATOM      6  C   UNL     1       4.760   4.926  17.211  0.00  0.00    +0.000 A 
ATOM      7  C   UNL     1       3.722   4.100  16.778  0.00  0.00    +0.000 A 
ATOM      8  C   UNL     1       3.318   3.022  17.566  0.00  0.00    +0.000 A 
ATOM      9  C   UNL     1       3.951   2.769  18.784  0.00  0.00    +0.000 A 
ATOM     10  C   UNL     1       4.987   3.598  19.222  0.00  0.00    +0.000 A 
ATOM     11  C   UNL     1       5.388   4.680  18.431  0.00  0.00    +0.000 A 
ATOM     12  C   UNL     1       6.480   5.573  18.865  0.00  0.00    +0.000 A 
ATOM     13  O   UNL     1       7.032   5.443  19.951  0.00  0.00    +0.000 OA
ENDBRANCH   2   3
BRANCH   1  16
ATOM     14  O   UNL     1       7.990  11.499  17.459  0.00  0.00    +0.000 OA
ATOM     15  C   UNL     1       8.951  10.940  17.982  0.00  0.00    +0.000 C 
ATOM     16  N   UNL     1       8.989   9.595  18.340  0.00  0.00    +0.000 N 
ATOM     17  H   UNL     1       9.753   9.199  18.876  0.00  0.00    +0.000 HD
BRANCH  15  18
ATOM     18  C   UNL     1      10.146  11.750  18.300  0.00  0.00    +0.000 A 
ATOM     19  C   UNL     1      10.961  11.373  19.370  0.00  0.00    +0.000 A 
ATOM     20  C   UNL     1      12.077  12.142  19.691  0.00  0.00    +0.000 A 
ATOM     21  C   UNL     1      12.333  13.271  18.929  0.00  0.00    +0.000 A 
ATOM     22  N   UNL     1      11.558  13.673  17.897  0.00  0.00    +0.000 NA
ATOM     23  C   UNL     1      10.473  12.910  17.612  0.00  0.00    +0.000 A 
ENDBRANCH  15  18
ENDBRANCH   1  16
TORSDOF 3
ENDMDL
MODEL 3
REMARK VINA RESULT:      -7.6      6.290      8.351
REMARK  Name = 
REMARK  3 active torsions:
REMARK  status: ('A' for Active; 'I' for Inactive)
REMARK    1  A    between atoms: C_2  and  C_17
REMARK    2  A    between atoms: N_3  and  N_4
REMARK    3  A    between atoms: C_5  and  C_6
REMARK                            x       y       z     vdW  Elec       q    Type
REMARK                         _______ _______ _______ _____ _____    ______ ____
ROOT
ATOM      1  N   UNL     1       2.858   7.068  18.616  0.00  0.00    +0.000 NA
ATOM      2  C   UNL     1       2.253   8.209  18.527  0.00  0.00    +0.000 C 
ENDROOT
BRANCH   2   3
ATOM      3  C   UNL     1       1.439   8.761  19.636  0.00  0.00    +0.000 A 
ATOM      4  C   UNL     1       1.490   8.185  20.844  0.00  0.00    +0.000 A 
ATOM      5  O   UNL     1       0.809   8.586  21.968  0.00  0.00    +0.000 OA
ATOM      6  C   UNL     1       0.037   9.718  21.870  0.00  0.00    +0.000 A 
ATOM      7  C   UNL     1      -0.601  10.151  23.032  0.00  0.00    +0.000 A 
ATOM      8  C   UNL     1      -1.393  11.300  23.001  0.00  0.00    +0.000 A 
ATOM      9  C   UNL     1      -1.547  12.013  21.811  0.00  0.00    +0.000 A 
ATOM     10  C   UNL     1      -0.912  11.576  20.645  0.00  0.00    +0.000 A 
ATOM     11  C   UNL     1      -0.121  10.424  20.679  0.00  0.00    +0.000 A 
ATOM     12  C   UNL     1       0.564   9.938  19.464  0.00  0.00    +0.000 A 
ATOM     13  O   UNL     1       0.419  10.482  18.376  0.00  0.00    +0.000 OA
ENDBRANCH   2   3
BRANCH   1  16
ATOM     14  O   UNL     1       5.203   5.686  18.904  0.00  0.00    +0.000 OA
ATOM     15  C   UNL     1       4.769   5.959  17.788  0.00  0.00    +0.000 C 
ATOM     16  N   UNL     1       3.587   6.653  17.543  0.00  0.00    +0.000 N 
ATOM     17  H   UNL     1       3.203   6.755  16.610  0.00  0.00    +0.000 HD
BRANCH  15  18
ATOM     18  C   UNL     1       5.524   5.488  16.608  0.00  0.00    +0.000 A 
ATOM     19  C   UNL     1       4.881   4.684  15.663  0.00  0.00    +0.000 A 
ATOM     20  C   UNL     1       5.590   4.216  14.559  0.00  0.00    +0.000 A 
ATOM     21  C   UNL     1       6.925   4.566  14.444  0.00  0.00    +0.000 A 
ATOM     22  N   UNL     1       7.582   5.330  15.346  0.00  0.00    +0.000 NA
ATOM     23  C   UNL     1       6.870   5.764  16.416  0.00  0.00    +0.000 A 
ENDBRANCH  15  18
ENDBRANCH   1  16
TORSDOF 3
ENDMDL
MODEL 4
REMARK VINA RESULT:      -7.4      2.084      8.990
REMARK  Name = 
REMARK  3 active torsions:
REMARK  status: ('A' for Active; 'I' for Inactive)
REMARK    1  A    between atoms: C_2  and  C_17
REMARK    2  A    between atoms: N_3  and  N_4
REMARK    3  A    between atoms: C_5  and  C_6
REMARK                            x       y       z     vdW  Elec       q    Type
REMARK                         _______ _______ _______ _____ _____    ______ ____
ROOT
ATOM      1  N   UNL     1       8.362   8.563  18.019  0.00  0.00    +0.000 NA
ATOM      2  C   UNL     1       8.076   9.810  17.825  0.00  0.00    +0.000 C 
ENDROOT
BRANCH   2   3
ATOM      3  C   UNL     1       8.959  10.906  18.292  0.00  0.00    +0.000 A 
ATOM      4  C   UNL     1       9.939  10.638  19.164  0.00  0.00    +0.000 A 
ATOM      5  O   UNL     1      10.842  11.538  19.676  0.00  0.00    +0.000 OA
ATOM      6  C   UNL     1      10.778  12.831  19.217  0.00  0.00    +0.000 A 
ATOM      7  C   UNL     1      11.738  13.722  19.697  0.00  0.00    +0.000 A 
ATOM      8  C   UNL     1      11.732  15.048  19.262  0.00  0.00    +0.000 A 
ATOM      9  C   UNL     1      10.768  15.482  18.350  0.00  0.00    +0.000 A 
ATOM     10  C   UNL     1       9.803  14.591  17.874  0.00  0.00    +0.000 A 
ATOM     11  C   UNL     1       9.810  13.264  18.312  0.00  0.00    +0.000 A 
ATOM     12  C   UNL     1       8.804  12.299  17.826  0.00  0.00    +0.000 A 
ATOM     13  O   UNL     1       7.896  12.631  17.075  0.00  0.00    +0.000 OA
ENDBRANCH   2   3
BRANCH   1  16
ATOM     14  O   UNL     1       8.160   6.068  19.126  0.00  0.00    +0.000 OA
ATOM     15  C   UNL     1       7.458   6.389  18.170  0.00  0.00    +0.000 C 
ATOM     16  N   UNL     1       7.487   7.632  17.545  0.00  0.00    +0.000 N 
ATOM     17  H   UNL     1       6.811   7.898  16.838  0.00  0.00    +0.000 HD
BRANCH  15  18
ATOM     18  C   UNL     1       6.476   5.408  17.662  0.00  0.00    +0.000 A 
ATOM     19  C   UNL     1       6.471   5.089  16.301  0.00  0.00    +0.000 A 
ATOM     20  C   UNL     1       5.535   4.183  15.809  0.00  0.00    +0.000 A 
ATOM     21  C   UNL     1       4.629   3.631  16.700  0.00  0.00    +0.000 A 
ATOM     22  N   UNL     1       4.595   3.927  18.019  0.00  0.00    +0.000 NA
ATOM     23  C   UNL     1       5.512   4.820  18.469  0.00  0.00    +0.000 A 
ENDBRANCH  15  18
ENDBRANCH   1  16
TORSDOF 3
ENDMDL
MODEL 5
REMARK VINA RESULT:      -7.3      1.365      1.534
REMARK  Name = 
REMARK  3 active torsions:
REMARK  status: ('A' for Active; 'I' for Inactive)
REMARK    1  A    between atoms: C_2  and  C_17
REMARK    2  A    between atoms: N_3  and  N_4
REMARK    3  A    between atoms: C_5  and  C_6
REMARK                            x       y       z     vdW  Elec       q    Type
REMARK                         _______ _______ _______ _____ _____    ______ ____
ROOT
ATOM      1  N   UNL     1       7.516   8.081  17.690  0.00  0.00    +0.000 NA
ATOM      2  C   UNL     1       6.390   7.839  17.099  0.00  0.00    +0.000 C 
ENDROOT
BRANCH   2   3
ATOM      3  C   UNL     1       5.649   6.570  17.299  0.00  0.00    +0.000 A 
ATOM      4  C   UNL     1       6.320   5.411  17.330  0.00  0.00    +0.000 A 
ATOM      5  O   UNL     1       5.780   4.162  17.519  0.00  0.00    +0.000 OA
ATOM      6  C   UNL     1       4.429   4.085  17.753  0.00  0.00    +0.000 A 
ATOM      7  C   UNL     1       3.901   2.818  18.005  0.00  0.00    +0.000 A 
ATOM      8  C   UNL     1       2.537   2.674  18.259  0.00  0.00    +0.000 A 
ATOM      9  C   UNL     1       1.702   3.793  18.261  0.00  0.00    +0.000 A 
ATOM     10  C   UNL     1       2.229   5.061  18.003  0.00  0.00    +0.000 A 
ATOM     11  C   UNL     1       3.597   5.203  17.747  0.00  0.00    +0.000 A 
ATOM     12  C   UNL     1       4.184   6.529  17.473  0.00  0.00    +0.000 A 
ATOM     13  O   UNL     1       3.496   7.540  17.398  0.00  0.00    +0.000 OA
ENDBRANCH   2   3
BRANCH   1  16
ATOM     14  O   UNL     1       9.035   9.357  19.575  0.00  0.00    +0.000 OA
ATOM     15  C   UNL     1       8.864   9.855  18.465  0.00  0.00    +0.000 C 
ATOM     16  N   UNL     1       8.114   9.281  17.444  0.00  0.00    +0.000 N 
ATOM     17  H   UNL     1       8.094   9.664  16.505  0.00  0.00    +0.000 HD
BRANCH  15  18
ATOM     18  C   UNL     1       9.533  11.138  18.163  0.00  0.00    +0.000 A 
ATOM     19  C   UNL     1      10.930  11.192  18.143  0.00  0.00    +0.000 A 
ATOM     20  C   UNL     1      11.569  12.401  17.881  0.00  0.00    +0.000 A 
ATOM     21  C   UNL     1      10.784  13.519  17.653  0.00  0.00    +0.000 A 
ATOM     22  N   UNL     1       9.432  13.507  17.678  0.00  0.00    +0.000 NA
ATOM     23  C   UNL     1       8.836  12.318  17.945  0.00  0.00    +0.000 A 
ENDBRANCH  15  18
ENDBRANCH   1  16
TORSDOF 3
ENDMDL
MODEL 6
REMARK VINA RESULT:      -7.3      1.535      1.970
REMARK  Name = 
REMARK  3 active torsions:
REMARK  status: ('A' for Active; 'I' for Inactive)
REMARK    1  A    between atoms: C_2  and  C_17
REMARK    2  A    between atoms: N_3  and  N_4
REMARK    3  A    between atoms: C_5  and  C_6
REMARK                            x       y       z     vdW  Elec       q    Type
REMARK                         _______ _______ _______ _____ _____    ______ ____
ROOT
ATOM      1  N   UNL     1       7.517   7.980  17.415  0.00  0.00    +0.000 NA
ATOM      2  C   UNL     1       6.252   7.876  17.164  0.00  0.00    +0.000 C 
ENDROOT
BRANCH   2   3
ATOM      3  C   UNL     1       5.531   6.583  17.257  0.00  0.00    +0.000 A 
ATOM      4  C   UNL     1       6.212   5.437  17.130  0.00  0.00    +0.000 A 
ATOM      5  O   UNL     1       5.691   4.167  17.205  0.00  0.00    +0.000 OA
ATOM      6  C   UNL     1       4.354   4.047  17.490  0.00  0.00    +0.000 A 
ATOM      7  C   UNL     1       3.849   2.754  17.625  0.00  0.00    +0.000 A 
ATOM      8  C   UNL     1       2.498   2.564  17.922  0.00  0.00    +0.000 A 
ATOM      9  C   UNL     1       1.655   3.665  18.084  0.00  0.00    +0.000 A 
ATOM     10  C   UNL     1       2.160   4.961  17.943  0.00  0.00    +0.000 A 
ATOM     11  C   UNL     1       3.513   5.148  17.643  0.00  0.00    +0.000 A 
ATOM     12  C   UNL     1       4.075   6.504  17.491  0.00  0.00    +0.000 A 
ATOM     13  O   UNL     1       3.377   7.508  17.558  0.00  0.00    +0.000 OA
ENDBRANCH   2   3
BRANCH   1  16
ATOM     14  O   UNL     1       9.010   9.071  19.433  0.00  0.00    +0.000 OA
ATOM     15  C   UNL     1       8.823   9.688  18.388  0.00  0.00    +0.000 C 
ATOM     16  N   UNL     1       8.083   9.215  17.308  0.00  0.00    +0.000 N 
ATOM     17  H   UNL     1       8.050   9.702  16.420  0.00  0.00    +0.000 HD
BRANCH  15  18
ATOM     18  C   UNL     1       9.457  11.014  18.233  0.00  0.00    +0.000 A 
ATOM     19  C   UNL     1       8.685  12.094  17.798  0.00  0.00    +0.000 A 
ATOM     20  C   UNL     1       9.279  13.342  17.629  0.00  0.00    +0.000 A 
ATOM     21  C   UNL     1      10.633  13.463  17.896  0.00  0.00    +0.000 A 
ATOM     22  N   UNL     1      11.413  12.437  18.304  0.00  0.00    +0.000 NA
ATOM     23  C   UNL     1      10.810  11.230  18.452  0.00  0.00    +0.000 A 
ENDBRANCH  15  18
ENDBRANCH   1  16
TORSDOF 3
ENDMDL
MODEL 7
REMARK VINA RESULT:      -7.3      7.987     10.656
REMARK  Name = 
REMARK  3 active torsions:
REMARK  status: ('A' for Active; 'I' for Inactive)
REMARK    1  A    between atoms: C_2  and  C_17
REMARK    2  A    between atoms: N_3  and  N_4
REMARK    3  A    between atoms: C_5  and  C_6
REMARK                            x       y       z     vdW  Elec       q    Type
REMARK                         _______ _______ _______ _____ _____    ______ ____
ROOT
ATOM      1  N   UNL     1       1.616   8.166  20.523  0.00  0.00    +0.000 NA
ATOM      2  C   UNL     1       0.586   8.436  21.259  0.00  0.00    +0.000 C 
ENDROOT
BRANCH   2   3
ATOM      3  C   UNL     1      -0.118   9.739  21.186  0.00  0.00    +0.000 A 
ATOM      4  C   UNL     1      -0.483  10.227  19.993  0.00  0.00    +0.000 A 
ATOM      5  O   UNL     1      -1.149  11.407  19.765  0.00  0.00    +0.000 OA
ATOM      6  C   UNL     1      -1.531  12.140  20.861  0.00  0.00    +0.000 A 
ATOM      7  C   UNL     1      -2.262  13.304  20.621  0.00  0.00    +0.000 A 
ATOM      8  C   UNL     1      -2.687  14.090  21.692  0.00  0.00    +0.000 A 
ATOM      9  C   UNL     1      -2.383  13.713  23.002  0.00  0.00    +0.000 A 
ATOM     10  C   UNL     1      -1.647  12.550  23.243  0.00  0.00    +0.000 A 
ATOM     11  C   UNL     1      -1.220  11.765  22.167  0.00  0.00    +0.000 A 
ATOM     12  C   UNL     1      -0.443  10.530  22.390  0.00  0.00    +0.000 A 
ATOM     13  O   UNL     1      -0.090  10.178  23.508  0.00  0.00    +0.000 OA
ENDBRANCH   2   3
BRANCH   1  16
ATOM     14  O   UNL     1       2.273   6.621  18.361  0.00  0.00    +0.000 OA
ATOM     15  C   UNL     1       2.483   6.222  19.504  0.00  0.00    +0.000 C 
ATOM     16  N   UNL     1       2.188   6.936  20.662  0.00  0.00    +0.000 N 
ATOM     17  H   UNL     1       2.483   6.625  21.580  0.00  0.00    +0.000 HD
BRANCH  15  18
ATOM     18  C   UNL     1       3.135   4.907  19.679  0.00  0.00    +0.000 A 
ATOM     19  C   UNL     1       2.458   3.894  20.362  0.00  0.00    +0.000 A 
ATOM     20  C   UNL     1       3.073   2.659  20.551  0.00  0.00    +0.000 A 
ATOM     21  C   UNL     1       4.353   2.484  20.052  0.00  0.00    +0.000 A 
ATOM     22  N   UNL     1       5.044   3.446  19.399  0.00  0.00    +0.000 NA
ATOM     23  C   UNL     1       4.424   4.642  19.237  0.00  0.00    +0.000 A 
ENDBRANCH  15  18
ENDBRANCH   1  16
TORSDOF 3
ENDMDL
MODEL 8
REMARK VINA RESULT:      -7.2      7.735     10.366
REMARK  Name = 
REMARK  3 active torsions:
REMARK  status: ('A' for Active; 'I' for Inactive)
REMARK    1  A    between atoms: C_2  and  C_17
REMARK    2  A    between atoms: N_3  and  N_4
REMARK    3  A    between atoms: C_5  and  C_6
REMARK                            x       y       z     vdW  Elec       q    Type
REMARK                         _______ _______ _______ _____ _____    ______ ____
ROOT
ATOM      1  N   UNL     1       1.744   7.922  20.755  0.00  0.00    +0.000 NA
ATOM      2  C   UNL     1       0.533   8.057  21.190  0.00  0.00    +0.000 C 
ENDROOT
BRANCH   2   3
ATOM      3  C   UNL     1      -0.019   9.371  21.600  0.00  0.00    +0.000 A 
ATOM      4  C   UNL     1      -0.035   9.705  22.896  0.00  0.00    +0.000 A 
ATOM      5  O   UNL     1      -0.498  10.885  23.428  0.00  0.00    +0.000 OA
ATOM      6  C   UNL     1      -0.942  11.843  22.551  0.00  0.00    +0.000 A 
ATOM      7  C   UNL     1      -1.352  13.060  23.097  0.00  0.00    +0.000 A 
ATOM      8  C   UNL     1      -1.806  14.079  22.258  0.00  0.00    +0.000 A 
ATOM      9  C   UNL     1      -1.849  13.881  20.877  0.00  0.00    +0.000 A 
ATOM     10  C   UNL     1      -1.444  12.661  20.330  0.00  0.00    +0.000 A 
ATOM     11  C   UNL     1      -0.991  11.641  21.173  0.00  0.00    +0.000 A 
ATOM     12  C   UNL     1      -0.555  10.342  20.625  0.00  0.00    +0.000 A 
ATOM     13  O   UNL     1      -0.628  10.084  19.430  0.00  0.00    +0.000 OA
ENDBRANCH   2   3
BRANCH   1  16
ATOM     14  O   UNL     1       2.348   7.280  18.164  0.00  0.00    +0.000 OA
ATOM     15  C   UNL     1       2.434   6.438  19.055  0.00  0.00    +0.000 C 
ATOM     16  N   UNL     1       2.153   6.672  20.398  0.00  0.00    +0.000 N 
ATOM     17  H   UNL     1       2.349   5.988  21.119  0.00  0.00    +0.000 HD
BRANCH  15  18
ATOM     18  C   UNL     1       2.911   5.086  18.698  0.00  0.00    +0.000 A 
ATOM     19  C   UNL     1       2.227   4.357  17.722  0.00  0.00    +0.000 A 
ATOM     20  C   UNL     1       2.655   3.073  17.394  0.00  0.00    +0.000 A 
ATOM     21  C   UNL     1       3.753   2.560  18.063  0.00  0.00    +0.000 A 
ATOM     22  N   UNL     1       4.430   3.231  19.023  0.00  0.00    +0.000 NA
ATOM     23  C   UNL     1       3.985   4.476  19.329  0.00  0.00    +0.000 A 
ENDBRANCH  15  18
ENDBRANCH   1  16
TORSDOF 3
ENDMDL
MODEL 9
REMARK VINA RESULT:      -7.1      6.931      8.946
REMARK  Name = 
REMARK  3 active torsions:
REMARK  status: ('A' for Active; 'I' for Inactive)
REMARK    1  A    between atoms: C_2  and  C_17
REMARK    2  A    between atoms: N_3  and  N_4
REMARK    3  A    between atoms: C_5  and  C_6
REMARK                            x       y       z     vdW  Elec       q    Type
REMARK                         _______ _______ _______ _____ _____    ______ ____
ROOT
ATOM      1  N   UNL     1       2.252   7.691  18.952  0.00  0.00    +0.000 NA
ATOM      2  C   UNL     1       1.735   8.872  18.838  0.00  0.00    +0.000 C 
ENDROOT
BRANCH   2   3
ATOM      3  C   UNL     1       0.880   9.466  19.894  0.00  0.00    +0.000 A 
ATOM      4  C   UNL     1       0.996   9.038  21.157  0.00  0.00    +0.000 A 
ATOM      5  O   UNL     1       0.288   9.498  22.241  0.00  0.00    +0.000 OA
ATOM      6  C   UNL     1      -0.589  10.533  22.033  0.00  0.00    +0.000 A 
ATOM      7  C   UNL     1      -1.257  11.033  23.151  0.00  0.00    +0.000 A 
ATOM      8  C   UNL     1      -2.156  12.090  23.007  0.00  0.00    +0.000 A 
ATOM      9  C   UNL     1      -2.387  12.646  21.747  0.00  0.00    +0.000 A 
ATOM     10  C   UNL     1      -1.723  12.142  20.626  0.00  0.00    +0.000 A 
ATOM     11  C   UNL     1      -0.824  11.081  20.773  0.00  0.00    +0.000 A 
ATOM     12  C   UNL     1      -0.105  10.528  19.608  0.00  0.00    +0.000 A 
ATOM     13  O   UNL     1      -0.310  10.929  18.469  0.00  0.00    +0.000 OA
ENDBRANCH   2   3
BRANCH   1  16
ATOM     14  O   UNL     1       3.894   5.519  19.229  0.00  0.00    +0.000 OA
ATOM     15  C   UNL     1       3.835   6.129  18.164  0.00  0.00    +0.000 C 
ATOM     16  N   UNL     1       3.029   7.239  17.928  0.00  0.00    +0.000 N 
ATOM     17  H   UNL     1       2.919   7.641  17.005  0.00  0.00    +0.000 HD
BRANCH  15  18
ATOM     18  C   UNL     1       4.641   5.635  17.028  0.00  0.00    +0.000 A 
ATOM     19  C   UNL     1       4.864   4.262  16.895  0.00  0.00    +0.000 A 
ATOM     20  C   UNL     1       5.641   3.788  15.841  0.00  0.00    +0.000 A 
ATOM     21  C   UNL     1       6.174   4.712  14.956  0.00  0.00    +0.000 A 
ATOM     22  N   UNL     1       5.991   6.047  15.062  0.00  0.00    +0.000 NA
ATOM     23  C   UNL     1       5.238   6.481  16.105  0.00  0.00    +0.000 A 
ENDBRANCH  15  18
ENDBRANCH   1  16
TORSDOF 3
ENDMDL
