MODEL 1
REMARK VINA RESULT:      -7.2      0.000      0.000
REMARK  Name = 
REMARK  8 active torsions:
REMARK  status: ('A' for Active; 'I' for Inactive)
REMARK    1  A    between atoms: C_2  and  O_3
REMARK    2  A    between atoms: C_2  and  C_4
REMARK    3  A    between atoms: C_4  and  O_5
REMARK    4  A    between atoms: O_5  and  C_6
REMARK    5  A    between atoms: C_10  and  C_11
REMARK    6  A    between atoms: N_16  and  C_17
REMARK    7  A    between atoms: C_17  and  C_18
REMARK    8  A    between atoms: C_18  and  O_20
REMARK                            x       y       z     vdW  Elec       q    Type
REMARK                         _______ _______ _______ _____ _____    ______ ____
ROOT
ATOM      1  C   UNL     1       2.956   6.172  17.812  0.00  0.00    +0.000 C 
ATOM      2  C   UNL     1       4.235   6.108  17.406  0.00  0.00    +0.000 C 
ATOM      3  S   UNL     1       5.425   7.346  17.551  0.00  0.00    +0.000 S 
ATOM      4  C   UNL     1       6.659   6.384  16.768  0.00  0.00    +0.000 C 
ATOM      5  O   UNL     1       7.800   6.783  16.598  0.00  0.00    +0.000 OA
ATOM      6  N   UNL     1       6.136   5.182  16.381  0.00  0.00    +0.000 N 
ATOM      7  C   UNL     1       4.840   4.917  16.744  0.00  0.00    +0.000 C 
ATOM      8  O   UNL     1       4.297   3.831  16.598  0.00  0.00    +0.000 OA
ENDROOT
BRANCH   1  13
ATOM      9  C   UNL     1       1.418   8.437  20.406  0.00  0.00    +0.000 A 
ATOM     10  C   UNL     1       0.991   9.496  19.602  0.00  0.00    +0.000 A 
ATOM     11  C   UNL     1       1.290   9.515  18.239  0.00  0.00    +0.000 A 
ATOM     12  C   UNL     1       1.987   8.454  17.662  0.00  0.00    +0.000 A 
ATOM     13  C   UNL     1       2.388   7.370  18.449  0.00  0.00    +0.000 A 
ATOM     14  C   UNL     1       2.122   7.377  19.828  0.00  0.00    +0.000 A 
BRANCH   9  15
ATOM     15  O   UNL     1       1.014   8.496  21.713  0.00  0.00    +0.000 OA
BRANCH  15  16
ATOM     16  C   UNL     1      -0.335   8.921  21.927  0.00  0.00    +0.000 C 
BRANCH  16  18
ATOM     17  O   UNL     1       0.342   9.691  24.123  0.00  0.00    +0.000 OA
ATOM     18  C   UNL     1      -0.388   9.824  23.150  0.00  0.00    +0.000 C 
BRANCH  18  19
ATOM     19  O   UNL     1      -1.341  10.783  23.077  0.00  0.00    +0.000 OA
ATOM     20  H   UNL     1      -0.924  11.671  23.135  0.00  0.00    +0.000 HD
ENDBRANCH  18  19
ENDBRANCH  16  18
ENDBRANCH  15  16
ENDBRANCH   9  15
ENDBRANCH   1  13
BRANCH   6  21
ATOM     21  C   UNL     1       6.939   4.232  15.628  0.00  0.00    +0.000 C 
BRANCH  21  22
ATOM     22  C   UNL     1       6.910   4.502  14.131  0.00  0.00    +0.000 C 
ATOM     23  O   UNL     1       6.185   3.905  13.348  0.00  0.00    +0.000 OA
BRANCH  22  24
ATOM     24  O   UNL     1       7.836   5.397  13.711  0.00  0.00    +0.000 OA
ATOM     25  H   UNL     1       8.506   5.656  14.387  0.00  0.00    +0.000 HD
ENDBRANCH  22  24
ENDBRANCH  21  22
ENDBRANCH   6  21
TORSDOF 8
ENDMDL
MODEL 2
REMARK VINA RESULT:      -7.0      3.086      8.023
REMARK  Name = 
REMARK  8 active torsions:
REMARK  status: ('A' for Active; 'I' for Inactive)
REMARK    1  A    between atoms: C_2  and  O_3
REMARK    2  A    between atoms: C_2  and  C_4
REMARK    3  A    between atoms: C_4  and  O_5
REMARK    4  A    between atoms: O_5  and  C_6
REMARK    5  A    between atoms: C_10  and  C_11
REMARK    6  A    between atoms: N_16  and  C_17
REMARK    7  A    between atoms: C_17  and  C_18
REMARK    8  A    between atoms: C_18  and  O_20
REMARK                            x       y       z     vdW  Elec       q    Type
REMARK                         _______ _______ _______ _____ _____    ______ ____
ROOT
ATOM      1  C   UNL     1       2.435   7.358  18.041  0.00  0.00    +0.000 C 
ATOM      2  C   UNL     1       1.899   8.063  19.051  0.00  0.00    +0.000 C 
ATOM      3  S   UNL     1       1.704   7.540  20.682  0.00  0.00    +0.000 S 
ATOM      4  C   UNL     1       0.949   9.040  21.173  0.00  0.00    +0.000 C 
ATOM      5  O   UNL     1       0.585   9.254  22.317  0.00  0.00    +0.000 OA
ATOM      6  N   UNL     1       0.823   9.872  20.095  0.00  0.00    +0.000 N 
ATOM      7  C   UNL     1       1.373   9.450  18.911  0.00  0.00    +0.000 C 
ATOM      8  O   UNL     1       1.468  10.150  17.913  0.00  0.00    +0.000 OA
ENDROOT
BRANCH   1  13
ATOM      9  C   UNL     1       4.799   4.461  18.538  0.00  0.00    +0.000 A 
ATOM     10  C   UNL     1       3.970   3.391  18.194  0.00  0.00    +0.000 A 
ATOM     11  C   UNL     1       2.624   3.605  17.897  0.00  0.00    +0.000 A 
ATOM     12  C   UNL     1       2.104   4.900  17.906  0.00  0.00    +0.000 A 
ATOM     13  C   UNL     1       2.932   5.984  18.212  0.00  0.00    +0.000 A 
ATOM     14  C   UNL     1       4.276   5.758  18.552  0.00  0.00    +0.000 A 
BRANCH   9  15
ATOM     15  O   UNL     1       6.113   4.138  18.748  0.00  0.00    +0.000 OA
BRANCH  15  16
ATOM     16  C   UNL     1       7.071   5.048  18.198  0.00  0.00    +0.000 C 
BRANCH  16  18
ATOM     17  O   UNL     1       7.859   5.302  20.476  0.00  0.00    +0.000 OA
ATOM     18  C   UNL     1       7.817   5.734  19.332  0.00  0.00    +0.000 C 
BRANCH  18  19
ATOM     19  O   UNL     1       8.418   6.891  18.966  0.00  0.00    +0.000 OA
ATOM     20  H   UNL     1       7.975   7.650  19.406  0.00  0.00    +0.000 HD
ENDBRANCH  18  19
ENDBRANCH  16  18
ENDBRANCH  15  16
ENDBRANCH   9  15
ENDBRANCH   1  13
BRANCH   6  21
ATOM     21  C   UNL     1       0.145  11.152  20.222  0.00  0.00    +0.000 C 
BRANCH  21  22
ATOM     22  C   UNL     1       1.091  12.276  20.618  0.00  0.00    +0.000 C 
ATOM     23  O   UNL     1       1.019  12.883  21.676  0.00  0.00    +0.000 OA
BRANCH  22  24
ATOM     24  O   UNL     1       1.970  12.626  19.649  0.00  0.00    +0.000 OA
ATOM     25  H   UNL     1       2.914  12.669  19.933  0.00  0.00    +0.000 HD
ENDBRANCH  22  24
ENDBRANCH  21  22
ENDBRANCH   6  21
TORSDOF 8
ENDMDL
MODEL 3
REMARK VINA RESULT:      -6.9      3.007      8.260
REMARK  Name = 
REMARK  8 active torsions:
REMARK  status: ('A' for Active; 'I' for Inactive)
REMARK    1  A    between atoms: C_2  and  O_3
REMARK    2  A    between atoms: C_2  and  C_4
REMARK    3  A    between atoms: C_4  and  O_5
REMARK    4  A    between atoms: O_5  and  C_6
REMARK    5  A    between atoms: C_10  and  C_11
REMARK    6  A    between atoms: N_16  and  C_17
REMARK    7  A    between atoms: C_17  and  C_18
REMARK    8  A    between atoms: C_18  and  O_20
REMARK                            x       y       z     vdW  Elec       q    Type
REMARK                         _______ _______ _______ _____ _____    ______ ____
ROOT
ATOM      1  C   UNL     1       2.380   7.489  18.098  0.00  0.00    +0.000 C 
ATOM      2  C   UNL     1       1.824   8.199  19.094  0.00  0.00    +0.000 C 
ATOM      3  S   UNL     1       1.601   7.685  20.724  0.00  0.00    +0.000 S 
ATOM      4  C   UNL     1       0.832   9.186  21.192  0.00  0.00    +0.000 C 
ATOM      5  O   UNL     1       0.448   9.406  22.328  0.00  0.00    +0.000 OA
ATOM      6  N   UNL     1       0.724  10.011  20.107  0.00  0.00    +0.000 N 
ATOM      7  C   UNL     1       1.296   9.584  18.935  0.00  0.00    +0.000 C 
ATOM      8  O   UNL     1       1.407  10.277  17.935  0.00  0.00    +0.000 OA
ENDROOT
BRANCH   1  13
ATOM      9  C   UNL     1       4.733   4.609  18.727  0.00  0.00    +0.000 A 
ATOM     10  C   UNL     1       3.943   3.536  18.310  0.00  0.00    +0.000 A 
ATOM     11  C   UNL     1       2.619   3.741  17.919  0.00  0.00    +0.000 A 
ATOM     12  C   UNL     1       2.086   5.030  17.907  0.00  0.00    +0.000 A 
ATOM     13  C   UNL     1       2.878   6.118  18.287  0.00  0.00    +0.000 A 
ATOM     14  C   UNL     1       4.197   5.900  18.720  0.00  0.00    +0.000 A 
BRANCH   9  15
ATOM     15  O   UNL     1       6.032   4.296  19.027  0.00  0.00    +0.000 OA
BRANCH  15  16
ATOM     16  C   UNL     1       6.988   5.337  18.805  0.00  0.00    +0.000 C 
BRANCH  16  18
ATOM     17  O   UNL     1       8.044   4.188  16.952  0.00  0.00    +0.000 OA
ATOM     18  C   UNL     1       7.546   5.213  17.397  0.00  0.00    +0.000 C 
BRANCH  18  19
ATOM     19  O   UNL     1       7.465   6.357  16.676  0.00  0.00    +0.000 OA
ATOM     20  H   UNL     1       8.238   6.426  16.073  0.00  0.00    +0.000 HD
ENDBRANCH  18  19
ENDBRANCH  16  18
ENDBRANCH  15  16
ENDBRANCH   9  15
ENDBRANCH   1  13
BRANCH   6  21
ATOM     21  C   UNL     1       0.040  11.290  20.214  0.00  0.00    +0.000 C 
BRANCH  21  22
ATOM     22  C   UNL     1       0.983  12.426  20.578  0.00  0.00    +0.000 C 
ATOM     23  O   UNL     1       0.992  12.978  21.669  0.00  0.00    +0.000 OA
BRANCH  22  24
ATOM     24  O   UNL     1       1.754  12.856  19.550  0.00  0.00    +0.000 OA
ATOM     25  H   UNL     1       1.301  12.903  18.675  0.00  0.00    +0.000 HD
ENDBRANCH  22  24
ENDBRANCH  21  22
ENDBRANCH   6  21
TORSDOF 8
ENDMDL
MODEL 4
REMARK VINA RESULT:      -6.9      3.121      8.175
REMARK  Name = 
REMARK  8 active torsions:
REMARK  status: ('A' for Active; 'I' for Inactive)
REMARK    1  A    between atoms: C_2  and  O_3
REMARK    2  A    between atoms: C_2  and  C_4
REMARK    3  A    between atoms: C_4  and  O_5
REMARK    4  A    between atoms: O_5  and  C_6
REMARK    5  A    between atoms: C_10  and  C_11
REMARK    6  A    between atoms: N_16  and  C_17
REMARK    7  A    between atoms: C_17  and  C_18
REMARK    8  A    between atoms: C_18  and  O_20
REMARK                            x       y       z     vdW  Elec       q    Type
REMARK                         _______ _______ _______ _____ _____    ______ ____
ROOT
ATOM      1  C   UNL     1       2.547   7.646  17.891  0.00  0.00    +0.000 C 
ATOM      2  C   UNL     1       1.946   8.438  18.794  0.00  0.00    +0.000 C 
ATOM      3  S   UNL     1       1.541   8.025  20.418  0.00  0.00    +0.000 S 
ATOM      4  C   UNL     1       0.826   9.589  20.737  0.00  0.00    +0.000 C 
ATOM      5  O   UNL     1       0.352   9.891  21.820  0.00  0.00    +0.000 OA
ATOM      6  N   UNL     1       0.870  10.361  19.609  0.00  0.00    +0.000 N 
ATOM      7  C   UNL     1       1.521   9.840  18.519  0.00  0.00    +0.000 C 
ATOM      8  O   UNL     1       1.767  10.472  17.503  0.00  0.00    +0.000 OA
ENDROOT
BRANCH   1  13
ATOM      9  C   UNL     1       4.683   4.647  18.711  0.00  0.00    +0.000 A 
ATOM     10  C   UNL     1       3.793   3.611  18.423  0.00  0.00    +0.000 A 
ATOM     11  C   UNL     1       2.476   3.890  18.058  0.00  0.00    +0.000 A 
ATOM     12  C   UNL     1       2.048   5.213  17.942  0.00  0.00    +0.000 A 
ATOM     13  C   UNL     1       2.940   6.260  18.192  0.00  0.00    +0.000 A 
ATOM     14  C   UNL     1       4.253   5.973  18.600  0.00  0.00    +0.000 A 
BRANCH   9  15
ATOM     15  O   UNL     1       5.964   4.255  18.997  0.00  0.00    +0.000 OA
BRANCH  15  16
ATOM     16  C   UNL     1       6.971   5.259  18.836  0.00  0.00    +0.000 C 
BRANCH  16  18
ATOM     17  O   UNL     1       8.067   4.172  16.969  0.00  0.00    +0.000 OA
ATOM     18  C   UNL     1       7.541   5.175  17.429  0.00  0.00    +0.000 C 
BRANCH  18  19
ATOM     19  O   UNL     1       7.436   6.330  16.730  0.00  0.00    +0.000 OA
ATOM     20  H   UNL     1       8.293   6.811  16.751  0.00  0.00    +0.000 HD
ENDBRANCH  18  19
ENDBRANCH  16  18
ENDBRANCH  15  16
ENDBRANCH   9  15
ENDBRANCH   1  13
BRANCH   6  21
ATOM     21  C   UNL     1       0.259  11.680  19.589  0.00  0.00    +0.000 C 
BRANCH  21  22
ATOM     22  C   UNL     1      -1.015  11.719  18.758  0.00  0.00    +0.000 C 
ATOM     23  O   UNL     1      -2.077  11.231  19.118  0.00  0.00    +0.000 OA
BRANCH  22  24
ATOM     24  O   UNL     1      -0.854  12.254  17.523  0.00  0.00    +0.000 OA
ATOM     25  H   UNL     1      -1.677  12.314  16.981  0.00  0.00    +0.000 HD
ENDBRANCH  22  24
ENDBRANCH  21  22
ENDBRANCH   6  21
TORSDOF 8
ENDMDL
MODEL 5
REMARK VINA RESULT:      -6.8      3.070      7.805
REMARK  Name = 
REMARK  8 active torsions:
REMARK  status: ('A' for Active; 'I' for Inactive)
REMARK    1  A    between atoms: C_2  and  O_3
REMARK    2  A    between atoms: C_2  and  C_4
REMARK    3  A    between atoms: C_4  and  O_5
REMARK    4  A    between atoms: O_5  and  C_6
REMARK    5  A    between atoms: C_10  and  C_11
REMARK    6  A    between atoms: N_16  and  C_17
REMARK    7  A    between atoms: C_17  and  C_18
REMARK    8  A    between atoms: C_18  and  O_20
REMARK                            x       y       z     vdW  Elec       q    Type
REMARK                         _______ _______ _______ _____ _____    ______ ____
ROOT
ATOM      1  C   UNL     1       2.174   6.265  19.951  0.00  0.00    +0.000 C 
ATOM      2  C   UNL     1       2.005   7.505  19.462  0.00  0.00    +0.000 C 
ATOM      3  S   UNL     1       2.601   8.111  17.963  0.00  0.00    +0.000 S 
ATOM      4  C   UNL     1       1.932   9.705  18.232  0.00  0.00    +0.000 C 
ATOM      5  O   UNL     1       2.041  10.614  17.425  0.00  0.00    +0.000 OA
ATOM      6  N   UNL     1       1.320   9.753  19.454  0.00  0.00    +0.000 N 
ATOM      7  C   UNL     1       1.253   8.582  20.167  0.00  0.00    +0.000 C 
ATOM      8  O   UNL     1       0.609   8.443  21.196  0.00  0.00    +0.000 OA
ENDROOT
BRANCH   1  13
ATOM      9  C   UNL     1       5.077   4.236  18.651  0.00  0.00    +0.000 A 
ATOM     10  C   UNL     1       4.451   3.517  17.631  0.00  0.00    +0.000 A 
ATOM     11  C   UNL     1       3.074   3.621  17.433  0.00  0.00    +0.000 A 
ATOM     12  C   UNL     1       2.316   4.476  18.233  0.00  0.00    +0.000 A 
ATOM     13  C   UNL     1       2.936   5.230  19.234  0.00  0.00    +0.000 A 
ATOM     14  C   UNL     1       4.316   5.089  19.456  0.00  0.00    +0.000 A 
BRANCH   9  15
ATOM     15  O   UNL     1       6.438   4.103  18.711  0.00  0.00    +0.000 OA
BRANCH  15  16
ATOM     16  C   UNL     1       7.190   5.095  18.004  0.00  0.00    +0.000 C 
BRANCH  16  18
ATOM     17  O   UNL     1       8.312   7.122  18.714  0.00  0.00    +0.000 OA
ATOM     18  C   UNL     1       7.855   6.026  19.006  0.00  0.00    +0.000 C 
BRANCH  18  19
ATOM     19  O   UNL     1       7.919   5.519  20.260  0.00  0.00    +0.000 OA
ATOM     20  H   UNL     1       8.752   5.009  20.371  0.00  0.00    +0.000 HD
ENDBRANCH  18  19
ENDBRANCH  16  18
ENDBRANCH  15  16
ENDBRANCH   9  15
ENDBRANCH   1  13
BRANCH   6  21
ATOM     21  C   UNL     1       0.758  10.997  19.954  0.00  0.00    +0.000 C 
BRANCH  21  22
ATOM     22  C   UNL     1      -0.507  11.403  19.213  0.00  0.00    +0.000 C 
ATOM     23  O   UNL     1      -0.740  12.545  18.843  0.00  0.00    +0.000 OA
BRANCH  22  24
ATOM     24  O   UNL     1      -1.417  10.407  19.082  0.00  0.00    +0.000 OA
ATOM     25  H   UNL     1      -1.831  10.331  18.190  0.00  0.00    +0.000 HD
ENDBRANCH  22  24
ENDBRANCH  21  22
ENDBRANCH   6  21
TORSDOF 8
ENDMDL
MODEL 6
REMARK VINA RESULT:      -6.8      3.198      7.960
REMARK  Name = 
REMARK  8 active torsions:
REMARK  status: ('A' for Active; 'I' for Inactive)
REMARK    1  A    between atoms: C_2  and  O_3
REMARK    2  A    between atoms: C_2  and  C_4
REMARK    3  A    between atoms: C_4  and  O_5
REMARK    4  A    between atoms: O_5  and  C_6
REMARK    5  A    between atoms: C_10  and  C_11
REMARK    6  A    between atoms: N_16  and  C_17
REMARK    7  A    between atoms: C_17  and  C_18
REMARK    8  A    between atoms: C_18  and  O_20
REMARK                            x       y       z     vdW  Elec       q    Type
REMARK                         _______ _______ _______ _____ _____    ______ ____
ROOT
ATOM      1  C   UNL     1       2.654   7.505  17.832  0.00  0.00    +0.000 C 
ATOM      2  C   UNL     1       2.033   8.275  18.741  0.00  0.00    +0.000 C 
ATOM      3  S   UNL     1       1.616   7.831  20.354  0.00  0.00    +0.000 S 
ATOM      4  C   UNL     1       0.880   9.382  20.691  0.00  0.00    +0.000 C 
ATOM      5  O   UNL     1       0.390   9.660  21.774  0.00  0.00    +0.000 OA
ATOM      6  N   UNL     1       0.926  10.172  19.577  0.00  0.00    +0.000 N 
ATOM      7  C   UNL     1       1.595   9.677  18.485  0.00  0.00    +0.000 C 
ATOM      8  O   UNL     1       1.844  10.328  17.482  0.00  0.00    +0.000 OA
ENDROOT
BRANCH   1  13
ATOM      9  C   UNL     1       4.821   4.513  18.592  0.00  0.00    +0.000 A 
ATOM     10  C   UNL     1       3.932   3.474  18.308  0.00  0.00    +0.000 A 
ATOM     11  C   UNL     1       2.608   3.748  17.967  0.00  0.00    +0.000 A 
ATOM     12  C   UNL     1       2.170   5.069  17.870  0.00  0.00    +0.000 A 
ATOM     13  C   UNL     1       3.060   6.120  18.114  0.00  0.00    +0.000 A 
ATOM     14  C   UNL     1       4.381   5.837  18.499  0.00  0.00    +0.000 A 
BRANCH   9  15
ATOM     15  O   UNL     1       6.108   4.126  18.853  0.00  0.00    +0.000 OA
BRANCH  15  16
ATOM     16  C   UNL     1       7.131   4.930  18.257  0.00  0.00    +0.000 C 
BRANCH  16  18
ATOM     17  O   UNL     1       7.987   5.302  20.493  0.00  0.00    +0.000 OA
ATOM     18  C   UNL     1       7.856   5.705  19.345  0.00  0.00    +0.000 C 
BRANCH  18  19
ATOM     19  O   UNL     1       8.329   6.906  18.935  0.00  0.00    +0.000 OA
ATOM     20  H   UNL     1       9.088   7.175  19.498  0.00  0.00    +0.000 HD
ENDBRANCH  18  19
ENDBRANCH  16  18
ENDBRANCH  15  16
ENDBRANCH   9  15
ENDBRANCH   1  13
BRANCH   6  21
ATOM     21  C   UNL     1       0.300  11.484  19.571  0.00  0.00    +0.000 C 
BRANCH  21  22
ATOM     22  C   UNL     1      -0.922  11.543  18.667  0.00  0.00    +0.000 C 
ATOM     23  O   UNL     1      -1.174  12.482  17.926  0.00  0.00    +0.000 OA
BRANCH  22  24
ATOM     24  O   UNL     1      -1.777  10.503  18.823  0.00  0.00    +0.000 OA
ATOM     25  H   UNL     1      -2.533  10.669  19.435  0.00  0.00    +0.000 HD
ENDBRANCH  22  24
ENDBRANCH  21  22
ENDBRANCH   6  21
TORSDOF 8
ENDMDL
MODEL 7
REMARK VINA RESULT:      -6.7      3.156      7.972
REMARK  Name = 
REMARK  8 active torsions:
REMARK  status: ('A' for Active; 'I' for Inactive)
REMARK    1  A    between atoms: C_2  and  O_3
REMARK    2  A    between atoms: C_2  and  C_4
REMARK    3  A    between atoms: C_4  and  O_5
REMARK    4  A    between atoms: O_5  and  C_6
REMARK    5  A    between atoms: C_10  and  C_11
REMARK    6  A    between atoms: N_16  and  C_17
REMARK    7  A    between atoms: C_17  and  C_18
REMARK    8  A    between atoms: C_18  and  O_20
REMARK                            x       y       z     vdW  Elec       q    Type
REMARK                         _______ _______ _______ _____ _____    ______ ____
ROOT
ATOM      1  C   UNL     1       1.704   6.266  20.770  0.00  0.00    +0.000 C 
ATOM      2  C   UNL     1       1.678   7.383  20.024  0.00  0.00    +0.000 C 
ATOM      3  S   UNL     1       2.280   7.563  18.418  0.00  0.00    +0.000 S 
ATOM      4  C   UNL     1       1.840   9.255  18.342  0.00  0.00    +0.000 C 
ATOM      5  O   UNL     1       2.030   9.944  17.354  0.00  0.00    +0.000 OA
ATOM      6  N   UNL     1       1.296   9.649  19.533  0.00  0.00    +0.000 N 
ATOM      7  C   UNL     1       1.108   8.680  20.487  0.00  0.00    +0.000 C 
ATOM      8  O   UNL     1       0.499   8.857  21.532  0.00  0.00    +0.000 OA
ENDROOT
BRANCH   1  13
ATOM      9  C   UNL     1       4.174   3.807  19.325  0.00  0.00    +0.000 A 
ATOM     10  C   UNL     1       3.329   2.733  19.038  0.00  0.00    +0.000 A 
ATOM     11  C   UNL     1       1.983   2.774  19.403  0.00  0.00    +0.000 A 
ATOM     12  C   UNL     1       1.462   3.908  20.026  0.00  0.00    +0.000 A 
ATOM     13  C   UNL     1       2.289   5.005  20.285  0.00  0.00    +0.000 A 
ATOM     14  C   UNL     1       3.652   4.942  19.955  0.00  0.00    +0.000 A 
BRANCH   9  15
ATOM     15  O   UNL     1       5.457   3.680  18.866  0.00  0.00    +0.000 OA
BRANCH  15  16
ATOM     16  C   UNL     1       5.887   4.683  17.939  0.00  0.00    +0.000 C 
BRANCH  16  18
ATOM     17  O   UNL     1       8.035   4.368  16.862  0.00  0.00    +0.000 OA
ATOM     18  C   UNL     1       7.405   4.678  17.864  0.00  0.00    +0.000 C 
BRANCH  18  19
ATOM     19  O   UNL     1       8.008   5.027  19.026  0.00  0.00    +0.000 OA
ATOM     20  H   UNL     1       8.964   4.801  18.986  0.00  0.00    +0.000 HD
ENDBRANCH  18  19
ENDBRANCH  16  18
ENDBRANCH  15  16
ENDBRANCH   9  15
ENDBRANCH   1  13
BRANCH   6  21
ATOM     21  C   UNL     1       0.926  11.037  19.757  0.00  0.00    +0.000 C 
BRANCH  21  22
ATOM     22  C   UNL     1      -0.382  11.408  19.076  0.00  0.00    +0.000 C 
ATOM     23  O   UNL     1      -1.480  11.038  19.467  0.00  0.00    +0.000 OA
BRANCH  22  24
ATOM     24  O   UNL     1      -0.229  12.107  17.926  0.00  0.00    +0.000 OA
ATOM     25  H   UNL     1       0.572  12.682  17.887  0.00  0.00    +0.000 HD
ENDBRANCH  22  24
ENDBRANCH  21  22
ENDBRANCH   6  21
TORSDOF 8
ENDMDL
MODEL 8
REMARK VINA RESULT:      -6.7      3.694      7.304
REMARK  Name = 
REMARK  8 active torsions:
REMARK  status: ('A' for Active; 'I' for Inactive)
REMARK    1  A    between atoms: C_2  and  O_3
REMARK    2  A    between atoms: C_2  and  C_4
REMARK    3  A    between atoms: C_4  and  O_5
REMARK    4  A    between atoms: O_5  and  C_6
REMARK    5  A    between atoms: C_10  and  C_11
REMARK    6  A    between atoms: N_16  and  C_17
REMARK    7  A    between atoms: C_17  and  C_18
REMARK    8  A    between atoms: C_18  and  O_20
REMARK                            x       y       z     vdW  Elec       q    Type
REMARK                         _______ _______ _______ _____ _____    ______ ____
ROOT
ATOM      1  C   UNL     1       2.995   7.218  17.733  0.00  0.00    +0.000 C 
ATOM      2  C   UNL     1       2.302   7.899  18.661  0.00  0.00    +0.000 C 
ATOM      3  S   UNL     1       1.910   7.365  20.252  0.00  0.00    +0.000 S 
ATOM      4  C   UNL     1       1.038   8.832  20.633  0.00  0.00    +0.000 C 
ATOM      5  O   UNL     1       0.516   9.029  21.718  0.00  0.00    +0.000 OA
ATOM      6  N   UNL     1       1.025   9.662  19.546  0.00  0.00    +0.000 N 
ATOM      7  C   UNL     1       1.745   9.265  18.447  0.00  0.00    +0.000 C 
ATOM      8  O   UNL     1       1.945   9.971  17.469  0.00  0.00    +0.000 OA
ENDROOT
BRANCH   1  13
ATOM      9  C   UNL     1       3.114   3.480  18.222  0.00  0.00    +0.000 A 
ATOM     10  C   UNL     1       4.393   3.332  18.763  0.00  0.00    +0.000 A 
ATOM     11  C   UNL     1       5.245   4.431  18.876  0.00  0.00    +0.000 A 
ATOM     12  C   UNL     1       4.810   5.697  18.482  0.00  0.00    +0.000 A 
ATOM     13  C   UNL     1       3.518   5.864  17.973  0.00  0.00    +0.000 A 
ATOM     14  C   UNL     1       2.680   4.748  17.822  0.00  0.00    +0.000 A 
BRANCH   9  15
ATOM     15  O   UNL     1       2.347   2.346  18.218  0.00  0.00    +0.000 OA
BRANCH  15  16
ATOM     16  C   UNL     1       1.019   2.494  18.733  0.00  0.00    +0.000 C 
BRANCH  16  18
ATOM     17  O   UNL     1       1.643   2.220  21.058  0.00  0.00    +0.000 OA
ATOM     18  C   UNL     1       1.092   2.893  20.198  0.00  0.00    +0.000 C 
BRANCH  18  19
ATOM     19  O   UNL     1       0.465   4.061  20.475  0.00  0.00    +0.000 OA
ATOM     20  H   UNL     1       0.642   4.712  19.760  0.00  0.00    +0.000 HD
ENDBRANCH  18  19
ENDBRANCH  16  18
ENDBRANCH  15  16
ENDBRANCH   9  15
ENDBRANCH   1  13
BRANCH   6  21
ATOM     21  C   UNL     1       0.287  10.914  19.578  0.00  0.00    +0.000 C 
BRANCH  21  22
ATOM     22  C   UNL     1      -0.876  10.929  18.598  0.00  0.00    +0.000 C 
ATOM     23  O   UNL     1      -1.803  10.132  18.631  0.00  0.00    +0.000 OA
BRANCH  22  24
ATOM     24  O   UNL     1      -0.753  11.844  17.606  0.00  0.00    +0.000 OA
ATOM     25  H   UNL     1      -0.836  11.485  16.690  0.00  0.00    +0.000 HD
ENDBRANCH  22  24
ENDBRANCH  21  22
ENDBRANCH   6  21
TORSDOF 8
ENDMDL
MODEL 9
REMARK VINA RESULT:      -6.7      2.398      3.375
REMARK  Name = 
REMARK  8 active torsions:
REMARK  status: ('A' for Active; 'I' for Inactive)
REMARK    1  A    between atoms: C_2  and  O_3
REMARK    2  A    between atoms: C_2  and  C_4
REMARK    3  A    between atoms: C_4  and  O_5
REMARK    4  A    between atoms: O_5  and  C_6
REMARK    5  A    between atoms: C_10  and  C_11
REMARK    6  A    between atoms: N_16  and  C_17
REMARK    7  A    between atoms: C_17  and  C_18
REMARK    8  A    between atoms: C_18  and  O_20
REMARK                            x       y       z     vdW  Elec       q    Type
REMARK                         _______ _______ _______ _____ _____    ______ ____
ROOT
ATOM      1  C   UNL     1       3.257   7.712  17.774  0.00  0.00    +0.000 C 
ATOM      2  C   UNL     1       3.620   6.442  17.531  0.00  0.00    +0.000 C 
ATOM      3  S   UNL     1       3.014   5.030  18.314  0.00  0.00    +0.000 S 
ATOM      4  C   UNL     1       4.045   3.960  17.391  0.00  0.00    +0.000 C 
ATOM      5  O   UNL     1       4.030   2.747  17.525  0.00  0.00    +0.000 OA
ATOM      6  N   UNL     1       4.844   4.689  16.555  0.00  0.00    +0.000 N 
ATOM      7  C   UNL     1       4.637   6.045  16.516  0.00  0.00    +0.000 C 
ATOM      8  O   UNL     1       5.170   6.796  15.712  0.00  0.00    +0.000 OA
ENDROOT
BRANCH   1  13
ATOM      9  C   UNL     1       0.678   9.676  19.702  0.00  0.00    +0.000 A 
ATOM     10  C   UNL     1       0.625   8.938  20.885  0.00  0.00    +0.000 A 
ATOM     11  C   UNL     1       1.351   7.754  21.015  0.00  0.00    +0.000 A 
ATOM     12  C   UNL     1       2.168   7.318  19.972  0.00  0.00    +0.000 A 
ATOM     13  C   UNL     1       2.260   8.068  18.795  0.00  0.00    +0.000 A 
ATOM     14  C   UNL     1       1.493   9.237  18.654  0.00  0.00    +0.000 A 
BRANCH   9  15
ATOM     15  O   UNL     1      -0.026  10.850  19.713  0.00  0.00    +0.000 OA
BRANCH  15  16
ATOM     16  C   UNL     1       0.454  11.871  18.832  0.00  0.00    +0.000 C 
BRANCH  16  18
ATOM     17  O   UNL     1      -1.142  13.614  19.367  0.00  0.00    +0.000 OA
ATOM     18  C   UNL     1      -0.673  12.848  18.536  0.00  0.00    +0.000 C 
BRANCH  18  19
ATOM     19  O   UNL     1      -1.134  12.778  17.265  0.00  0.00    +0.000 OA
ATOM     20  H   UNL     1      -1.983  13.268  17.191  0.00  0.00    +0.000 HD
ENDBRANCH  18  19
ENDBRANCH  16  18
ENDBRANCH  15  16
ENDBRANCH   9  15
ENDBRANCH   1  13
BRANCH   6  21
ATOM     21  C   UNL     1       5.856   4.037  15.740  0.00  0.00    +0.000 C 
BRANCH  21  22
ATOM     22  C   UNL     1       7.250   4.593  15.987  0.00  0.00    +0.000 C 
ATOM     23  O   UNL     1       7.889   4.395  17.012  0.00  0.00    +0.000 OA
BRANCH  22  24
ATOM     24  O   UNL     1       7.697   5.421  15.013  0.00  0.00    +0.000 OA
ATOM     25  H   UNL     1       8.199   6.209  15.329  0.00  0.00    +0.000 HD
ENDBRANCH  22  24
ENDBRANCH  21  22
ENDBRANCH   6  21
TORSDOF 8
ENDMDL
