MODEL 1
REMARK VINA RESULT:      -7.9      0.000      0.000
REMARK  Name = 
REMARK  3 active torsions:
REMARK  status: ('A' for Active; 'I' for Inactive)
REMARK    1  A    between atoms: C_1  and  C_2
REMARK    2  A    between atoms: C_6  and  C_7
REMARK    3  A    between atoms: C_6  and  N_13
REMARK                            x       y       z     vdW  Elec       q    Type
REMARK                         _______ _______ _______ _____ _____    ______ ____
ROOT
ATOM      1  C   UNL     1       1.727   2.774  21.670  0.00  0.00    +0.000 C 
ATOM      2  C   UNL     1       1.745   3.698  20.449  0.00  0.00    +0.000 C 
ATOM      3  C   UNL     1       1.002   3.035  19.289  0.00  0.00    +0.000 C 
ATOM      4  C   UNL     1       1.130   3.796  17.980  0.00  0.00    +0.000 C 
ATOM      5  C   UNL     1       2.566   4.233  17.663  0.00  0.00    +0.000 C 
ATOM      6  C   UNL     1       3.394   4.941  18.809  0.00  0.00    +0.000 C 
ATOM      7  C   UNL     1       3.194   4.015  20.066  0.00  0.00    +0.000 C 
ENDROOT
BRANCH   6   8
ATOM      8  C   UNL     1       4.920   4.866  18.409  0.00  0.00    +0.000 A 
ATOM      9  C   UNL     1       5.940   5.361  19.248  0.00  0.00    +0.000 A 
ATOM     10  C   UNL     1       7.278   5.405  18.835  0.00  0.00    +0.000 A 
ATOM     11  C   UNL     1       7.646   4.911  17.587  0.00  0.00    +0.000 A 
ATOM     12  C   UNL     1       6.676   4.362  16.760  0.00  0.00    +0.000 A 
ATOM     13  C   UNL     1       5.338   4.342  17.167  0.00  0.00    +0.000 A 
ENDBRANCH   6   8
BRANCH   6  14
ATOM     14  N   UNL     1       3.027   6.393  19.027  0.00  0.00    +0.000 NA
ATOM     15  C   UNL     1       2.701   7.179  17.831  0.00  0.00    +0.000 C 
ATOM     16  C   UNL     1       2.388   8.660  18.083  0.00  0.00    +0.000 C 
ATOM     17  C   UNL     1       1.318   8.822  19.146  0.00  0.00    +0.000 C 
ATOM     18  C   UNL     1       1.767   8.094  20.400  0.00  0.00    +0.000 C 
ATOM     19  C   UNL     1       2.042   6.616  20.102  0.00  0.00    +0.000 C 
ENDBRANCH   6  14
TORSDOF 2
ENDMDL
MODEL 2
REMARK VINA RESULT:      -7.9      0.142      1.107
REMARK  Name = 
REMARK  3 active torsions:
REMARK  status: ('A' for Active; 'I' for Inactive)
REMARK    1  A    between atoms: C_1  and  C_2
REMARK    2  A    between atoms: C_6  and  C_7
REMARK    3  A    between atoms: C_6  and  N_13
REMARK                            x       y       z     vdW  Elec       q    Type
REMARK                         _______ _______ _______ _____ _____    ______ ____
ROOT
ATOM      1  C   UNL     1       1.959   2.843  21.731  0.00  0.00    +0.000 C 
ATOM      2  C   UNL     1       1.888   3.762  20.507  0.00  0.00    +0.000 C 
ATOM      3  C   UNL     1       1.096   3.077  19.393  0.00  0.00    +0.000 C 
ATOM      4  C   UNL     1       1.134   3.835  18.077  0.00  0.00    +0.000 C 
ATOM      5  C   UNL     1       2.540   4.302  17.678  0.00  0.00    +0.000 C 
ATOM      6  C   UNL     1       3.415   5.033  18.774  0.00  0.00    +0.000 C 
ATOM      7  C   UNL     1       3.306   4.109  20.043  0.00  0.00    +0.000 C 
ENDROOT
BRANCH   6   8
ATOM      8  C   UNL     1       4.917   4.990  18.289  0.00  0.00    +0.000 A 
ATOM      9  C   UNL     1       5.281   4.504  17.016  0.00  0.00    +0.000 A 
ATOM     10  C   UNL     1       6.622   4.354  16.641  0.00  0.00    +0.000 A 
ATOM     11  C   UNL     1       7.643   4.728  17.508  0.00  0.00    +0.000 A 
ATOM     12  C   UNL     1       7.319   5.265  18.747  0.00  0.00    +0.000 A 
ATOM     13  C   UNL     1       5.979   5.392  19.128  0.00  0.00    +0.000 A 
ENDBRANCH   6   8
BRANCH   6  14
ATOM     14  N   UNL     1       3.028   6.477  19.008  0.00  0.00    +0.000 NA
ATOM     15  C   UNL     1       2.705   7.276  17.819  0.00  0.00    +0.000 C 
ATOM     16  C   UNL     1       2.372   8.749  18.087  0.00  0.00    +0.000 C 
ATOM     17  C   UNL     1       1.289   8.885  19.142  0.00  0.00    +0.000 C 
ATOM     18  C   UNL     1       1.734   8.145  20.390  0.00  0.00    +0.000 C 
ATOM     19  C   UNL     1       2.030   6.675  20.075  0.00  0.00    +0.000 C 
ENDBRANCH   6  14
TORSDOF 2
ENDMDL
MODEL 3
REMARK VINA RESULT:      -7.8      1.002      1.017
REMARK  Name = 
REMARK  3 active torsions:
REMARK  status: ('A' for Active; 'I' for Inactive)
REMARK    1  A    between atoms: C_1  and  C_2
REMARK    2  A    between atoms: C_6  and  C_7
REMARK    3  A    between atoms: C_6  and  N_13
REMARK                            x       y       z     vdW  Elec       q    Type
REMARK                         _______ _______ _______ _____ _____    ______ ____
ROOT
ATOM      1  C   UNL     1       1.918   3.150  21.529  0.00  0.00    +0.000 C 
ATOM      2  C   UNL     1       1.859   4.131  20.354  0.00  0.00    +0.000 C 
ATOM      3  C   UNL     1       1.271   3.433  19.127  0.00  0.00    +0.000 C 
ATOM      4  C   UNL     1       1.349   4.273  17.864  0.00  0.00    +0.000 C 
ATOM      5  C   UNL     1       2.720   4.923  17.642  0.00  0.00    +0.000 C 
ATOM      6  C   UNL     1       3.386   5.678  18.862  0.00  0.00    +0.000 C 
ATOM      7  C   UNL     1       3.263   4.668  20.063  0.00  0.00    +0.000 C 
ENDROOT
BRANCH   6   8
ATOM      8  C   UNL     1       4.923   5.840  18.539  0.00  0.00    +0.000 A 
ATOM      9  C   UNL     1       5.926   5.340  19.397  0.00  0.00    +0.000 A 
ATOM     10  C   UNL     1       7.285   5.595  19.168  0.00  0.00    +0.000 A 
ATOM     11  C   UNL     1       7.688   6.318  18.050  0.00  0.00    +0.000 A 
ATOM     12  C   UNL     1       6.730   6.773  17.154  0.00  0.00    +0.000 A 
ATOM     13  C   UNL     1       5.373   6.537  17.397  0.00  0.00    +0.000 A 
ENDBRANCH   6   8
BRANCH   6  14
ATOM     14  N   UNL     1       2.806   7.051  19.128  0.00  0.00    +0.000 NA
ATOM     15  C   UNL     1       2.234   7.761  17.977  0.00  0.00    +0.000 C 
ATOM     16  C   UNL     1       1.705   9.171  18.271  0.00  0.00    +0.000 C 
ATOM     17  C   UNL     1       0.736   9.162  19.439  0.00  0.00    +0.000 C 
ATOM     18  C   UNL     1       1.425   8.531  20.635  0.00  0.00    +0.000 C 
ATOM     19  C   UNL     1       1.911   7.117  20.298  0.00  0.00    +0.000 C 
ENDBRANCH   6  14
TORSDOF 2
ENDMDL
MODEL 4
REMARK VINA RESULT:      -7.6      1.578      5.415
REMARK  Name = 
REMARK  3 active torsions:
REMARK  status: ('A' for Active; 'I' for Inactive)
REMARK    1  A    between atoms: C_1  and  C_2
REMARK    2  A    between atoms: C_6  and  C_7
REMARK    3  A    between atoms: C_6  and  N_13
REMARK                            x       y       z     vdW  Elec       q    Type
REMARK                         _______ _______ _______ _____ _____    ______ ____
ROOT
ATOM      1  C   UNL     1       8.098   5.767  19.095  0.00  0.00    +0.000 C 
ATOM      2  C   UNL     1       6.880   5.286  18.300  0.00  0.00    +0.000 C 
ATOM      3  C   UNL     1       7.130   5.482  16.804  0.00  0.00    +0.000 C 
ATOM      4  C   UNL     1       5.903   5.209  15.950  0.00  0.00    +0.000 C 
ATOM      5  C   UNL     1       4.624   5.867  16.484  0.00  0.00    +0.000 C 
ATOM      6  C   UNL     1       4.290   5.695  18.020  0.00  0.00    +0.000 C 
ATOM      7  C   UNL     1       5.635   6.052  18.757  0.00  0.00    +0.000 C 
ENDROOT
BRANCH   6   8
ATOM      8  C   UNL     1       3.235   6.804  18.405  0.00  0.00    +0.000 A 
ATOM      9  C   UNL     1       2.943   7.889  17.552  0.00  0.00    +0.000 A 
ATOM     10  C   UNL     1       2.099   8.934  17.952  0.00  0.00    +0.000 A 
ATOM     11  C   UNL     1       1.483   8.905  19.199  0.00  0.00    +0.000 A 
ATOM     12  C   UNL     1       1.702   7.822  20.039  0.00  0.00    +0.000 A 
ATOM     13  C   UNL     1       2.563   6.792  19.647  0.00  0.00    +0.000 A 
ENDBRANCH   6   8
BRANCH   6  14
ATOM     14  N   UNL     1       3.714   4.341  18.377  0.00  0.00    +0.000 NA
ATOM     15  C   UNL     1       3.108   3.571  17.284  0.00  0.00    +0.000 C 
ATOM     16  C   UNL     1       2.485   2.230  17.691  0.00  0.00    +0.000 C 
ATOM     17  C   UNL     1       3.470   1.380  18.471  0.00  0.00    +0.000 C 
ATOM     18  C   UNL     1       3.967   2.183  19.660  0.00  0.00    +0.000 C 
ATOM     19  C   UNL     1       4.602   3.499  19.199  0.00  0.00    +0.000 C 
ENDBRANCH   6  14
TORSDOF 2
ENDMDL
MODEL 5
REMARK VINA RESULT:      -7.6      2.504      5.360
REMARK  Name = 
REMARK  3 active torsions:
REMARK  status: ('A' for Active; 'I' for Inactive)
REMARK    1  A    between atoms: C_1  and  C_2
REMARK    2  A    between atoms: C_6  and  C_7
REMARK    3  A    between atoms: C_6  and  N_13
REMARK                            x       y       z     vdW  Elec       q    Type
REMARK                         _______ _______ _______ _____ _____    ______ ____
ROOT
ATOM      1  C   UNL     1       7.954   8.702  17.811  0.00  0.00    +0.000 C 
ATOM      2  C   UNL     1       7.263   7.336  17.867  0.00  0.00    +0.000 C 
ATOM      3  C   UNL     1       8.125   6.353  18.660  0.00  0.00    +0.000 C 
ATOM      4  C   UNL     1       7.610   4.925  18.608  0.00  0.00    +0.000 C 
ATOM      5  C   UNL     1       7.233   4.460  17.195  0.00  0.00    +0.000 C 
ATOM      6  C   UNL     1       6.329   5.417  16.319  0.00  0.00    +0.000 C 
ATOM      7  C   UNL     1       7.015   6.828  16.443  0.00  0.00    +0.000 C 
ENDROOT
BRANCH   6   8
ATOM      8  C   UNL     1       6.469   4.957  14.815  0.00  0.00    +0.000 A 
ATOM      9  C   UNL     1       5.576   4.039  14.224  0.00  0.00    +0.000 A 
ATOM     10  C   UNL     1       5.779   3.542  12.930  0.00  0.00    +0.000 A 
ATOM     11  C   UNL     1       6.855   3.983  12.166  0.00  0.00    +0.000 A 
ATOM     12  C   UNL     1       7.720   4.931  12.695  0.00  0.00    +0.000 A 
ATOM     13  C   UNL     1       7.528   5.408  13.996  0.00  0.00    +0.000 A 
ENDBRANCH   6   8
BRANCH   6  14
ATOM     14  N   UNL     1       4.862   5.391  16.692  0.00  0.00    +0.000 NA
ATOM     15  C   UNL     1       4.350   4.146  17.277  0.00  0.00    +0.000 C 
ATOM     16  C   UNL     1       2.849   4.135  17.593  0.00  0.00    +0.000 C 
ATOM     17  C   UNL     1       2.457   5.333  18.438  0.00  0.00    +0.000 C 
ATOM     18  C   UNL     1       2.899   6.597  17.722  0.00  0.00    +0.000 C 
ATOM     19  C   UNL     1       4.408   6.569  17.454  0.00  0.00    +0.000 C 
ENDBRANCH   6  14
TORSDOF 2
ENDMDL
MODEL 6
REMARK VINA RESULT:      -7.5      1.057      5.199
REMARK  Name = 
REMARK  3 active torsions:
REMARK  status: ('A' for Active; 'I' for Inactive)
REMARK    1  A    between atoms: C_1  and  C_2
REMARK    2  A    between atoms: C_6  and  C_7
REMARK    3  A    between atoms: C_6  and  N_13
REMARK                            x       y       z     vdW  Elec       q    Type
REMARK                         _______ _______ _______ _____ _____    ______ ____
ROOT
ATOM      1  C   UNL     1       7.946   5.523  19.280  0.00  0.00    +0.000 C 
ATOM      2  C   UNL     1       6.724   5.068  18.477  0.00  0.00    +0.000 C 
ATOM      3  C   UNL     1       7.018   5.182  16.981  0.00  0.00    +0.000 C 
ATOM      4  C   UNL     1       5.800   4.932  16.109  0.00  0.00    +0.000 C 
ATOM      5  C   UNL     1       4.544   5.677  16.579  0.00  0.00    +0.000 C 
ATOM      6  C   UNL     1       4.165   5.593  18.112  0.00  0.00    +0.000 C 
ATOM      7  C   UNL     1       5.509   5.916  18.867  0.00  0.00    +0.000 C 
ENDROOT
BRANCH   6   8
ATOM      8  C   UNL     1       3.160   6.771  18.419  0.00  0.00    +0.000 A 
ATOM      9  C   UNL     1       2.882   7.785  17.478  0.00  0.00    +0.000 A 
ATOM     10  C   UNL     1       2.087   8.892  17.801  0.00  0.00    +0.000 A 
ATOM     11  C   UNL     1       1.505   8.999  19.060  0.00  0.00    +0.000 A 
ATOM     12  C   UNL     1       1.709   7.989  19.990  0.00  0.00    +0.000 A 
ATOM     13  C   UNL     1       2.523   6.897  19.673  0.00  0.00    +0.000 A 
ENDBRANCH   6   8
BRANCH   6  14
ATOM     14  N   UNL     1       3.512   4.289  18.515  0.00  0.00    +0.000 NA
ATOM     15  C   UNL     1       3.487   3.977  19.949  0.00  0.00    +0.000 C 
ATOM     16  C   UNL     1       2.867   2.623  20.318  0.00  0.00    +0.000 C 
ATOM     17  C   UNL     1       1.488   2.465  19.705  0.00  0.00    +0.000 C 
ATOM     18  C   UNL     1       1.598   2.674  18.205  0.00  0.00    +0.000 C 
ATOM     19  C   UNL     1       2.198   4.049  17.891  0.00  0.00    +0.000 C 
ENDBRANCH   6  14
TORSDOF 2
ENDMDL
MODEL 7
REMARK VINA RESULT:      -7.4      1.533      5.335
REMARK  Name = 
REMARK  3 active torsions:
REMARK  status: ('A' for Active; 'I' for Inactive)
REMARK    1  A    between atoms: C_1  and  C_2
REMARK    2  A    between atoms: C_6  and  C_7
REMARK    3  A    between atoms: C_6  and  N_13
REMARK                            x       y       z     vdW  Elec       q    Type
REMARK                         _______ _______ _______ _____ _____    ______ ____
ROOT
ATOM      1  C   UNL     1       8.179   5.583  19.038  0.00  0.00    +0.000 C 
ATOM      2  C   UNL     1       6.924   5.170  18.263  0.00  0.00    +0.000 C 
ATOM      3  C   UNL     1       7.154   5.372  16.764  0.00  0.00    +0.000 C 
ATOM      4  C   UNL     1       5.900   5.167  15.932  0.00  0.00    +0.000 C 
ATOM      5  C   UNL     1       4.664   5.878  16.498  0.00  0.00    +0.000 C 
ATOM      6  C   UNL     1       4.352   5.705  18.039  0.00  0.00    +0.000 C 
ATOM      7  C   UNL     1       5.725   5.989  18.752  0.00  0.00    +0.000 C 
ENDROOT
BRANCH   6   8
ATOM      8  C   UNL     1       3.358   6.858  18.456  0.00  0.00    +0.000 A 
ATOM      9  C   UNL     1       2.643   6.829  19.672  0.00  0.00    +0.000 A 
ATOM     10  C   UNL     1       1.672   7.792  19.978  0.00  0.00    +0.000 A 
ATOM     11  C   UNL     1       1.417   8.841  19.101  0.00  0.00    +0.000 A 
ATOM     12  C   UNL     1       2.145   8.933  17.923  0.00  0.00    +0.000 A 
ATOM     13  C   UNL     1       3.098   7.957  17.608  0.00  0.00    +0.000 A 
ENDBRANCH   6   8
BRANCH   6  14
ATOM     14  N   UNL     1       3.718   4.376  18.393  0.00  0.00    +0.000 NA
ATOM     15  C   UNL     1       3.136   3.606  17.287  0.00  0.00    +0.000 C 
ATOM     16  C   UNL     1       2.454   2.292  17.688  0.00  0.00    +0.000 C 
ATOM     17  C   UNL     1       3.378   1.425  18.524  0.00  0.00    +0.000 C 
ATOM     18  C   UNL     1       3.848   2.234  19.720  0.00  0.00    +0.000 C 
ATOM     19  C   UNL     1       4.544   3.522  19.266  0.00  0.00    +0.000 C 
ENDBRANCH   6  14
TORSDOF 2
ENDMDL
MODEL 8
REMARK VINA RESULT:      -7.4      0.480      1.636
REMARK  Name = 
REMARK  3 active torsions:
REMARK  status: ('A' for Active; 'I' for Inactive)
REMARK    1  A    between atoms: C_1  and  C_2
REMARK    2  A    between atoms: C_6  and  C_7
REMARK    3  A    between atoms: C_6  and  N_13
REMARK                            x       y       z     vdW  Elec       q    Type
REMARK                         _______ _______ _______ _____ _____    ______ ____
ROOT
ATOM      1  C   UNL     1       1.812   2.830  21.931  0.00  0.00    +0.000 C 
ATOM      2  C   UNL     1       1.671   3.537  20.579  0.00  0.00    +0.000 C 
ATOM      3  C   UNL     1       1.115   2.561  19.541  0.00  0.00    +0.000 C 
ATOM      4  C   UNL     1       1.120   3.120  18.129  0.00  0.00    +0.000 C 
ATOM      5  C   UNL     1       2.442   3.793  17.739  0.00  0.00    +0.000 C 
ATOM      6  C   UNL     1       3.072   4.828  18.755  0.00  0.00    +0.000 C 
ATOM      7  C   UNL     1       3.033   4.088  20.144  0.00  0.00    +0.000 C 
ENDROOT
BRANCH   6   8
ATOM      8  C   UNL     1       4.591   5.014  18.365  0.00  0.00    +0.000 A 
ATOM      9  C   UNL     1       5.078   4.699  17.079  0.00  0.00    +0.000 A 
ATOM     10  C   UNL     1       6.446   4.749  16.778  0.00  0.00    +0.000 A 
ATOM     11  C   UNL     1       7.365   5.159  17.738  0.00  0.00    +0.000 A 
ATOM     12  C   UNL     1       6.912   5.533  18.995  0.00  0.00    +0.000 A 
ATOM     13  C   UNL     1       5.549   5.460  19.301  0.00  0.00    +0.000 A 
ENDBRANCH   6   8
BRANCH   6  14
ATOM     14  N   UNL     1       2.405   6.187  18.744  0.00  0.00    +0.000 NA
ATOM     15  C   UNL     1       2.261   6.863  20.039  0.00  0.00    +0.000 C 
ATOM     16  C   UNL     1       1.532   8.212  19.999  0.00  0.00    +0.000 C 
ATOM     17  C   UNL     1       2.148   9.140  18.968  0.00  0.00    +0.000 C 
ATOM     18  C   UNL     1       2.155   8.434  17.624  0.00  0.00    +0.000 C 
ATOM     19  C   UNL     1       2.916   7.107  17.711  0.00  0.00    +0.000 C 
ENDBRANCH   6  14
TORSDOF 2
ENDMDL
MODEL 9
REMARK VINA RESULT:      -7.3      0.942      4.387
REMARK  Name = 
REMARK  3 active torsions:
REMARK  status: ('A' for Active; 'I' for Inactive)
REMARK    1  A    between atoms: C_1  and  C_2
REMARK    2  A    between atoms: C_6  and  C_7
REMARK    3  A    between atoms: C_6  and  N_13
REMARK                            x       y       z     vdW  Elec       q    Type
REMARK                         _______ _______ _______ _____ _____    ______ ____
ROOT
ATOM      1  C   UNL     1       5.593   5.219  15.074  0.00  0.00    +0.000 C 
ATOM      2  C   UNL     1       5.379   5.706  16.511  0.00  0.00    +0.000 C 
ATOM      3  C   UNL     1       6.622   5.405  17.349  0.00  0.00    +0.000 C 
ATOM      4  C   UNL     1       6.428   5.682  18.830  0.00  0.00    +0.000 C 
ATOM      5  C   UNL     1       5.117   5.119  19.393  0.00  0.00    +0.000 C 
ATOM      6  C   UNL     1       3.785   5.402  18.590  0.00  0.00    +0.000 C 
ATOM      7  C   UNL     1       4.138   5.029  17.102  0.00  0.00    +0.000 C 
ENDROOT
BRANCH   6   8
ATOM      8  C   UNL     1       2.700   4.370  19.088  0.00  0.00    +0.000 A 
ATOM      9  C   UNL     1       2.694   3.866  20.406  0.00  0.00    +0.000 A 
ATOM     10  C   UNL     1       1.805   2.858  20.805  0.00  0.00    +0.000 A 
ATOM     11  C   UNL     1       0.863   2.355  19.913  0.00  0.00    +0.000 A 
ATOM     12  C   UNL     1       0.803   2.871  18.626  0.00  0.00    +0.000 A 
ATOM     13  C   UNL     1       1.706   3.861  18.224  0.00  0.00    +0.000 A 
ENDBRANCH   6   8
BRANCH   6  14
ATOM     14  N   UNL     1       3.237   6.801  18.778  0.00  0.00    +0.000 NA
ATOM     15  C   UNL     1       2.783   7.501  17.570  0.00  0.00    +0.000 C 
ATOM     16  C   UNL     1       2.285   8.935  17.789  0.00  0.00    +0.000 C 
ATOM     17  C   UNL     1       1.229   8.991  18.877  0.00  0.00    +0.000 C 
ATOM     18  C   UNL     1       1.800   8.367  20.138  0.00  0.00    +0.000 C 
ATOM     19  C   UNL     1       2.258   6.929  19.873  0.00  0.00    +0.000 C 
ENDBRANCH   6  14
TORSDOF 2
ENDMDL
