MODEL 1
REMARK VINA RESULT:      -7.4      0.000      0.000
REMARK  Name = 
REMARK  10 active torsions:
REMARK  status: ('A' for Active; 'I' for Inactive)
REMARK    1  A    between atoms: C_1  and  O_2
REMARK    2  A    between atoms: O_2  and  C_3
REMARK    3  A    between atoms: C_3  and  C_5
REMARK    4  A    between atoms: C_5  and  C_6
REMARK    5  A    between atoms: C_5  and  O_7
REMARK    6  A    between atoms: O_7  and  C_8
REMARK    7  A    between atoms: C_13  and  C_14
REMARK    8  A    between atoms: C_14  and  N_15
REMARK    9  A    between atoms: C_18  and  C_19
REMARK   10  A    between atoms: C_18  and  C_20
REMARK                            x       y       z     vdW  Elec       q    Type
REMARK                         _______ _______ _______ _____ _____    ______ ____
ROOT
ATOM      1  C   UNL     1       5.651   4.601  15.021  0.00  0.00    +0.000 A 
ATOM      2  C   UNL     1       6.990   4.449  15.373  0.00  0.00    +0.000 A 
ATOM      3  C   UNL     1       7.405   4.734  16.672  0.00  0.00    +0.000 A 
ATOM      4  C   UNL     1       6.491   5.215  17.614  0.00  0.00    +0.000 A 
ATOM      5 CL   UNL     1       7.066   5.391  19.230  0.00  0.00    +0.000 Cl
ATOM      6  C   UNL     1       5.166   5.494  17.246  0.00  0.00    +0.000 A 
ATOM      7  C   UNL     1       4.758   5.161  15.936  0.00  0.00    +0.000 A 
ENDROOT
BRANCH   1   8
ATOM      8  O   UNL     1       5.325   4.185  13.761  0.00  0.00    +0.000 OA
BRANCH   8   9
ATOM      9  C   UNL     1       6.376   3.625  12.962  0.00  0.00    +0.000 C 
ATOM     10  C   UNL     1       7.239   4.722  12.331  0.00  0.00    +0.000 C 
BRANCH   9  11
ATOM     11  C   UNL     1       5.751   2.781  11.842  0.00  0.00    +0.000 C 
ATOM     12  O   UNL     1       4.595   2.849  11.447  0.00  0.00    +0.000 OA
BRANCH  11  14
ATOM     13  C   UNL     1       6.196   0.578  11.151  0.00  0.00    +0.000 C 
ATOM     14  O   UNL     1       6.684   1.904  11.356  0.00  0.00    +0.000 OA
ENDBRANCH  11  14
ENDBRANCH   9  11
ENDBRANCH   8   9
ENDBRANCH   1   8
BRANCH   6  15
ATOM     15  C   UNL     1       4.155   6.125  18.183  0.00  0.00    +0.000 C 
BRANCH  15  16
ATOM     16  N   UNL     1       3.339   5.168  18.915  0.00  0.00    +0.000 N 
ATOM     17  O   UNL     1       3.949   4.495  19.995  0.00  0.00    +0.000 OA
ATOM     18  C   UNL     1       3.264   3.238  20.092  0.00  0.00    +0.000 C 
ATOM     19  C   UNL     1       1.907   3.408  19.414  0.00  0.00    +0.000 C 
ATOM     20  C   UNL     1       0.821   3.833  20.404  0.00  0.00    +0.000 C 
ATOM     21  C   UNL     1       1.490   2.155  18.654  0.00  0.00    +0.000 C 
ATOM     22  C   UNL     1       2.197   4.549  18.477  0.00  0.00    +0.000 C 
ATOM     23  O   UNL     1       1.495   4.887  17.537  0.00  0.00    +0.000 OA
ENDBRANCH  15  16
ENDBRANCH   6  15
TORSDOF 6
ENDMDL
MODEL 2
REMARK VINA RESULT:      -7.2      1.113      1.466
REMARK  Name = 
REMARK  10 active torsions:
REMARK  status: ('A' for Active; 'I' for Inactive)
REMARK    1  A    between atoms: C_1  and  O_2
REMARK    2  A    between atoms: O_2  and  C_3
REMARK    3  A    between atoms: C_3  and  C_5
REMARK    4  A    between atoms: C_5  and  C_6
REMARK    5  A    between atoms: C_5  and  O_7
REMARK    6  A    between atoms: O_7  and  C_8
REMARK    7  A    between atoms: C_13  and  C_14
REMARK    8  A    between atoms: C_14  and  N_15
REMARK    9  A    between atoms: C_18  and  C_19
REMARK   10  A    between atoms: C_18  and  C_20
REMARK                            x       y       z     vdW  Elec       q    Type
REMARK                         _______ _______ _______ _____ _____    ______ ____
ROOT
ATOM      1  C   UNL     1       5.711   4.709  15.118  0.00  0.00    +0.000 A 
ATOM      2  C   UNL     1       7.080   4.622  15.354  0.00  0.00    +0.000 A 
ATOM      3  C   UNL     1       7.576   4.791  16.645  0.00  0.00    +0.000 A 
ATOM      4  C   UNL     1       6.709   5.093  17.699  0.00  0.00    +0.000 A 
ATOM      5 CL   UNL     1       7.397   5.132  19.280  0.00  0.00    +0.000 Cl
ATOM      6  C   UNL     1       5.344   5.310  17.461  0.00  0.00    +0.000 A 
ATOM      7  C   UNL     1       4.856   5.093  16.154  0.00  0.00    +0.000 A 
ENDROOT
BRANCH   1   8
ATOM      8  O   UNL     1       5.315   4.411  13.844  0.00  0.00    +0.000 OA
BRANCH   8   9
ATOM      9  C   UNL     1       6.201   3.609  13.052  0.00  0.00    +0.000 C 
ATOM     10  C   UNL     1       7.235   4.475  12.325  0.00  0.00    +0.000 C 
BRANCH   9  11
ATOM     11  C   UNL     1       5.376   2.842  12.009  0.00  0.00    +0.000 C 
ATOM     12  O   UNL     1       5.675   1.771  11.499  0.00  0.00    +0.000 OA
BRANCH  11  14
ATOM     13  C   UNL     1       3.526   3.064  10.575  0.00  0.00    +0.000 C 
ATOM     14  O   UNL     1       4.249   3.556  11.704  0.00  0.00    +0.000 OA
ENDBRANCH  11  14
ENDBRANCH   9  11
ENDBRANCH   8   9
ENDBRANCH   1   8
BRANCH   6  15
ATOM     15  C   UNL     1       4.369   5.753  18.534  0.00  0.00    +0.000 C 
BRANCH  15  16
ATOM     16  N   UNL     1       3.730   4.660  19.251  0.00  0.00    +0.000 N 
ATOM     17  O   UNL     1       4.147   3.349  18.930  0.00  0.00    +0.000 OA
ATOM     18  C   UNL     1       3.012   2.515  19.203  0.00  0.00    +0.000 C 
ATOM     19  C   UNL     1       2.120   3.270  20.186  0.00  0.00    +0.000 C 
ATOM     20  C   UNL     1       2.452   2.928  21.639  0.00  0.00    +0.000 C 
ATOM     21  C   UNL     1       0.641   3.047  19.898  0.00  0.00    +0.000 C 
ATOM     22  C   UNL     1       2.527   4.691  19.906  0.00  0.00    +0.000 C 
ATOM     23  O   UNL     1       1.913   5.685  20.263  0.00  0.00    +0.000 OA
ENDBRANCH  15  16
ENDBRANCH   6  15
TORSDOF 6
ENDMDL
MODEL 3
REMARK VINA RESULT:      -7.2      3.192      6.680
REMARK  Name = 
REMARK  10 active torsions:
REMARK  status: ('A' for Active; 'I' for Inactive)
REMARK    1  A    between atoms: C_1  and  O_2
REMARK    2  A    between atoms: O_2  and  C_3
REMARK    3  A    between atoms: C_3  and  C_5
REMARK    4  A    between atoms: C_5  and  C_6
REMARK    5  A    between atoms: C_5  and  O_7
REMARK    6  A    between atoms: O_7  and  C_8
REMARK    7  A    between atoms: C_13  and  C_14
REMARK    8  A    between atoms: C_14  and  N_15
REMARK    9  A    between atoms: C_18  and  C_19
REMARK   10  A    between atoms: C_18  and  C_20
REMARK                            x       y       z     vdW  Elec       q    Type
REMARK                         _______ _______ _______ _____ _____    ______ ____
ROOT
ATOM      1  C   UNL     1       2.500   5.822  20.110  0.00  0.00    +0.000 A 
ATOM      2  C   UNL     1       1.692   6.819  20.650  0.00  0.00    +0.000 A 
ATOM      3  C   UNL     1       1.510   8.017  19.961  0.00  0.00    +0.000 A 
ATOM      4  C   UNL     1       2.171   8.241  18.751  0.00  0.00    +0.000 A 
ATOM      5 CL   UNL     1       1.763   9.685  17.902  0.00  0.00    +0.000 Cl
ATOM      6  C   UNL     1       3.088   7.303  18.253  0.00  0.00    +0.000 A 
ATOM      7  C   UNL     1       3.226   6.080  18.945  0.00  0.00    +0.000 A 
ENDROOT
BRANCH   1   8
ATOM      8  O   UNL     1       2.520   4.643  20.801  0.00  0.00    +0.000 OA
BRANCH   8   9
ATOM      9  C   UNL     1       1.468   3.707  20.532  0.00  0.00    +0.000 C 
ATOM     10  C   UNL     1       1.321   2.693  21.671  0.00  0.00    +0.000 C 
BRANCH   9  11
ATOM     11  C   UNL     1       1.798   2.951  19.237  0.00  0.00    +0.000 C 
ATOM     12  O   UNL     1       1.106   2.911  18.229  0.00  0.00    +0.000 OA
BRANCH  11  14
ATOM     13  C   UNL     1       3.386   1.530  18.243  0.00  0.00    +0.000 C 
ATOM     14  O   UNL     1       2.989   2.293  19.383  0.00  0.00    +0.000 OA
ENDBRANCH  11  14
ENDBRANCH   9  11
ENDBRANCH   8   9
ENDBRANCH   1   8
BRANCH   6  15
ATOM     15  C   UNL     1       3.925   7.532  17.010  0.00  0.00    +0.000 C 
BRANCH  15  16
ATOM     16  N   UNL     1       4.804   6.423  16.669  0.00  0.00    +0.000 N 
ATOM     17  O   UNL     1       4.223   5.138  16.604  0.00  0.00    +0.000 OA
ATOM     18  C   UNL     1       5.285   4.227  16.923  0.00  0.00    +0.000 C 
ATOM     19  C   UNL     1       6.600   4.951  16.645  0.00  0.00    +0.000 C 
ATOM     20  C   UNL     1       7.101   4.701  15.221  0.00  0.00    +0.000 C 
ATOM     21  C   UNL     1       7.671   4.596  17.669  0.00  0.00    +0.000 C 
ATOM     22  C   UNL     1       6.170   6.386  16.774  0.00  0.00    +0.000 C 
ATOM     23  O   UNL     1       6.921   7.342  16.888  0.00  0.00    +0.000 OA
ENDBRANCH  15  16
ENDBRANCH   6  15
TORSDOF 6
ENDMDL
MODEL 4
REMARK VINA RESULT:      -7.2      3.174      6.657
REMARK  Name = 
REMARK  10 active torsions:
REMARK  status: ('A' for Active; 'I' for Inactive)
REMARK    1  A    between atoms: C_1  and  O_2
REMARK    2  A    between atoms: O_2  and  C_3
REMARK    3  A    between atoms: C_3  and  C_5
REMARK    4  A    between atoms: C_5  and  C_6
REMARK    5  A    between atoms: C_5  and  O_7
REMARK    6  A    between atoms: O_7  and  C_8
REMARK    7  A    between atoms: C_13  and  C_14
REMARK    8  A    between atoms: C_14  and  N_15
REMARK    9  A    between atoms: C_18  and  C_19
REMARK   10  A    between atoms: C_18  and  C_20
REMARK                            x       y       z     vdW  Elec       q    Type
REMARK                         _______ _______ _______ _____ _____    ______ ____
ROOT
ATOM      1  C   UNL     1       2.763   5.694  20.176  0.00  0.00    +0.000 A 
ATOM      2  C   UNL     1       1.920   6.658  20.722  0.00  0.00    +0.000 A 
ATOM      3  C   UNL     1       1.609   7.804  19.994  0.00  0.00    +0.000 A 
ATOM      4  C   UNL     1       2.175   8.014  18.734  0.00  0.00    +0.000 A 
ATOM      5 CL   UNL     1       1.611   9.382  17.850  0.00  0.00    +0.000 Cl
ATOM      6  C   UNL     1       3.124   7.118  18.219  0.00  0.00    +0.000 A 
ATOM      7  C   UNL     1       3.395   5.944  18.955  0.00  0.00    +0.000 A 
ENDROOT
BRANCH   1   8
ATOM      8  O   UNL     1       2.912   4.556  20.917  0.00  0.00    +0.000 OA
BRANCH   8   9
ATOM      9  C   UNL     1       2.354   3.348  20.383  0.00  0.00    +0.000 C 
ATOM     10  C   UNL     1       1.602   2.559  21.459  0.00  0.00    +0.000 C 
BRANCH   9  11
ATOM     11  C   UNL     1       3.493   2.476  19.837  0.00  0.00    +0.000 C 
ATOM     12  O   UNL     1       4.618   2.380  20.309  0.00  0.00    +0.000 OA
BRANCH  11  14
ATOM     13  C   UNL     1       2.135   2.564  17.920  0.00  0.00    +0.000 C 
ATOM     14  O   UNL     1       3.071   1.827  18.707  0.00  0.00    +0.000 OA
ENDBRANCH  11  14
ENDBRANCH   9  11
ENDBRANCH   8   9
ENDBRANCH   1   8
BRANCH   6  15
ATOM     15  C   UNL     1       3.864   7.343  16.915  0.00  0.00    +0.000 C 
BRANCH  15  16
ATOM     16  N   UNL     1       4.803   6.286  16.570  0.00  0.00    +0.000 N 
ATOM     17  O   UNL     1       4.281   4.981  16.433  0.00  0.00    +0.000 OA
ATOM     18  C   UNL     1       5.368   4.104  16.763  0.00  0.00    +0.000 C 
ATOM     19  C   UNL     1       6.661   4.892  16.569  0.00  0.00    +0.000 C 
ATOM     20  C   UNL     1       7.231   4.719  15.160  0.00  0.00    +0.000 C 
ATOM     21  C   UNL     1       7.703   4.542  17.624  0.00  0.00    +0.000 C 
ATOM     22  C   UNL     1       6.164   6.302  16.733  0.00  0.00    +0.000 C 
ATOM     23  O   UNL     1       6.868   7.283  16.915  0.00  0.00    +0.000 OA
ENDBRANCH  15  16
ENDBRANCH   6  15
TORSDOF 6
ENDMDL
MODEL 5
REMARK VINA RESULT:      -7.2      3.487      4.933
REMARK  Name = 
REMARK  10 active torsions:
REMARK  status: ('A' for Active; 'I' for Inactive)
REMARK    1  A    between atoms: C_1  and  O_2
REMARK    2  A    between atoms: O_2  and  C_3
REMARK    3  A    between atoms: C_3  and  C_5
REMARK    4  A    between atoms: C_5  and  C_6
REMARK    5  A    between atoms: C_5  and  O_7
REMARK    6  A    between atoms: O_7  and  C_8
REMARK    7  A    between atoms: C_13  and  C_14
REMARK    8  A    between atoms: C_14  and  N_15
REMARK    9  A    between atoms: C_18  and  C_19
REMARK   10  A    between atoms: C_18  and  C_20
REMARK                            x       y       z     vdW  Elec       q    Type
REMARK                         _______ _______ _______ _____ _____    ______ ____
ROOT
ATOM      1  C   UNL     1       4.051   5.037  17.129  0.00  0.00    +0.000 A 
ATOM      2  C   UNL     1       3.524   3.761  17.309  0.00  0.00    +0.000 A 
ATOM      3  C   UNL     1       2.546   3.542  18.277  0.00  0.00    +0.000 A 
ATOM      4  C   UNL     1       2.122   4.589  19.100  0.00  0.00    +0.000 A 
ATOM      5 CL   UNL     1       0.804   4.256  20.159  0.00  0.00    +0.000 Cl
ATOM      6  C   UNL     1       2.730   5.851  19.020  0.00  0.00    +0.000 A 
ATOM      7  C   UNL     1       3.690   6.062  18.006  0.00  0.00    +0.000 A 
ENDROOT
BRANCH   1   8
ATOM      8  O   UNL     1       4.916   5.173  16.078  0.00  0.00    +0.000 OA
BRANCH   8   9
ATOM      9  C   UNL     1       6.099   4.363  16.095  0.00  0.00    +0.000 C 
ATOM     10  C   UNL     1       7.077   4.829  17.178  0.00  0.00    +0.000 C 
BRANCH   9  11
ATOM     11  C   UNL     1       6.789   4.466  14.728  0.00  0.00    +0.000 C 
ATOM     12  O   UNL     1       7.623   5.300  14.402  0.00  0.00    +0.000 OA
BRANCH  11  14
ATOM     13  C   UNL     1       6.409   3.794  12.507  0.00  0.00    +0.000 C 
ATOM     14  O   UNL     1       6.308   3.489  13.898  0.00  0.00    +0.000 OA
ENDBRANCH  11  14
ENDBRANCH   9  11
ENDBRANCH   8   9
ENDBRANCH   1   8
BRANCH   6  15
ATOM     15  C   UNL     1       2.403   6.996  19.958  0.00  0.00    +0.000 C 
BRANCH  15  16
ATOM     16  N   UNL     1       1.754   8.130  19.314  0.00  0.00    +0.000 N 
ATOM     17  O   UNL     1       2.198   8.475  18.019  0.00  0.00    +0.000 OA
ATOM     18  C   UNL     1       1.950   9.883  17.898  0.00  0.00    +0.000 C 
ATOM     19  C   UNL     1       0.874  10.243  18.920  0.00  0.00    +0.000 C 
ATOM     20  C   UNL     1      -0.532  10.162  18.324  0.00  0.00    +0.000 C 
ATOM     21  C   UNL     1       1.121  11.609  19.548  0.00  0.00    +0.000 C 
ATOM     22  C   UNL     1       1.052   9.136  19.924  0.00  0.00    +0.000 C 
ATOM     23  O   UNL     1       0.590   9.127  21.054  0.00  0.00    +0.000 OA
ENDBRANCH  15  16
ENDBRANCH   6  15
TORSDOF 6
ENDMDL
MODEL 6
REMARK VINA RESULT:      -7.2      3.193      7.005
REMARK  Name = 
REMARK  10 active torsions:
REMARK  status: ('A' for Active; 'I' for Inactive)
REMARK    1  A    between atoms: C_1  and  O_2
REMARK    2  A    between atoms: O_2  and  C_3
REMARK    3  A    between atoms: C_3  and  C_5
REMARK    4  A    between atoms: C_5  and  C_6
REMARK    5  A    between atoms: C_5  and  O_7
REMARK    6  A    between atoms: O_7  and  C_8
REMARK    7  A    between atoms: C_13  and  C_14
REMARK    8  A    between atoms: C_14  and  N_15
REMARK    9  A    between atoms: C_18  and  C_19
REMARK   10  A    between atoms: C_18  and  C_20
REMARK                            x       y       z     vdW  Elec       q    Type
REMARK                         _______ _______ _______ _____ _____    ______ ____
ROOT
ATOM      1  C   UNL     1       2.100   6.064  20.206  0.00  0.00    +0.000 A 
ATOM      2  C   UNL     1       1.488   7.198  20.734  0.00  0.00    +0.000 A 
ATOM      3  C   UNL     1       1.491   8.390  20.012  0.00  0.00    +0.000 A 
ATOM      4  C   UNL     1       2.143   8.465  18.778  0.00  0.00    +0.000 A 
ATOM      5 CL   UNL     1       1.960   9.934  17.894  0.00  0.00    +0.000 Cl
ATOM      6  C   UNL     1       2.873   7.372  18.288  0.00  0.00    +0.000 A 
ATOM      7  C   UNL     1       2.824   6.163  19.016  0.00  0.00    +0.000 A 
ENDROOT
BRANCH   1   8
ATOM      8  O   UNL     1       1.941   4.919  20.935  0.00  0.00    +0.000 OA
BRANCH   8   9
ATOM      9  C   UNL     1       2.136   3.674  20.251  0.00  0.00    +0.000 C 
ATOM     10  C   UNL     1       0.800   3.063  19.817  0.00  0.00    +0.000 C 
BRANCH   9  11
ATOM     11  C   UNL     1       2.844   2.694  21.197  0.00  0.00    +0.000 C 
ATOM     12  O   UNL     1       2.484   2.397  22.328  0.00  0.00    +0.000 OA
BRANCH  11  14
ATOM     13  C   UNL     1       4.376   2.935  19.430  0.00  0.00    +0.000 C 
ATOM     14  O   UNL     1       3.973   2.211  20.593  0.00  0.00    +0.000 OA
ENDBRANCH  11  14
ENDBRANCH   9  11
ENDBRANCH   8   9
ENDBRANCH   1   8
BRANCH   6  15
ATOM     15  C   UNL     1       3.700   7.421  17.019  0.00  0.00    +0.000 C 
BRANCH  15  16
ATOM     16  N   UNL     1       4.990   6.754  17.119  0.00  0.00    +0.000 N 
ATOM     17  O   UNL     1       6.116   7.565  17.379  0.00  0.00    +0.000 OA
ATOM     18  C   UNL     1       7.225   6.872  16.789  0.00  0.00    +0.000 C 
ATOM     19  C   UNL     1       6.823   5.404  16.659  0.00  0.00    +0.000 C 
ATOM     20  C   UNL     1       7.238   4.586  17.883  0.00  0.00    +0.000 C 
ATOM     21  C   UNL     1       7.363   4.779  15.378  0.00  0.00    +0.000 C 
ATOM     22  C   UNL     1       5.324   5.520  16.625  0.00  0.00    +0.000 C 
ATOM     23  O   UNL     1       4.555   4.638  16.276  0.00  0.00    +0.000 OA
ENDBRANCH  15  16
ENDBRANCH   6  15
TORSDOF 6
ENDMDL
MODEL 7
REMARK VINA RESULT:      -7.2      1.085      1.814
REMARK  Name = 
REMARK  10 active torsions:
REMARK  status: ('A' for Active; 'I' for Inactive)
REMARK    1  A    between atoms: C_1  and  O_2
REMARK    2  A    between atoms: O_2  and  C_3
REMARK    3  A    between atoms: C_3  and  C_5
REMARK    4  A    between atoms: C_5  and  C_6
REMARK    5  A    between atoms: C_5  and  O_7
REMARK    6  A    between atoms: O_7  and  C_8
REMARK    7  A    between atoms: C_13  and  C_14
REMARK    8  A    between atoms: C_14  and  N_15
REMARK    9  A    between atoms: C_18  and  C_19
REMARK   10  A    between atoms: C_18  and  C_20
REMARK                            x       y       z     vdW  Elec       q    Type
REMARK                         _______ _______ _______ _____ _____    ______ ____
ROOT
ATOM      1  C   UNL     1       5.698   4.506  15.676  0.00  0.00    +0.000 A 
ATOM      2  C   UNL     1       7.069   4.452  15.911  0.00  0.00    +0.000 A 
ATOM      3  C   UNL     1       7.567   4.719  17.185  0.00  0.00    +0.000 A 
ATOM      4  C   UNL     1       6.700   5.083  18.219  0.00  0.00    +0.000 A 
ATOM      5 CL   UNL     1       7.392   5.243  19.790  0.00  0.00    +0.000 Cl
ATOM      6  C   UNL     1       5.331   5.266  17.972  0.00  0.00    +0.000 A 
ATOM      7  C   UNL     1       4.842   4.952  16.685  0.00  0.00    +0.000 A 
ENDROOT
BRANCH   1   8
ATOM      8  O   UNL     1       5.301   4.114  14.428  0.00  0.00    +0.000 OA
BRANCH   8   9
ATOM      9  C   UNL     1       6.331   3.792  13.483  0.00  0.00    +0.000 C 
ATOM     10  C   UNL     1       7.054   5.052  12.998  0.00  0.00    +0.000 C 
BRANCH   9  11
ATOM     11  C   UNL     1       5.693   3.092  12.275  0.00  0.00    +0.000 C 
ATOM     12  O   UNL     1       6.183   2.174  11.631  0.00  0.00    +0.000 OA
BRANCH  11  14
ATOM     13  C   UNL     1       3.780   3.075  10.907  0.00  0.00    +0.000 C 
ATOM     14  O   UNL     1       4.483   3.671  11.998  0.00  0.00    +0.000 OA
ENDBRANCH  11  14
ENDBRANCH   9  11
ENDBRANCH   8   9
ENDBRANCH   1   8
BRANCH   6  15
ATOM     15  C   UNL     1       4.355   5.773  19.015  0.00  0.00    +0.000 C 
BRANCH  15  16
ATOM     16  N   UNL     1       3.229   4.884  19.262  0.00  0.00    +0.000 N 
ATOM     17  O   UNL     1       1.945   5.471  19.315  0.00  0.00    +0.000 OA
ATOM     18  C   UNL     1       1.177   4.620  20.178  0.00  0.00    +0.000 C 
ATOM     19  C   UNL     1       1.861   3.255  20.193  0.00  0.00    +0.000 C 
ATOM     20  C   UNL     1       1.294   2.320  19.123  0.00  0.00    +0.000 C 
ATOM     21  C   UNL     1       1.801   2.605  21.570  0.00  0.00    +0.000 C 
ATOM     22  C   UNL     1       3.268   3.636  19.825  0.00  0.00    +0.000 C 
ATOM     23  O   UNL     1       4.250   2.921  19.953  0.00  0.00    +0.000 OA
ENDBRANCH  15  16
ENDBRANCH   6  15
TORSDOF 6
ENDMDL
MODEL 8
REMARK VINA RESULT:      -7.0      3.734      8.577
REMARK  Name = 
REMARK  10 active torsions:
REMARK  status: ('A' for Active; 'I' for Inactive)
REMARK    1  A    between atoms: C_1  and  O_2
REMARK    2  A    between atoms: O_2  and  C_3
REMARK    3  A    between atoms: C_3  and  C_5
REMARK    4  A    between atoms: C_5  and  C_6
REMARK    5  A    between atoms: C_5  and  O_7
REMARK    6  A    between atoms: O_7  and  C_8
REMARK    7  A    between atoms: C_13  and  C_14
REMARK    8  A    between atoms: C_14  and  N_15
REMARK    9  A    between atoms: C_18  and  C_19
REMARK   10  A    between atoms: C_18  and  C_20
REMARK                            x       y       z     vdW  Elec       q    Type
REMARK                         _______ _______ _______ _____ _____    ______ ____
ROOT
ATOM      1  C   UNL     1       1.969   6.692  20.124  0.00  0.00    +0.000 A 
ATOM      2  C   UNL     1       1.130   5.835  20.831  0.00  0.00    +0.000 A 
ATOM      3  C   UNL     1       1.091   4.480  20.512  0.00  0.00    +0.000 A 
ATOM      4  C   UNL     1       1.858   3.982  19.456  0.00  0.00    +0.000 A 
ATOM      5 CL   UNL     1       1.859   2.272  19.238  0.00  0.00    +0.000 Cl
ATOM      6  C   UNL     1       2.612   4.849  18.651  0.00  0.00    +0.000 A 
ATOM      7  C   UNL     1       2.669   6.211  19.016  0.00  0.00    +0.000 A 
ENDROOT
BRANCH   1   8
ATOM      8  O   UNL     1       2.023   7.977  20.589  0.00  0.00    +0.000 OA
BRANCH   8   9
ATOM      9  C   UNL     1       0.777   8.612  20.906  0.00  0.00    +0.000 C 
ATOM     10  C   UNL     1       0.473   9.756  19.934  0.00  0.00    +0.000 C 
BRANCH   9  11
ATOM     11  C   UNL     1       0.861   9.181  22.329  0.00  0.00    +0.000 C 
ATOM     12  O   UNL     1       1.878   9.554  22.899  0.00  0.00    +0.000 OA
BRANCH  11  14
ATOM     13  C   UNL     1      -0.934  10.491  23.099  0.00  0.00    +0.000 C 
ATOM     14  O   UNL     1      -0.387   9.188  22.893  0.00  0.00    +0.000 OA
ENDBRANCH  11  14
ENDBRANCH   9  11
ENDBRANCH   8   9
ENDBRANCH   1   8
BRANCH   6  15
ATOM     15  C   UNL     1       3.373   4.395  17.420  0.00  0.00    +0.000 C 
BRANCH  15  16
ATOM     16  N   UNL     1       4.696   4.986  17.283  0.00  0.00    +0.000 N 
ATOM     17  O   UNL     1       5.085   5.404  15.992  0.00  0.00    +0.000 OA
ATOM     18  C   UNL     1       6.515   5.299  15.976  0.00  0.00    +0.000 C 
ATOM     19  C   UNL     1       6.988   5.333  17.428  0.00  0.00    +0.000 C 
ATOM     20  C   UNL     1       7.312   6.754  17.891  0.00  0.00    +0.000 C 
ATOM     21  C   UNL     1       8.172   4.402  17.661  0.00  0.00    +0.000 C 
ATOM     22  C   UNL     1       5.757   4.847  18.141  0.00  0.00    +0.000 C 
ATOM     23  O   UNL     1       5.716   4.461  19.299  0.00  0.00    +0.000 OA
ENDBRANCH  15  16
ENDBRANCH   6  15
TORSDOF 6
ENDMDL
MODEL 9
REMARK VINA RESULT:      -7.0      0.817      1.518
REMARK  Name = 
REMARK  10 active torsions:
REMARK  status: ('A' for Active; 'I' for Inactive)
REMARK    1  A    between atoms: C_1  and  O_2
REMARK    2  A    between atoms: O_2  and  C_3
REMARK    3  A    between atoms: C_3  and  C_5
REMARK    4  A    between atoms: C_5  and  C_6
REMARK    5  A    between atoms: C_5  and  O_7
REMARK    6  A    between atoms: O_7  and  C_8
REMARK    7  A    between atoms: C_13  and  C_14
REMARK    8  A    between atoms: C_14  and  N_15
REMARK    9  A    between atoms: C_18  and  C_19
REMARK   10  A    between atoms: C_18  and  C_20
REMARK                            x       y       z     vdW  Elec       q    Type
REMARK                         _______ _______ _______ _____ _____    ______ ____
ROOT
ATOM      1  C   UNL     1       5.620   4.629  15.171  0.00  0.00    +0.000 A 
ATOM      2  C   UNL     1       6.998   4.558  15.359  0.00  0.00    +0.000 A 
ATOM      3  C   UNL     1       7.541   4.777  16.623  0.00  0.00    +0.000 A 
ATOM      4  C   UNL     1       6.712   5.112  17.698  0.00  0.00    +0.000 A 
ATOM      5 CL   UNL     1       7.457   5.213  19.249  0.00  0.00    +0.000 Cl
ATOM      6  C   UNL     1       5.337   5.313  17.503  0.00  0.00    +0.000 A 
ATOM      7  C   UNL     1       4.803   5.047  16.223  0.00  0.00    +0.000 A 
ENDROOT
BRANCH   1   8
ATOM      8  O   UNL     1       5.179   4.284  13.924  0.00  0.00    +0.000 OA
BRANCH   8   9
ATOM      9  C   UNL     1       6.114   3.629  13.056  0.00  0.00    +0.000 C 
ATOM     10  C   UNL     1       7.081   4.634  12.422  0.00  0.00    +0.000 C 
BRANCH   9  11
ATOM     11  C   UNL     1       5.337   2.918  11.940  0.00  0.00    +0.000 C 
ATOM     12  O   UNL     1       4.437   3.401  11.266  0.00  0.00    +0.000 OA
BRANCH  11  14
ATOM     13  C   UNL     1       6.849   1.460  10.883  0.00  0.00    +0.000 C 
ATOM     14  O   UNL     1       5.785   1.629  11.820  0.00  0.00    +0.000 OA
ENDBRANCH  11  14
ENDBRANCH   9  11
ENDBRANCH   8   9
ENDBRANCH   1   8
BRANCH   6  15
ATOM     15  C   UNL     1       4.400   5.791  18.595  0.00  0.00    +0.000 C 
BRANCH  15  16
ATOM     16  N   UNL     1       3.398   4.813  18.993  0.00  0.00    +0.000 N 
ATOM     17  O   UNL     1       2.055   5.247  19.033  0.00  0.00    +0.000 OA
ATOM     18  C   UNL     1       1.422   4.424  20.023  0.00  0.00    +0.000 C 
ATOM     19  C   UNL     1       2.265   3.159  20.167  0.00  0.00    +0.000 C 
ATOM     20  C   UNL     1       1.785   2.042  19.238  0.00  0.00    +0.000 C 
ATOM     21  C   UNL     1       2.326   2.678  21.611  0.00  0.00    +0.000 C 
ATOM     22  C   UNL     1       3.605   3.654  19.695  0.00  0.00    +0.000 C 
ATOM     23  O   UNL     1       4.670   3.080  19.862  0.00  0.00    +0.000 OA
ENDBRANCH  15  16
ENDBRANCH   6  15
TORSDOF 6
ENDMDL
