MODEL 1
REMARK VINA RESULT:      -5.2      0.000      0.000
REMARK  Name = 
REMARK  5 active torsions:
REMARK  status: ('A' for Active; 'I' for Inactive)
REMARK    1  A    between atoms: O_1  and  C_2
REMARK    2  A    between atoms: C_2  and  C_3
REMARK    3  A    between atoms: C_6  and  O_7
REMARK    4  A    between atoms: C_8  and  O_9
REMARK    5  A    between atoms: C_10  and  O_11
REMARK                            x       y       z     vdW  Elec       q    Type
REMARK                         _______ _______ _______ _____ _____    ______ ____
ROOT
ATOM      1  C   UNK A   1       5.186   4.213  18.337  0.00  0.00    +0.000 C 
ATOM      2  N   UNK A   1       4.606   4.298  16.980  0.00  0.00    +0.000 NA
ATOM      3  C   UNK A   0       5.623   4.297  15.928  0.00  0.00    +0.000 C 
ATOM      4  C   UNK A   1       6.708   5.370  16.106  0.00  0.00    +0.000 C 
ATOM      5  C   UNK A   1       7.333   5.291  17.504  0.00  0.00    +0.000 C 
ATOM      6  C   UNK A   1       6.249   5.310  18.590  0.00  0.00    +0.000 C 
ATOM      7  H   UNK A   1       4.029   5.146  16.928  0.00  0.00    +0.000 HD
ENDROOT
BRANCH   4   8
ATOM      8  O   UNK A   1       7.716   5.209  15.108  0.00  0.00    +0.000 OA
ATOM      9  H   UNK A   1       7.290   4.774  14.339  0.00  0.00    +0.000 HD
ENDBRANCH   4   8
BRANCH   5  10
ATOM     10  O   UNK A   1       8.152   4.107  17.634  0.00  0.00    +0.000 OA
ATOM     11  H   UNK A   1       8.920   4.316  18.194  0.00  0.00    +0.000 HD
ENDBRANCH   5  10
BRANCH   6  12
ATOM     12  O   UNK A   1       6.858   5.113  19.871  0.00  0.00    +0.000 OA
ATOM     13  H   UNK A   1       7.323   5.944  20.090  0.00  0.00    +0.000 HD
ENDBRANCH   6  12
BRANCH   1  14
ATOM     14  C   UNK A   1       4.063   4.270  19.398  0.00  0.00    +0.000 C 
BRANCH  14  15
ATOM     15  O   UNK A   1       3.929   5.583  19.943  0.00  0.00    +0.000 OA
ATOM     16  H   UNK A   1       2.979   5.792  19.938  0.00  0.00    +0.000 HD
ENDBRANCH  14  15
ENDBRANCH   1  14
TORSDOF 5
ENDMDL
MODEL 2
REMARK VINA RESULT:      -5.0      1.978      2.704
REMARK  Name = 
REMARK  5 active torsions:
REMARK  status: ('A' for Active; 'I' for Inactive)
REMARK    1  A    between atoms: O_1  and  C_2
REMARK    2  A    between atoms: C_2  and  C_3
REMARK    3  A    between atoms: C_6  and  O_7
REMARK    4  A    between atoms: C_8  and  O_9
REMARK    5  A    between atoms: C_10  and  O_11
REMARK                            x       y       z     vdW  Elec       q    Type
REMARK                         _______ _______ _______ _____ _____    ______ ____
ROOT
ATOM      1  C   UNK A   1       5.152   4.236  18.443  0.00  0.00    +0.000 C 
ATOM      2  N   UNK A   1       6.619   4.109  18.562  0.00  0.00    +0.000 NA
ATOM      3  C   UNK A   0       7.339   4.856  17.529  0.00  0.00    +0.000 C 
ATOM      4  C   UNK A   1       6.895   4.524  16.095  0.00  0.00    +0.000 C 
ATOM      5  C   UNK A   1       5.376   4.662  15.945  0.00  0.00    +0.000 C 
ATOM      6  C   UNK A   1       4.644   3.858  17.029  0.00  0.00    +0.000 C 
ATOM      7  H   UNK A   1       6.862   3.112  18.526  0.00  0.00    +0.000 HD
ENDROOT
BRANCH   4   8
ATOM      8  O   UNK A   1       7.560   5.386  15.172  0.00  0.00    +0.000 OA
ATOM      9  H   UNK A   1       7.113   5.278  14.306  0.00  0.00    +0.000 HD
ENDBRANCH   4   8
BRANCH   5  10
ATOM     10  O   UNK A   1       4.979   6.051  15.997  0.00  0.00    +0.000 OA
ATOM     11  H   UNK A   1       4.010   6.098  16.077  0.00  0.00    +0.000 HD
ENDBRANCH   5  10
BRANCH   6  12
ATOM     12  O   UNK A   1       3.237   4.107  16.934  0.00  0.00    +0.000 OA
ATOM     13  H   UNK A   1       2.796   3.439  17.496  0.00  0.00    +0.000 HD
ENDBRANCH   6  12
BRANCH   1  14
ATOM     14  C   UNK A   1       4.456   3.386  19.529  0.00  0.00    +0.000 C 
BRANCH  14  15
ATOM     15  O   UNK A   1       5.174   2.178  19.784  0.00  0.00    +0.000 OA
ATOM     16  H   UNK A   1       4.978   1.924  20.703  0.00  0.00    +0.000 HD
ENDBRANCH  14  15
ENDBRANCH   1  14
TORSDOF 5
ENDMDL
MODEL 3
REMARK VINA RESULT:      -5.0      2.700      3.778
REMARK  Name = 
REMARK  5 active torsions:
REMARK  status: ('A' for Active; 'I' for Inactive)
REMARK    1  A    between atoms: O_1  and  C_2
REMARK    2  A    between atoms: C_2  and  C_3
REMARK    3  A    between atoms: C_6  and  O_7
REMARK    4  A    between atoms: C_8  and  O_9
REMARK    5  A    between atoms: C_10  and  O_11
REMARK                            x       y       z     vdW  Elec       q    Type
REMARK                         _______ _______ _______ _____ _____    ______ ____
ROOT
ATOM      1  C   UNK A   1       2.325   2.543  18.815  0.00  0.00    +0.000 C 
ATOM      2  N   UNK A   1       2.671   3.208  17.541  0.00  0.00    +0.000 NA
ATOM      3  C   UNK A   0       4.116   3.316  17.333  0.00  0.00    +0.000 C 
ATOM      4  C   UNK A   1       4.867   3.982  18.496  0.00  0.00    +0.000 C 
ATOM      5  C   UNK A   1       4.532   3.298  19.828  0.00  0.00    +0.000 C 
ATOM      6  C   UNK A   1       3.014   3.211  20.031  0.00  0.00    +0.000 C 
ATOM      7  H   UNK A   1       2.231   4.135  17.531  0.00  0.00    +0.000 HD
ENDROOT
BRANCH   4   8
ATOM      8  O   UNK A   1       6.274   3.929  18.257  0.00  0.00    +0.000 OA
ATOM      9  H   UNK A   1       6.652   3.302  18.909  0.00  0.00    +0.000 HD
ENDBRANCH   4   8
BRANCH   5  10
ATOM     10  O   UNK A   1       5.124   1.981  19.891  0.00  0.00    +0.000 OA
ATOM     11  H   UNK A   1       4.648   1.456  20.559  0.00  0.00    +0.000 HD
ENDBRANCH   5  10
BRANCH   6  12
ATOM     12  O   UNK A   1       2.737   2.462  21.220  0.00  0.00    +0.000 OA
ATOM     13  H   UNK A   1       1.823   2.686  21.485  0.00  0.00    +0.000 HD
ENDBRANCH   6  12
BRANCH   1  14
ATOM     14  C   UNK A   1       0.791   2.507  18.995  0.00  0.00    +0.000 C 
BRANCH  14  15
ATOM     15  O   UNK A   1       0.381   3.279  20.125  0.00  0.00    +0.000 OA
ATOM     16  H   UNK A   1      -0.442   3.731  19.871  0.00  0.00    +0.000 HD
ENDBRANCH  14  15
ENDBRANCH   1  14
TORSDOF 5
ENDMDL
MODEL 4
REMARK VINA RESULT:      -5.0      1.835      3.877
REMARK  Name = 
REMARK  5 active torsions:
REMARK  status: ('A' for Active; 'I' for Inactive)
REMARK    1  A    between atoms: O_1  and  C_2
REMARK    2  A    between atoms: C_2  and  C_3
REMARK    3  A    between atoms: C_6  and  O_7
REMARK    4  A    between atoms: C_8  and  O_9
REMARK    5  A    between atoms: C_10  and  O_11
REMARK                            x       y       z     vdW  Elec       q    Type
REMARK                         _______ _______ _______ _____ _____    ______ ____
ROOT
ATOM      1  C   UNK A   1       6.012   4.154  16.179  0.00  0.00    +0.000 C 
ATOM      2  N   UNK A   1       7.328   4.799  16.376  0.00  0.00    +0.000 NA
ATOM      3  C   UNK A   0       7.761   4.789  17.774  0.00  0.00    +0.000 C 
ATOM      4  C   UNK A   1       6.732   5.379  18.751  0.00  0.00    +0.000 C 
ATOM      5  C   UNK A   1       5.362   4.714  18.573  0.00  0.00    +0.000 C 
ATOM      6  C   UNK A   1       4.923   4.751  17.103  0.00  0.00    +0.000 C 
ATOM      7  H   UNK A   1       7.273   5.760  16.019  0.00  0.00    +0.000 HD
ENDROOT
BRANCH   4   8
ATOM      8  O   UNK A   1       7.189   5.212  20.093  0.00  0.00    +0.000 OA
ATOM      9  H   UNK A   1       7.286   4.248  20.245  0.00  0.00    +0.000 HD
ENDBRANCH   4   8
BRANCH   5  10
ATOM     10  O   UNK A   1       5.387   3.351  19.055  0.00  0.00    +0.000 OA
ATOM     11  H   UNK A   1       6.302   3.022  19.016  0.00  0.00    +0.000 HD
ENDBRANCH   5  10
BRANCH   6  12
ATOM     12  O   UNK A   1       3.702   4.017  16.955  0.00  0.00    +0.000 OA
ATOM     13  H   UNK A   1       3.253   4.378  16.164  0.00  0.00    +0.000 HD
ENDBRANCH   6  12
BRANCH   1  14
ATOM     14  C   UNK A   1       5.594   4.244  14.694  0.00  0.00    +0.000 C 
BRANCH  14  15
ATOM     15  O   UNK A   1       6.372   3.366  13.880  0.00  0.00    +0.000 OA
ATOM     16  H   UNK A   1       7.180   3.851  13.639  0.00  0.00    +0.000 HD
ENDBRANCH  14  15
ENDBRANCH   1  14
TORSDOF 5
ENDMDL
MODEL 5
REMARK VINA RESULT:      -4.9      2.747      4.995
REMARK  Name = 
REMARK  5 active torsions:
REMARK  status: ('A' for Active; 'I' for Inactive)
REMARK    1  A    between atoms: O_1  and  C_2
REMARK    2  A    between atoms: C_2  and  C_3
REMARK    3  A    between atoms: C_6  and  O_7
REMARK    4  A    between atoms: C_8  and  O_9
REMARK    5  A    between atoms: C_10  and  O_11
REMARK                            x       y       z     vdW  Elec       q    Type
REMARK                         _______ _______ _______ _____ _____    ______ ____
ROOT
ATOM      1  C   UNK A   1       3.987   3.938  18.368  0.00  0.00    +0.000 C 
ATOM      2  N   UNK A   1       2.836   4.359  17.541  0.00  0.00    +0.000 NA
ATOM      3  C   UNK A   0       1.549   4.124  18.199  0.00  0.00    +0.000 C 
ATOM      4  C   UNK A   1       1.350   2.681  18.685  0.00  0.00    +0.000 C 
ATOM      5  C   UNK A   1       2.528   2.227  19.556  0.00  0.00    +0.000 C 
ATOM      6  C   UNK A   1       3.863   2.468  18.839  0.00  0.00    +0.000 C 
ATOM      7  H   UNK A   1       2.882   3.861  16.645  0.00  0.00    +0.000 HD
ENDROOT
BRANCH   4   8
ATOM      8  O   UNK A   1       0.129   2.581  19.419  0.00  0.00    +0.000 OA
ATOM      9  H   UNK A   1       0.167   1.742  19.925  0.00  0.00    +0.000 HD
ENDBRANCH   4   8
BRANCH   5  10
ATOM     10  O   UNK A   1       2.514   2.908  20.832  0.00  0.00    +0.000 OA
ATOM     11  H   UNK A   1       1.886   3.650  20.784  0.00  0.00    +0.000 HD
ENDBRANCH   5  10
BRANCH   6  12
ATOM     12  O   UNK A   1       4.941   2.149  19.726  0.00  0.00    +0.000 OA
ATOM     13  H   UNK A   1       5.720   1.965  19.164  0.00  0.00    +0.000 HD
ENDBRANCH   6  12
BRANCH   1  14
ATOM     14  C   UNK A   1       5.306   4.166  17.596  0.00  0.00    +0.000 C 
BRANCH  14  15
ATOM     15  O   UNK A   1       6.439   4.053  18.457  0.00  0.00    +0.000 OA
ATOM     16  H   UNK A   1       6.152   4.349  19.338  0.00  0.00    +0.000 HD
ENDBRANCH  14  15
ENDBRANCH   1  14
TORSDOF 5
ENDMDL
MODEL 6
REMARK VINA RESULT:      -4.9      1.913      3.313
REMARK  Name = 
REMARK  5 active torsions:
REMARK  status: ('A' for Active; 'I' for Inactive)
REMARK    1  A    between atoms: O_1  and  C_2
REMARK    2  A    between atoms: C_2  and  C_3
REMARK    3  A    between atoms: C_6  and  O_7
REMARK    4  A    between atoms: C_8  and  O_9
REMARK    5  A    between atoms: C_10  and  O_11
REMARK                            x       y       z     vdW  Elec       q    Type
REMARK                         _______ _______ _______ _____ _____    ______ ____
ROOT
ATOM      1  C   UNK A   1       6.871   4.963  18.419  0.00  0.00    +0.000 C 
ATOM      2  N   UNK A   1       5.776   4.633  19.357  0.00  0.00    +0.000 NA
ATOM      3  C   UNK A   0       4.741   3.796  18.748  0.00  0.00    +0.000 C 
ATOM      4  C   UNK A   1       4.164   4.365  17.443  0.00  0.00    +0.000 C 
ATOM      5  C   UNK A   1       5.283   4.702  16.450  0.00  0.00    +0.000 C 
ATOM      6  C   UNK A   1       6.347   5.593  17.105  0.00  0.00    +0.000 C 
ATOM      7  H   UNK A   1       5.375   5.511  19.706  0.00  0.00    +0.000 HD
ENDROOT
BRANCH   4   8
ATOM      8  O   UNK A   1       3.259   3.425  16.864  0.00  0.00    +0.000 OA
ATOM      9  H   UNK A   1       2.992   3.785  15.991  0.00  0.00    +0.000 HD
ENDBRANCH   4   8
BRANCH   5  10
ATOM     10  O   UNK A   1       5.889   3.496  15.931  0.00  0.00    +0.000 OA
ATOM     11  H   UNK A   1       5.785   2.786  16.588  0.00  0.00    +0.000 HD
ENDBRANCH   5  10
BRANCH   6  12
ATOM     12  O   UNK A   1       7.431   5.786  16.190  0.00  0.00    +0.000 OA
ATOM     13  H   UNK A   1       7.188   6.545  15.624  0.00  0.00    +0.000 HD
ENDBRANCH   6  12
BRANCH   1  14
ATOM     14  C   UNK A   1       7.899   5.887  19.108  0.00  0.00    +0.000 C 
BRANCH  14  15
ATOM     15  O   UNK A   1       8.104   5.513  20.471  0.00  0.00    +0.000 OA
ATOM     16  H   UNK A   1       7.495   6.054  21.004  0.00  0.00    +0.000 HD
ENDBRANCH  14  15
ENDBRANCH   1  14
TORSDOF 5
ENDMDL
MODEL 7
REMARK VINA RESULT:      -4.8      1.633      2.218
REMARK  Name = 
REMARK  5 active torsions:
REMARK  status: ('A' for Active; 'I' for Inactive)
REMARK    1  A    between atoms: O_1  and  C_2
REMARK    2  A    between atoms: C_2  and  C_3
REMARK    3  A    between atoms: C_6  and  O_7
REMARK    4  A    between atoms: C_8  and  O_9
REMARK    5  A    between atoms: C_10  and  O_11
REMARK                            x       y       z     vdW  Elec       q    Type
REMARK                         _______ _______ _______ _____ _____    ______ ____
ROOT
ATOM      1  C   UNK A   1       5.349   5.110  18.474  0.00  0.00    +0.000 C 
ATOM      2  N   UNK A   1       6.407   4.101  18.257  0.00  0.00    +0.000 NA
ATOM      3  C   UNK A   0       7.379   4.509  17.241  0.00  0.00    +0.000 C 
ATOM      4  C   UNK A   1       6.749   4.911  15.898  0.00  0.00    +0.000 C 
ATOM      5  C   UNK A   1       5.656   5.968  16.100  0.00  0.00    +0.000 C 
ATOM      6  C   UNK A   1       4.641   5.511  17.157  0.00  0.00    +0.000 C 
ATOM      7  H   UNK A   1       5.959   3.215  17.997  0.00  0.00    +0.000 HD
ENDROOT
BRANCH   4   8
ATOM      8  O   UNK A   1       7.758   5.408  15.020  0.00  0.00    +0.000 OA
ATOM      9  H   UNK A   1       8.331   4.649  14.783  0.00  0.00    +0.000 HD
ENDBRANCH   4   8
BRANCH   5  10
ATOM     10  O   UNK A   1       6.234   7.238  16.476  0.00  0.00    +0.000 OA
ATOM     11  H   UNK A   1       5.558   7.766  16.936  0.00  0.00    +0.000 HD
ENDBRANCH   5  10
BRANCH   6  12
ATOM     12  O   UNK A   1       3.708   6.569  17.406  0.00  0.00    +0.000 OA
ATOM     13  H   UNK A   1       3.302   6.383  18.276  0.00  0.00    +0.000 HD
ENDBRANCH   6  12
BRANCH   1  14
ATOM     14  C   UNK A   1       4.332   4.596  19.518  0.00  0.00    +0.000 C 
BRANCH  14  15
ATOM     15  O   UNK A   1       3.585   5.671  20.090  0.00  0.00    +0.000 OA
ATOM     16  H   UNK A   1       3.829   6.474  19.598  0.00  0.00    +0.000 HD
ENDBRANCH  14  15
ENDBRANCH   1  14
TORSDOF 5
ENDMDL
MODEL 8
REMARK VINA RESULT:      -4.8      3.056      4.890
REMARK  Name = 
REMARK  5 active torsions:
REMARK  status: ('A' for Active; 'I' for Inactive)
REMARK    1  A    between atoms: O_1  and  C_2
REMARK    2  A    between atoms: C_2  and  C_3
REMARK    3  A    between atoms: C_6  and  O_7
REMARK    4  A    between atoms: C_8  and  O_9
REMARK    5  A    between atoms: C_10  and  O_11
REMARK                            x       y       z     vdW  Elec       q    Type
REMARK                         _______ _______ _______ _____ _____    ______ ____
ROOT
ATOM      1  C   UNK A   1       3.964   4.090  19.202  0.00  0.00    +0.000 C 
ATOM      2  N   UNK A   1       2.757   4.619  19.871  0.00  0.00    +0.000 NA
ATOM      3  C   UNK A   0       1.635   3.679  19.842  0.00  0.00    +0.000 C 
ATOM      4  C   UNK A   1       1.280   3.172  18.436  0.00  0.00    +0.000 C 
ATOM      5  C   UNK A   1       2.517   2.606  17.728  0.00  0.00    +0.000 C 
ATOM      6  C   UNK A   1       3.673   3.615  17.757  0.00  0.00    +0.000 C 
ATOM      7  H   UNK A   1       2.500   5.505  19.421  0.00  0.00    +0.000 HD
ENDROOT
BRANCH   4   8
ATOM      8  O   UNK A   1       0.264   2.173  18.524  0.00  0.00    +0.000 OA
ATOM      9  H   UNK A   1      -0.572   2.586  18.219  0.00  0.00    +0.000 HD
ENDBRANCH   4   8
BRANCH   5  10
ATOM     10  O   UNK A   1       2.926   1.357  18.330  0.00  0.00    +0.000 OA
ATOM     11  H   UNK A   1       2.845   1.434  19.297  0.00  0.00    +0.000 HD
ENDBRANCH   5  10
BRANCH   6  12
ATOM     12  O   UNK A   1       4.844   3.010  17.197  0.00  0.00    +0.000 OA
ATOM     13  H   UNK A   1       5.464   2.862  17.939  0.00  0.00    +0.000 HD
ENDBRANCH   6  12
BRANCH   1  14
ATOM     14  C   UNK A   1       5.089   5.149  19.224  0.00  0.00    +0.000 C 
BRANCH  14  15
ATOM     15  O   UNK A   1       6.380   4.536  19.225  0.00  0.00    +0.000 OA
ATOM     16  H   UNK A   1       6.990   5.171  19.640  0.00  0.00    +0.000 HD
ENDBRANCH  14  15
ENDBRANCH   1  14
TORSDOF 5
ENDMDL
MODEL 9
REMARK VINA RESULT:      -4.8      2.283      4.193
REMARK  Name = 
REMARK  5 active torsions:
REMARK  status: ('A' for Active; 'I' for Inactive)
REMARK    1  A    between atoms: O_1  and  C_2
REMARK    2  A    between atoms: C_2  and  C_3
REMARK    3  A    between atoms: C_6  and  O_7
REMARK    4  A    between atoms: C_8  and  O_9
REMARK    5  A    between atoms: C_10  and  O_11
REMARK                            x       y       z     vdW  Elec       q    Type
REMARK                         _______ _______ _______ _____ _____    ______ ____
ROOT
ATOM      1  C   UNK A   1       4.805   4.887  19.123  0.00  0.00    +0.000 C 
ATOM      2  N   UNK A   1       4.132   5.806  18.180  0.00  0.00    +0.000 NA
ATOM      3  C   UNK A   0       2.710   5.505  18.013  0.00  0.00    +0.000 C 
ATOM      4  C   UNK A   1       2.420   4.047  17.625  0.00  0.00    +0.000 C 
ATOM      5  C   UNK A   1       3.099   3.076  18.598  0.00  0.00    +0.000 C 
ATOM      6  C   UNK A   1       4.591   3.401  18.745  0.00  0.00    +0.000 C 
ATOM      7  H   UNK A   1       4.623   5.760  17.279  0.00  0.00    +0.000 HD
ENDROOT
BRANCH   4   8
ATOM      8  O   UNK A   1       1.011   3.821  17.607  0.00  0.00    +0.000 OA
ATOM      9  H   UNK A   1       0.676   4.034  18.503  0.00  0.00    +0.000 HD
ENDBRANCH   4   8
BRANCH   5  10
ATOM     10  O   UNK A   1       2.449   3.107  19.889  0.00  0.00    +0.000 OA
ATOM     11  H   UNK A   1       2.931   2.518  20.497  0.00  0.00    +0.000 HD
ENDBRANCH   5  10
BRANCH   6  12
ATOM     12  O   UNK A   1       5.164   2.555  19.749  0.00  0.00    +0.000 OA
ATOM     13  H   UNK A   1       6.133   2.584  19.620  0.00  0.00    +0.000 HD
ENDBRANCH   6  12
BRANCH   1  14
ATOM     14  C   UNK A   1       6.309   5.228  19.214  0.00  0.00    +0.000 C 
BRANCH  14  15
ATOM     15  O   UNK A   1       7.097   4.314  18.450  0.00  0.00    +0.000 OA
ATOM     16  H   UNK A   1       7.968   4.267  18.881  0.00  0.00    +0.000 HD
ENDBRANCH  14  15
ENDBRANCH   1  14
TORSDOF 5
ENDMDL
