MODEL 1
REMARK VINA RESULT:      -8.4      0.000      0.000
REMARK  Name = 
REMARK  12 active torsions:
REMARK  status: ('A' for Active; 'I' for Inactive)
REMARK    1  A    between atoms: C_4  and  O_5
REMARK    2  A    between atoms: C_11  and  C_12
REMARK    3  A    between atoms: C_12  and  C_13
REMARK    4  A    between atoms: C_13  and  C_14
REMARK    5  A    between atoms: C_18  and  C_19
REMARK    6  A    between atoms: N_21  and  CA_22
REMARK    7  A    between atoms: CA_22  and  CB_23
REMARK    8  A    between atoms: CA_22  and  C_28
REMARK    9  A    between atoms: CB_23  and  CG_24
REMARK   10  A    between atoms: CG_24  and  CD_25
REMARK   11  A    between atoms: CD_25  and  OE2_27
REMARK   12  A    between atoms: C_28  and  OXT_30
REMARK                            x       y       z     vdW  Elec       q    Type
REMARK                         _______ _______ _______ _____ _____    ______ ____
ROOT
ATOM      1  C   UNK A   0       1.924   4.264  19.558  0.00  0.00    +0.000 A 
ATOM      2  C   UNK A   0       1.471   2.944  19.453  0.00  0.00    +0.000 A 
ATOM      3  C   UNK A   0       2.012   2.083  18.497  0.00  0.00    +0.000 A 
ATOM      4  C   UNK A   0       3.008   2.534  17.630  0.00  0.00    +0.000 A 
ATOM      5  C   UNK A   0       3.464   3.856  17.710  0.00  0.00    +0.000 A 
ATOM      6  C   UNK A   0       2.929   4.709  18.684  0.00  0.00    +0.000 A 
ENDROOT
BRANCH   5   7
ATOM      7  C   UNK A   0       4.538   4.386  16.823  0.00  0.00    +0.000 C 
ATOM      8  O   UNK A   0       4.619   5.585  16.584  0.00  0.00    +0.000 OA
ATOM      9  N   GLU A   1       5.423   3.465  16.311  0.00  0.00    +0.000 N 
ATOM     10  H   GLU A   1       5.244   2.472  16.415  0.00  0.00    +0.000 HD
BRANCH   9  11
ATOM     11  CA  GLU A   1       6.581   3.848  15.510  0.00  0.00    +0.000 C 
BRANCH  11  12
ATOM     12  C   GLU A   1       7.432   4.759  16.404  0.00  0.00    +0.000 C 
ATOM     13  O   GLU A   1       8.091   4.339  17.351  0.00  0.00    +0.000 OA
BRANCH  12  14
ATOM     14  OXT GLU A   1       7.436   6.056  16.044  0.00  0.00    +0.000 OA
ATOM     15  HXT GLU A   1       7.941   6.259  15.224  0.00  0.00    +0.000 HD
ENDBRANCH  12  14
ENDBRANCH  11  12
BRANCH  11  16
ATOM     16  CB  GLU A   1       6.139   4.595  14.238  0.00  0.00    +0.000 C 
BRANCH  16  17
ATOM     17  CG  GLU A   1       5.196   3.809  13.333  0.00  0.00    +0.000 C 
BRANCH  17  18
ATOM     18  CD  GLU A   1       5.955   3.186  12.198  0.00  0.00    +0.000 C 
ATOM     19  OE1 GLU A   1       5.474   2.302  11.498  0.00  0.00    +0.000 OA
BRANCH  18  20
ATOM     20  OE2 GLU A   1       7.153   3.749  11.962  0.00  0.00    +0.000 OA
ATOM     21  HE2 GLU A   1       7.920   3.169  12.135  0.00  0.00    +0.000 HD
ENDBRANCH  18  20
ENDBRANCH  17  18
ENDBRANCH  16  17
ENDBRANCH  11  16
ENDBRANCH   9  11
ENDBRANCH   5   7
BRANCH   1  22
ATOM     22  C   UNK A   0       1.337   5.196  20.592  0.00  0.00    +0.000 C 
BRANCH  22  23
ATOM     23  C   UNK A   0       2.104   6.518  20.634  0.00  0.00    +0.000 C 
BRANCH  23  33
ATOM     24  N   UNK A   0      -1.124  13.615  19.106  0.00  0.00    +0.000 N 
ATOM     25  C   UNK A   0      -0.561  12.498  19.686  0.00  0.00    +0.000 A 
ATOM     26  N   UNK A   0      -0.634  12.405  21.007  0.00  0.00    +0.000 NA
ATOM     27  C   UNK A   0      -0.117  11.282  21.525  0.00  0.00    +0.000 A 
ATOM     28  C   UNK A   0       0.464  10.262  20.809  0.00  0.00    +0.000 A 
ATOM     29  C   UNK A   0       0.529  10.493  19.438  0.00  0.00    +0.000 A 
ATOM     30  N   UNK A   0       0.032  11.609  18.877  0.00  0.00    +0.000 NA
ATOM     31  N   UNK A   0       1.054   9.574  18.541  0.00  0.00    +0.000 N 
ATOM     32  C   UNK A   0       1.951   8.528  19.006  0.00  0.00    +0.000 C 
ATOM     33  C   UNK A   0       1.301   7.726  20.145  0.00  0.00    +0.000 C 
ATOM     34  S   UNK A   0       1.090   8.808  21.610  0.00  0.00    +0.000 S 
ATOM     35  H   UNK A   0      -1.185  14.370  19.774  0.00  0.00    +0.000 HD
ATOM     36  H   UNK A   0      -0.698  13.808  18.212  0.00  0.00    +0.000 HD
ATOM     37  H   UNK A   0       1.211   9.994  17.629  0.00  0.00    +0.000 HD
BRANCH  27  38
ATOM     38  O   UNK A   0      -0.229  11.232  22.880  0.00  0.00    +0.000 OA
ATOM     39  H   UNK A   0      -1.199  11.236  22.988  0.00  0.00    +0.000 HD
ENDBRANCH  27  38
ENDBRANCH  23  33
ENDBRANCH  22  23
ENDBRANCH   1  22
TORSDOF 12
ENDMDL
MODEL 2
REMARK VINA RESULT:      -8.4      1.576      2.196
REMARK  Name = 
REMARK  12 active torsions:
REMARK  status: ('A' for Active; 'I' for Inactive)
REMARK    1  A    between atoms: C_4  and  O_5
REMARK    2  A    between atoms: C_11  and  C_12
REMARK    3  A    between atoms: C_12  and  C_13
REMARK    4  A    between atoms: C_13  and  C_14
REMARK    5  A    between atoms: C_18  and  C_19
REMARK    6  A    between atoms: N_21  and  CA_22
REMARK    7  A    between atoms: CA_22  and  CB_23
REMARK    8  A    between atoms: CA_22  and  C_28
REMARK    9  A    between atoms: CB_23  and  CG_24
REMARK   10  A    between atoms: CG_24  and  CD_25
REMARK   11  A    between atoms: CD_25  and  OE2_27
REMARK   12  A    between atoms: C_28  and  OXT_30
REMARK                            x       y       z     vdW  Elec       q    Type
REMARK                         _______ _______ _______ _____ _____    ______ ____
ROOT
ATOM      1  C   UNK A   0       2.071   6.426  19.776  0.00  0.00    +0.000 A 
ATOM      2  C   UNK A   0       1.308   5.635  20.643  0.00  0.00    +0.000 A 
ATOM      3  C   UNK A   0       1.451   4.247  20.643  0.00  0.00    +0.000 A 
ATOM      4  C   UNK A   0       2.353   3.633  19.773  0.00  0.00    +0.000 A 
ATOM      5  C   UNK A   0       3.114   4.407  18.888  0.00  0.00    +0.000 A 
ATOM      6  C   UNK A   0       2.978   5.802  18.905  0.00  0.00    +0.000 A 
ENDROOT
BRANCH   5   7
ATOM      7  C   UNK A   0       4.104   3.808  17.950  0.00  0.00    +0.000 C 
ATOM      8  O   UNK A   0       4.061   2.617  17.668  0.00  0.00    +0.000 OA
ATOM      9  N   GLU A   1       5.044   4.663  17.421  0.00  0.00    +0.000 N 
ATOM     10  H   GLU A   1       5.137   5.607  17.782  0.00  0.00    +0.000 HD
BRANCH   9  11
ATOM     11  CA  GLU A   1       6.013   4.241  16.414  0.00  0.00    +0.000 C 
BRANCH  11  12
ATOM     12  C   GLU A   1       7.365   4.813  16.861  0.00  0.00    +0.000 C 
ATOM     13  O   GLU A   1       8.213   4.144  17.444  0.00  0.00    +0.000 OA
BRANCH  12  14
ATOM     14  OXT GLU A   1       7.570   6.100  16.523  0.00  0.00    +0.000 OA
ATOM     15  HXT GLU A   1       7.036   6.421  15.762  0.00  0.00    +0.000 HD
ENDBRANCH  12  14
ENDBRANCH  11  12
BRANCH  11  16
ATOM     16  CB  GLU A   1       5.625   4.783  15.026  0.00  0.00    +0.000 C 
BRANCH  16  17
ATOM     17  CG  GLU A   1       6.068   3.911  13.856  0.00  0.00    +0.000 C 
BRANCH  17  18
ATOM     18  CD  GLU A   1       7.117   4.614  13.044  0.00  0.00    +0.000 C 
ATOM     19  OE1 GLU A   1       7.242   4.432  11.839  0.00  0.00    +0.000 OA
BRANCH  18  20
ATOM     20  OE2 GLU A   1       7.829   5.523  13.734  0.00  0.00    +0.000 OA
ATOM     21  HE2 GLU A   1       8.489   5.147  14.348  0.00  0.00    +0.000 HD
ENDBRANCH  18  20
ENDBRANCH  17  18
ENDBRANCH  16  17
ENDBRANCH  11  16
ENDBRANCH   9  11
ENDBRANCH   5   7
BRANCH   1  22
ATOM     22  C   UNK A   0       1.915   7.930  19.775  0.00  0.00    +0.000 C 
BRANCH  22  23
ATOM     23  C   UNK A   0       1.914   8.477  18.347  0.00  0.00    +0.000 C 
BRANCH  23  33
ATOM     24  N   UNK A   0      -0.937  15.837  19.252  0.00  0.00    +0.000 N 
ATOM     25  C   UNK A   0      -0.609  14.505  19.380  0.00  0.00    +0.000 A 
ATOM     26  N   UNK A   0      -1.315  13.792  20.248  0.00  0.00    +0.000 NA
ATOM     27  C   UNK A   0      -0.995  12.491  20.307  0.00  0.00    +0.000 A 
ATOM     28  C   UNK A   0      -0.021  11.871  19.560  0.00  0.00    +0.000 A 
ATOM     29  C   UNK A   0       0.686  12.727  18.722  0.00  0.00    +0.000 A 
ATOM     30  N   UNK A   0       0.406  14.039  18.639  0.00  0.00    +0.000 NA
ATOM     31  N   UNK A   0       1.690  12.291  17.869  0.00  0.00    +0.000 N 
ATOM     32  C   UNK A   0       2.354  11.019  18.111  0.00  0.00    +0.000 C 
ATOM     33  C   UNK A   0       1.324   9.883  18.214  0.00  0.00    +0.000 C 
ATOM     34  S   UNK A   0       0.291  10.130  19.709  0.00  0.00    +0.000 S 
ATOM     35  H   UNK A   0      -1.408  16.169  20.082  0.00  0.00    +0.000 HD
ATOM     36  H   UNK A   0      -0.150  16.369  18.912  0.00  0.00    +0.000 HD
ATOM     37  H   UNK A   0       2.227  13.070  17.499  0.00  0.00    +0.000 HD
BRANCH  27  38
ATOM     38  O   UNK A   0      -1.758  11.806  21.201  0.00  0.00    +0.000 OA
ATOM     39  H   UNK A   0      -1.216  11.886  22.010  0.00  0.00    +0.000 HD
ENDBRANCH  27  38
ENDBRANCH  23  33
ENDBRANCH  22  23
ENDBRANCH   1  22
TORSDOF 12
ENDMDL
MODEL 3
REMARK VINA RESULT:      -8.4      2.153      2.796
REMARK  Name = 
REMARK  12 active torsions:
REMARK  status: ('A' for Active; 'I' for Inactive)
REMARK    1  A    between atoms: C_4  and  O_5
REMARK    2  A    between atoms: C_11  and  C_12
REMARK    3  A    between atoms: C_12  and  C_13
REMARK    4  A    between atoms: C_13  and  C_14
REMARK    5  A    between atoms: C_18  and  C_19
REMARK    6  A    between atoms: N_21  and  CA_22
REMARK    7  A    between atoms: CA_22  and  CB_23
REMARK    8  A    between atoms: CA_22  and  C_28
REMARK    9  A    between atoms: CB_23  and  CG_24
REMARK   10  A    between atoms: CG_24  and  CD_25
REMARK   11  A    between atoms: CD_25  and  OE2_27
REMARK   12  A    between atoms: C_28  and  OXT_30
REMARK                            x       y       z     vdW  Elec       q    Type
REMARK                         _______ _______ _______ _____ _____    ______ ____
ROOT
ATOM      1  C   UNK A   0       1.752   5.678  20.449  0.00  0.00    +0.000 A 
ATOM      2  C   UNK A   0       0.784   4.668  20.491  0.00  0.00    +0.000 A 
ATOM      3  C   UNK A   0       1.120   3.352  20.169  0.00  0.00    +0.000 A 
ATOM      4  C   UNK A   0       2.426   3.032  19.797  0.00  0.00    +0.000 A 
ATOM      5  C   UNK A   0       3.405   4.031  19.736  0.00  0.00    +0.000 A 
ATOM      6  C   UNK A   0       3.065   5.347  20.076  0.00  0.00    +0.000 A 
ENDROOT
BRANCH   5   7
ATOM      7  C   UNK A   0       4.819   3.744  19.362  0.00  0.00    +0.000 C 
ATOM      8  O   UNK A   0       5.320   2.651  19.595  0.00  0.00    +0.000 OA
ATOM      9  N   GLU A   1       5.508   4.760  18.740  0.00  0.00    +0.000 N 
ATOM     10  H   GLU A   1       5.110   5.691  18.690  0.00  0.00    +0.000 HD
BRANCH   9  11
ATOM     11  CA  GLU A   1       6.864   4.591  18.229  0.00  0.00    +0.000 C 
BRANCH  11  12
ATOM     12  C   GLU A   1       7.703   5.700  18.877  0.00  0.00    +0.000 C 
ATOM     13  O   GLU A   1       7.745   6.847  18.441  0.00  0.00    +0.000 OA
BRANCH  12  14
ATOM     14  OXT GLU A   1       8.359   5.329  19.992  0.00  0.00    +0.000 OA
ATOM     15  HXT GLU A   1       7.807   4.881  20.671  0.00  0.00    +0.000 HD
ENDBRANCH  12  14
ENDBRANCH  11  12
BRANCH  11  16
ATOM     16  CB  GLU A   1       6.887   4.719  16.694  0.00  0.00    +0.000 C 
BRANCH  16  17
ATOM     17  CG  GLU A   1       5.521   4.939  16.053  0.00  0.00    +0.000 C 
BRANCH  17  18
ATOM     18  CD  GLU A   1       5.222   6.407  15.947  0.00  0.00    +0.000 C 
ATOM     19  OE1 GLU A   1       5.200   6.993  14.871  0.00  0.00    +0.000 OA
BRANCH  18  20
ATOM     20  OE2 GLU A   1       4.887   6.986  17.114  0.00  0.00    +0.000 OA
ATOM     21  HE2 GLU A   1       4.207   7.684  17.045  0.00  0.00    +0.000 HD
ENDBRANCH  18  20
ENDBRANCH  17  18
ENDBRANCH  16  17
ENDBRANCH  11  16
ENDBRANCH   9  11
ENDBRANCH   5   7
BRANCH   1  22
ATOM     22  C   UNK A   0       1.388   7.103  20.795  0.00  0.00    +0.000 C 
BRANCH  22  23
ATOM     23  C   UNK A   0       1.839   8.065  19.695  0.00  0.00    +0.000 C 
BRANCH  23  33
ATOM     24  N   UNK A   0      -1.855  15.095  19.922  0.00  0.00    +0.000 N 
ATOM     25  C   UNK A   0      -1.192  13.922  20.213  0.00  0.00    +0.000 A 
ATOM     26  N   UNK A   0      -1.159  13.551  21.486  0.00  0.00    +0.000 NA
ATOM     27  C   UNK A   0      -0.546  12.381  21.720  0.00  0.00    +0.000 A 
ATOM     28  C   UNK A   0       0.029  11.573  20.767  0.00  0.00    +0.000 A 
ATOM     29  C   UNK A   0      -0.024  12.088  19.475  0.00  0.00    +0.000 A 
ATOM     30  N   UNK A   0      -0.619  13.261  19.197  0.00  0.00    +0.000 NA
ATOM     31  N   UNK A   0       0.477  11.413  18.371  0.00  0.00    +0.000 N 
ATOM     32  C   UNK A   0       1.459  10.354  18.545  0.00  0.00    +0.000 C 
ATOM     33  C   UNK A   0       0.941   9.292  19.527  0.00  0.00    +0.000 C 
ATOM     34  S   UNK A   0       0.789  10.029  21.199  0.00  0.00    +0.000 S 
ATOM     35  H   UNK A   0      -1.902  15.688  20.737  0.00  0.00    +0.000 HD
ATOM     36  H   UNK A   0      -1.509  15.498  19.063  0.00  0.00    +0.000 HD
ATOM     37  H   UNK A   0       0.541  12.023  17.561  0.00  0.00    +0.000 HD
BRANCH  27  38
ATOM     38  O   UNK A   0      -0.551  12.043  23.037  0.00  0.00    +0.000 OA
ATOM     39  H   UNK A   0      -0.962  12.835  23.433  0.00  0.00    +0.000 HD
ENDBRANCH  27  38
ENDBRANCH  23  33
ENDBRANCH  22  23
ENDBRANCH   1  22
TORSDOF 12
ENDMDL
MODEL 4
REMARK VINA RESULT:      -8.3      1.738      2.152
REMARK  Name = 
REMARK  12 active torsions:
REMARK  status: ('A' for Active; 'I' for Inactive)
REMARK    1  A    between atoms: C_4  and  O_5
REMARK    2  A    between atoms: C_11  and  C_12
REMARK    3  A    between atoms: C_12  and  C_13
REMARK    4  A    between atoms: C_13  and  C_14
REMARK    5  A    between atoms: C_18  and  C_19
REMARK    6  A    between atoms: N_21  and  CA_22
REMARK    7  A    between atoms: CA_22  and  CB_23
REMARK    8  A    between atoms: CA_22  and  C_28
REMARK    9  A    between atoms: CB_23  and  CG_24
REMARK   10  A    between atoms: CG_24  and  CD_25
REMARK   11  A    between atoms: CD_25  and  OE2_27
REMARK   12  A    between atoms: C_28  and  OXT_30
REMARK                            x       y       z     vdW  Elec       q    Type
REMARK                         _______ _______ _______ _____ _____    ______ ____
ROOT
ATOM      1  C   UNK A   0       1.831   5.118  20.373  0.00  0.00    +0.000 A 
ATOM      2  C   UNK A   0       1.252   3.871  20.630  0.00  0.00    +0.000 A 
ATOM      3  C   UNK A   0       1.830   2.705  20.126  0.00  0.00    +0.000 A 
ATOM      4  C   UNK A   0       2.991   2.773  19.354  0.00  0.00    +0.000 A 
ATOM      5  C   UNK A   0       3.577   4.013  19.074  0.00  0.00    +0.000 A 
ATOM      6  C   UNK A   0       3.001   5.179  19.598  0.00  0.00    +0.000 A 
ENDROOT
BRANCH   5   7
ATOM      7  C   UNK A   0       4.825   4.145  18.272  0.00  0.00    +0.000 C 
ATOM      8  O   UNK A   0       5.924   3.992  18.791  0.00  0.00    +0.000 OA
ATOM      9  N   GLU A   1       4.668   4.431  16.934  0.00  0.00    +0.000 N 
ATOM     10  H   GLU A   1       3.757   4.688  16.570  0.00  0.00    +0.000 HD
BRANCH   9  11
ATOM     11  CA  GLU A   1       5.793   4.490  16.006  0.00  0.00    +0.000 C 
BRANCH  11  12
ATOM     12  C   GLU A   1       6.344   5.919  16.099  0.00  0.00    +0.000 C 
ATOM     13  O   GLU A   1       7.490   6.170  16.459  0.00  0.00    +0.000 OA
BRANCH  12  14
ATOM     14  OXT GLU A   1       5.485   6.879  15.710  0.00  0.00    +0.000 OA
ATOM     15  HXT GLU A   1       5.900   7.735  15.460  0.00  0.00    +0.000 HD
ENDBRANCH  12  14
ENDBRANCH  11  12
BRANCH  11  16
ATOM     16  CB  GLU A   1       5.330   4.178  14.571  0.00  0.00    +0.000 C 
BRANCH  16  17
ATOM     17  CG  GLU A   1       6.460   3.946  13.574  0.00  0.00    +0.000 C 
BRANCH  17  18
ATOM     18  CD  GLU A   1       5.952   3.214  12.365  0.00  0.00    +0.000 C 
ATOM     19  OE1 GLU A   1       4.847   3.434  11.885  0.00  0.00    +0.000 OA
BRANCH  18  20
ATOM     20  OE2 GLU A   1       6.849   2.379  11.810  0.00  0.00    +0.000 OA
ATOM     21  HE2 GLU A   1       6.836   2.355  10.833  0.00  0.00    +0.000 HD
ENDBRANCH  18  20
ENDBRANCH  17  18
ENDBRANCH  16  17
ENDBRANCH  11  16
ENDBRANCH   9  11
ENDBRANCH   5   7
BRANCH   1  22
ATOM     22  C   UNK A   0       1.204   6.381  20.917  0.00  0.00    +0.000 C 
BRANCH  22  23
ATOM     23  C   UNK A   0       1.830   7.621  20.278  0.00  0.00    +0.000 C 
BRANCH  23  33
ATOM     24  N   UNK A   0      -2.437  14.238  21.342  0.00  0.00    +0.000 N 
ATOM     25  C   UNK A   0      -1.731  13.168  20.834  0.00  0.00    +0.000 A 
ATOM     26  N   UNK A   0      -1.360  13.243  19.563  0.00  0.00    +0.000 NA
ATOM     27  C   UNK A   0      -0.634  12.205  19.122  0.00  0.00    +0.000 A 
ATOM     28  C   UNK A   0      -0.267  11.110  19.869  0.00  0.00    +0.000 A 
ATOM     29  C   UNK A   0      -0.755  11.118  21.171  0.00  0.00    +0.000 A 
ATOM     30  N   UNK A   0      -1.494  12.133  21.652  0.00  0.00    +0.000 NA
ATOM     31  N   UNK A   0      -0.473  10.117  22.091  0.00  0.00    +0.000 N 
ATOM     32  C   UNK A   0      -0.029   8.809  21.634  0.00  0.00    +0.000 C 
ATOM     33  C   UNK A   0       1.200   8.943  20.722  0.00  0.00    +0.000 C 
ATOM     34  S   UNK A   0       0.722   9.809  19.177  0.00  0.00    +0.000 S 
ATOM     35  H   UNK A   0      -2.887  14.752  20.599  0.00  0.00    +0.000 HD
ATOM     36  H   UNK A   0      -3.002  13.952  22.128  0.00  0.00    +0.000 HD
ATOM     37  H   UNK A   0      -1.076  10.182  22.906  0.00  0.00    +0.000 HD
BRANCH  27  38
ATOM     38  O   UNK A   0      -0.270  12.339  17.818  0.00  0.00    +0.000 OA
ATOM     39  H   UNK A   0      -0.606  13.233  17.620  0.00  0.00    +0.000 HD
ENDBRANCH  27  38
ENDBRANCH  23  33
ENDBRANCH  22  23
ENDBRANCH   1  22
TORSDOF 12
ENDMDL
MODEL 5
REMARK VINA RESULT:      -8.3      1.601      2.051
REMARK  Name = 
REMARK  12 active torsions:
REMARK  status: ('A' for Active; 'I' for Inactive)
REMARK    1  A    between atoms: C_4  and  O_5
REMARK    2  A    between atoms: C_11  and  C_12
REMARK    3  A    between atoms: C_12  and  C_13
REMARK    4  A    between atoms: C_13  and  C_14
REMARK    5  A    between atoms: C_18  and  C_19
REMARK    6  A    between atoms: N_21  and  CA_22
REMARK    7  A    between atoms: CA_22  and  CB_23
REMARK    8  A    between atoms: CA_22  and  C_28
REMARK    9  A    between atoms: CB_23  and  CG_24
REMARK   10  A    between atoms: CG_24  and  CD_25
REMARK   11  A    between atoms: CD_25  and  OE2_27
REMARK   12  A    between atoms: C_28  and  OXT_30
REMARK                            x       y       z     vdW  Elec       q    Type
REMARK                         _______ _______ _______ _____ _____    ______ ____
ROOT
ATOM      1  C   UNK A   0       2.030   5.027  19.999  0.00  0.00    +0.000 A 
ATOM      2  C   UNK A   0       1.885   3.721  20.480  0.00  0.00    +0.000 A 
ATOM      3  C   UNK A   0       2.592   2.669  19.896  0.00  0.00    +0.000 A 
ATOM      4  C   UNK A   0       3.448   2.910  18.820  0.00  0.00    +0.000 A 
ATOM      5  C   UNK A   0       3.594   4.207  18.315  0.00  0.00    +0.000 A 
ATOM      6  C   UNK A   0       2.894   5.261  18.917  0.00  0.00    +0.000 A 
ENDROOT
BRANCH   5   7
ATOM      7  C   UNK A   0       4.506   4.526  17.180  0.00  0.00    +0.000 C 
ATOM      8  O   UNK A   0       4.607   5.671  16.759  0.00  0.00    +0.000 OA
ATOM      9  N   GLU A   1       5.225   3.475  16.656  0.00  0.00    +0.000 N 
ATOM     10  H   GLU A   1       5.014   2.523  16.934  0.00  0.00    +0.000 HD
BRANCH   9  11
ATOM     11  CA  GLU A   1       6.229   3.653  15.612  0.00  0.00    +0.000 C 
BRANCH  11  12
ATOM     12  C   GLU A   1       7.287   4.598  16.197  0.00  0.00    +0.000 C 
ATOM     13  O   GLU A   1       8.032   4.278  17.118  0.00  0.00    +0.000 OA
BRANCH  12  14
ATOM     14  OXT GLU A   1       7.366   5.797  15.589  0.00  0.00    +0.000 OA
ATOM     15  HXT GLU A   1       7.707   5.775  14.667  0.00  0.00    +0.000 HD
ENDBRANCH  12  14
ENDBRANCH  11  12
BRANCH  11  16
ATOM     16  CB  GLU A   1       5.596   4.261  14.347  0.00  0.00    +0.000 C 
BRANCH  16  17
ATOM     17  CG  GLU A   1       6.332   3.944  13.050  0.00  0.00    +0.000 C 
BRANCH  17  18
ATOM     18  CD  GLU A   1       5.487   3.072  12.167  0.00  0.00    +0.000 C 
ATOM     19  OE1 GLU A   1       4.399   3.435  11.738  0.00  0.00    +0.000 OA
BRANCH  18  20
ATOM     20  OE2 GLU A   1       6.073   1.913  11.815  0.00  0.00    +0.000 OA
ATOM     21  HE2 GLU A   1       6.331   1.340  12.564  0.00  0.00    +0.000 HD
ENDBRANCH  18  20
ENDBRANCH  17  18
ENDBRANCH  16  17
ENDBRANCH  11  16
ENDBRANCH   9  11
ENDBRANCH   5   7
BRANCH   1  22
ATOM     22  C   UNK A   0       1.263   6.165  20.630  0.00  0.00    +0.000 C 
BRANCH  22  23
ATOM     23  C   UNK A   0       1.796   7.516  20.149  0.00  0.00    +0.000 C 
BRANCH  23  33
ATOM     24  N   UNK A   0      -1.509  13.892  23.548  0.00  0.00    +0.000 N 
ATOM     25  C   UNK A   0      -0.990  12.957  22.677  0.00  0.00    +0.000 A 
ATOM     26  N   UNK A   0      -0.736  13.365  21.441  0.00  0.00    +0.000 NA
ATOM     27  C   UNK A   0      -0.189  12.439  20.640  0.00  0.00    +0.000 A 
ATOM     28  C   UNK A   0       0.112  11.146  20.999  0.00  0.00    +0.000 A 
ATOM     29  C   UNK A   0      -0.244  10.819  22.303  0.00  0.00    +0.000 A 
ATOM     30  N   UNK A   0      -0.804  11.712  23.137  0.00  0.00    +0.000 NA
ATOM     31  N   UNK A   0       0.000   9.573  22.863  0.00  0.00    +0.000 N 
ATOM     32  C   UNK A   0       0.234   8.420  22.008  0.00  0.00    +0.000 C 
ATOM     33  C   UNK A   0       1.377   8.702  21.021  0.00  0.00    +0.000 C 
ATOM     34  S   UNK A   0       0.863  10.019  19.852  0.00  0.00    +0.000 S 
ATOM     35  H   UNK A   0      -1.961  14.638  23.041  0.00  0.00    +0.000 HD
ATOM     36  H   UNK A   0      -2.026  13.442  24.289  0.00  0.00    +0.000 HD
ATOM     37  H   UNK A   0      -0.510   9.451  23.734  0.00  0.00    +0.000 HD
BRANCH  27  38
ATOM     38  O   UNK A   0       0.063  12.913  19.390  0.00  0.00    +0.000 OA
ATOM     39  H   UNK A   0       0.623  13.687  19.591  0.00  0.00    +0.000 HD
ENDBRANCH  27  38
ENDBRANCH  23  33
ENDBRANCH  22  23
ENDBRANCH   1  22
TORSDOF 12
ENDMDL
MODEL 6
REMARK VINA RESULT:      -8.3      1.296      1.618
REMARK  Name = 
REMARK  12 active torsions:
REMARK  status: ('A' for Active; 'I' for Inactive)
REMARK    1  A    between atoms: C_4  and  O_5
REMARK    2  A    between atoms: C_11  and  C_12
REMARK    3  A    between atoms: C_12  and  C_13
REMARK    4  A    between atoms: C_13  and  C_14
REMARK    5  A    between atoms: C_18  and  C_19
REMARK    6  A    between atoms: N_21  and  CA_22
REMARK    7  A    between atoms: CA_22  and  CB_23
REMARK    8  A    between atoms: CA_22  and  C_28
REMARK    9  A    between atoms: CB_23  and  CG_24
REMARK   10  A    between atoms: CG_24  and  CD_25
REMARK   11  A    between atoms: CD_25  and  OE2_27
REMARK   12  A    between atoms: C_28  and  OXT_30
REMARK                            x       y       z     vdW  Elec       q    Type
REMARK                         _______ _______ _______ _____ _____    ______ ____
ROOT
ATOM      1  C   UNK A   0       1.962   5.058  20.600  0.00  0.00    +0.000 A 
ATOM      2  C   UNK A   0       1.714   4.021  21.507  0.00  0.00    +0.000 A 
ATOM      3  C   UNK A   0       2.272   2.758  21.306  0.00  0.00    +0.000 A 
ATOM      4  C   UNK A   0       3.080   2.516  20.194  0.00  0.00    +0.000 A 
ATOM      5  C   UNK A   0       3.327   3.536  19.269  0.00  0.00    +0.000 A 
ATOM      6  C   UNK A   0       2.777   4.807  19.485  0.00  0.00    +0.000 A 
ENDROOT
BRANCH   5   7
ATOM      7  C   UNK A   0       4.196   3.340  18.074  0.00  0.00    +0.000 C 
ATOM      8  O   UNK A   0       4.030   2.382  17.329  0.00  0.00    +0.000 OA
ATOM      9  N   GLU A   1       5.167   4.291  17.857  0.00  0.00    +0.000 N 
ATOM     10  H   GLU A   1       5.366   4.988  18.566  0.00  0.00    +0.000 HD
BRANCH   9  11
ATOM     11  CA  GLU A   1       6.024   4.284  16.676  0.00  0.00    +0.000 C 
BRANCH  11  12
ATOM     12  C   GLU A   1       7.342   4.942  17.105  0.00  0.00    +0.000 C 
ATOM     13  O   GLU A   1       8.072   4.473  17.973  0.00  0.00    +0.000 OA
BRANCH  12  14
ATOM     14  OXT GLU A   1       7.661   6.058  16.422  0.00  0.00    +0.000 OA
ATOM     15  HXT GLU A   1       7.462   6.902  16.885  0.00  0.00    +0.000 HD
ENDBRANCH  12  14
ENDBRANCH  11  12
BRANCH  11  16
ATOM     16  CB  GLU A   1       5.371   5.073  15.526  0.00  0.00    +0.000 C 
BRANCH  16  17
ATOM     17  CG  GLU A   1       5.212   4.290  14.227  0.00  0.00    +0.000 C 
BRANCH  17  18
ATOM     18  CD  GLU A   1       6.503   4.280  13.459  0.00  0.00    +0.000 C 
ATOM     19  OE1 GLU A   1       7.348   5.157  13.590  0.00  0.00    +0.000 OA
BRANCH  18  20
ATOM     20  OE2 GLU A   1       6.683   3.183  12.701  0.00  0.00    +0.000 OA
ATOM     21  HE2 GLU A   1       6.872   2.366  13.202  0.00  0.00    +0.000 HD
ENDBRANCH  18  20
ENDBRANCH  17  18
ENDBRANCH  16  17
ENDBRANCH  11  16
ENDBRANCH   9  11
ENDBRANCH   5   7
BRANCH   1  22
ATOM     22  C   UNK A   0       1.356   6.426  20.816  0.00  0.00    +0.000 C 
BRANCH  22  23
ATOM     23  C   UNK A   0       2.055   7.476  19.951  0.00  0.00    +0.000 C 
BRANCH  23  33
ATOM     24  N   UNK A   0      -1.433  14.596  19.437  0.00  0.00    +0.000 N 
ATOM     25  C   UNK A   0      -0.816  13.435  19.852  0.00  0.00    +0.000 A 
ATOM     26  N   UNK A   0      -0.837  13.176  21.153  0.00  0.00    +0.000 NA
ATOM     27  C   UNK A   0      -0.268  12.015  21.509  0.00  0.00    +0.000 A 
ATOM     28  C   UNK A   0       0.315  11.112  20.650  0.00  0.00    +0.000 A 
ATOM     29  C   UNK A   0       0.322  11.514  19.318  0.00  0.00    +0.000 A 
ATOM     30  N   UNK A   0      -0.228  12.674  18.919  0.00  0.00    +0.000 NA
ATOM     31  N   UNK A   0       0.839  10.732  18.295  0.00  0.00    +0.000 N 
ATOM     32  C   UNK A   0       1.783   9.666  18.595  0.00  0.00    +0.000 C 
ATOM     33  C   UNK A   0       1.199   8.708  19.645  0.00  0.00    +0.000 C 
ATOM     34  S   UNK A   0       1.012   9.591  21.241  0.00  0.00    +0.000 S 
ATOM     35  H   UNK A   0      -1.490  15.259  20.196  0.00  0.00    +0.000 HD
ATOM     36  H   UNK A   0      -1.046  14.913  18.561  0.00  0.00    +0.000 HD
ATOM     37  H   UNK A   0       0.949  11.267  17.439  0.00  0.00    +0.000 HD
BRANCH  27  38
ATOM     38  O   UNK A   0      -0.329  11.792  22.849  0.00  0.00    +0.000 OA
ATOM     39  H   UNK A   0      -1.248  11.481  22.947  0.00  0.00    +0.000 HD
ENDBRANCH  27  38
ENDBRANCH  23  33
ENDBRANCH  22  23
ENDBRANCH   1  22
TORSDOF 12
ENDMDL
MODEL 7
REMARK VINA RESULT:      -8.2      2.351      3.999
REMARK  Name = 
REMARK  12 active torsions:
REMARK  status: ('A' for Active; 'I' for Inactive)
REMARK    1  A    between atoms: C_4  and  O_5
REMARK    2  A    between atoms: C_11  and  C_12
REMARK    3  A    between atoms: C_12  and  C_13
REMARK    4  A    between atoms: C_13  and  C_14
REMARK    5  A    between atoms: C_18  and  C_19
REMARK    6  A    between atoms: N_21  and  CA_22
REMARK    7  A    between atoms: CA_22  and  CB_23
REMARK    8  A    between atoms: CA_22  and  C_28
REMARK    9  A    between atoms: CB_23  and  CG_24
REMARK   10  A    between atoms: CG_24  and  CD_25
REMARK   11  A    between atoms: CD_25  and  OE2_27
REMARK   12  A    between atoms: C_28  and  OXT_30
REMARK                            x       y       z     vdW  Elec       q    Type
REMARK                         _______ _______ _______ _____ _____    ______ ____
ROOT
ATOM      1  C   UNK A   0       1.708   6.294  20.408  0.00  0.00    +0.000 A 
ATOM      2  C   UNK A   0       1.361   4.951  20.595  0.00  0.00    +0.000 A 
ATOM      3  C   UNK A   0       1.898   3.960  19.773  0.00  0.00    +0.000 A 
ATOM      4  C   UNK A   0       2.786   4.300  18.751  0.00  0.00    +0.000 A 
ATOM      5  C   UNK A   0       3.134   5.640  18.539  0.00  0.00    +0.000 A 
ATOM      6  C   UNK A   0       2.604   6.628  19.379  0.00  0.00    +0.000 A 
ENDROOT
BRANCH   5   7
ATOM      7  C   UNK A   0       4.090   6.059  17.475  0.00  0.00    +0.000 C 
ATOM      8  O   UNK A   0       4.130   7.221  17.091  0.00  0.00    +0.000 OA
ATOM      9  N   GLU A   1       4.917   5.080  16.972  0.00  0.00    +0.000 N 
ATOM     10  H   GLU A   1       4.761   4.107  17.211  0.00  0.00    +0.000 HD
BRANCH   9  11
ATOM     11  CA  GLU A   1       5.968   5.363  16.000  0.00  0.00    +0.000 C 
BRANCH  11  12
ATOM     12  C   GLU A   1       6.124   4.089  15.160  0.00  0.00    +0.000 C 
ATOM     13  O   GLU A   1       6.458   4.104  13.979  0.00  0.00    +0.000 OA
BRANCH  12  14
ATOM     14  OXT GLU A   1       5.907   2.943  15.832  0.00  0.00    +0.000 OA
ATOM     15  HXT GLU A   1       5.012   2.857  16.232  0.00  0.00    +0.000 HD
ENDBRANCH  12  14
ENDBRANCH  11  12
BRANCH  11  16
ATOM     16  CB  GLU A   1       7.289   5.709  16.713  0.00  0.00    +0.000 C 
BRANCH  16  17
ATOM     17  CG  GLU A   1       7.576   4.878  17.959  0.00  0.00    +0.000 C 
BRANCH  17  18
ATOM     18  CD  GLU A   1       7.817   5.771  19.142  0.00  0.00    +0.000 C 
ATOM     19  OE1 GLU A   1       7.677   5.381  20.294  0.00  0.00    +0.000 OA
BRANCH  18  20
ATOM     20  OE2 GLU A   1       8.289   6.990  18.824  0.00  0.00    +0.000 OA
ATOM     21  HE2 GLU A   1       7.812   7.735  19.238  0.00  0.00    +0.000 HD
ENDBRANCH  18  20
ENDBRANCH  17  18
ENDBRANCH  16  17
ENDBRANCH  11  16
ENDBRANCH   9  11
ENDBRANCH   5   7
BRANCH   1  22
ATOM     22  C   UNK A   0       1.125   7.368  21.297  0.00  0.00    +0.000 C 
BRANCH  22  23
ATOM     23  C   UNK A   0       1.220   8.740  20.630  0.00  0.00    +0.000 C 
BRANCH  23  33
ATOM     24  N   UNK A   0      -3.607  14.331  23.558  0.00  0.00    +0.000 N 
ATOM     25  C   UNK A   0      -2.880  13.477  22.757  0.00  0.00    +0.000 A 
ATOM     26  N   UNK A   0      -2.792  13.789  21.470  0.00  0.00    +0.000 NA
ATOM     27  C   UNK A   0      -2.037  12.960  20.736  0.00  0.00    +0.000 A 
ATOM     28  C   UNK A   0      -1.376  11.849  21.206  0.00  0.00    +0.000 A 
ATOM     29  C   UNK A   0      -1.582  11.593  22.558  0.00  0.00    +0.000 A 
ATOM     30  N   UNK A   0      -2.339  12.393  23.330  0.00  0.00    +0.000 NA
ATOM     31  N   UNK A   0      -0.981  10.536  23.228  0.00  0.00    +0.000 N 
ATOM     32  C   UNK A   0      -0.466   9.398  22.483  0.00  0.00    +0.000 C 
ATOM     33  C   UNK A   0       0.519   9.862  21.399  0.00  0.00    +0.000 C 
ATOM     34  S   UNK A   0      -0.382  10.842  20.136  0.00  0.00    +0.000 S 
ATOM     35  H   UNK A   0      -4.266  14.860  23.008  0.00  0.00    +0.000 HD
ATOM     36  H   UNK A   0      -3.953  13.848  24.374  0.00  0.00    +0.000 HD
ATOM     37  H   UNK A   0      -1.407  10.384  24.138  0.00  0.00    +0.000 HD
BRANCH  27  38
ATOM     38  O   UNK A   0      -1.971  13.333  19.429  0.00  0.00    +0.000 OA
ATOM     39  H   UNK A   0      -1.441  12.605  19.052  0.00  0.00    +0.000 HD
ENDBRANCH  27  38
ENDBRANCH  23  33
ENDBRANCH  22  23
ENDBRANCH   1  22
TORSDOF 12
ENDMDL
MODEL 8
REMARK VINA RESULT:      -8.2      0.778      1.039
REMARK  Name = 
REMARK  12 active torsions:
REMARK  status: ('A' for Active; 'I' for Inactive)
REMARK    1  A    between atoms: C_4  and  O_5
REMARK    2  A    between atoms: C_11  and  C_12
REMARK    3  A    between atoms: C_12  and  C_13
REMARK    4  A    between atoms: C_13  and  C_14
REMARK    5  A    between atoms: C_18  and  C_19
REMARK    6  A    between atoms: N_21  and  CA_22
REMARK    7  A    between atoms: CA_22  and  CB_23
REMARK    8  A    between atoms: CA_22  and  C_28
REMARK    9  A    between atoms: CB_23  and  CG_24
REMARK   10  A    between atoms: CG_24  and  CD_25
REMARK   11  A    between atoms: CD_25  and  OE2_27
REMARK   12  A    between atoms: C_28  and  OXT_30
REMARK                            x       y       z     vdW  Elec       q    Type
REMARK                         _______ _______ _______ _____ _____    ______ ____
ROOT
ATOM      1  C   UNK A   0       1.779   4.298  19.820  0.00  0.00    +0.000 A 
ATOM      2  C   UNK A   0       0.971   3.189  19.545  0.00  0.00    +0.000 A 
ATOM      3  C   UNK A   0       1.383   2.224  18.625  0.00  0.00    +0.000 A 
ATOM      4  C   UNK A   0       2.605   2.359  17.965  0.00  0.00    +0.000 A 
ATOM      5  C   UNK A   0       3.421   3.469  18.216  0.00  0.00    +0.000 A 
ATOM      6  C   UNK A   0       3.009   4.426  19.154  0.00  0.00    +0.000 A 
ENDROOT
BRANCH   5   7
ATOM      7  C   UNK A   0       4.743   3.656  17.555  0.00  0.00    +0.000 C 
ATOM      8  O   UNK A   0       5.782   3.590  18.200  0.00  0.00    +0.000 OA
ATOM      9  N   GLU A   1       4.724   3.888  16.198  0.00  0.00    +0.000 N 
ATOM     10  H   GLU A   1       3.847   4.075  15.724  0.00  0.00    +0.000 HD
BRANCH   9  11
ATOM     11  CA  GLU A   1       5.941   3.991  15.401  0.00  0.00    +0.000 C 
BRANCH  11  12
ATOM     12  C   GLU A   1       6.792   5.082  16.064  0.00  0.00    +0.000 C 
ATOM     13  O   GLU A   1       6.462   6.264  16.089  0.00  0.00    +0.000 OA
BRANCH  12  14
ATOM     14  OXT GLU A   1       7.914   4.635  16.659  0.00  0.00    +0.000 OA
ATOM     15  HXT GLU A   1       8.605   5.318  16.813  0.00  0.00    +0.000 HD
ENDBRANCH  12  14
ENDBRANCH  11  12
BRANCH  11  16
ATOM     16  CB  GLU A   1       5.609   4.371  13.946  0.00  0.00    +0.000 C 
BRANCH  16  17
ATOM     17  CG  GLU A   1       6.389   3.595  12.891  0.00  0.00    +0.000 C 
BRANCH  17  18
ATOM     18  CD  GLU A   1       5.451   2.843  11.991  0.00  0.00    +0.000 C 
ATOM     19  OE1 GLU A   1       4.409   3.336  11.575  0.00  0.00    +0.000 OA
BRANCH  18  20
ATOM     20  OE2 GLU A   1       5.904   1.635  11.610  0.00  0.00    +0.000 OA
ATOM     21  HE2 GLU A   1       5.207   0.982  11.405  0.00  0.00    +0.000 HD
ENDBRANCH  18  20
ENDBRANCH  17  18
ENDBRANCH  16  17
ENDBRANCH  11  16
ENDBRANCH   9  11
ENDBRANCH   5   7
BRANCH   1  22
ATOM     22  C   UNK A   0       1.332   5.345  20.814  0.00  0.00    +0.000 C 
BRANCH  22  23
ATOM     23  C   UNK A   0       2.110   6.647  20.623  0.00  0.00    +0.000 C 
BRANCH  23  33
ATOM     24  N   UNK A   0      -1.384  13.640  19.203  0.00  0.00    +0.000 N 
ATOM     25  C   UNK A   0      -0.765  12.543  19.762  0.00  0.00    +0.000 A 
ATOM     26  N   UNK A   0      -0.782  12.454  21.086  0.00  0.00    +0.000 NA
ATOM     27  C   UNK A   0      -0.212  11.349  21.587  0.00  0.00    +0.000 A 
ATOM     28  C   UNK A   0       0.370  10.343  20.851  0.00  0.00    +0.000 A 
ATOM     29  C   UNK A   0       0.372  10.569  19.478  0.00  0.00    +0.000 A 
ATOM     30  N   UNK A   0      -0.179  11.668  18.933  0.00  0.00    +0.000 NA
ATOM     31  N   UNK A   0       0.888   9.662  18.563  0.00  0.00    +0.000 N 
ATOM     32  C   UNK A   0       1.833   8.644  18.996  0.00  0.00    +0.000 C 
ATOM     33  C   UNK A   0       1.253   7.829  20.162  0.00  0.00    +0.000 C 
ATOM     34  S   UNK A   0       1.070   8.911  21.631  0.00  0.00    +0.000 S 
ATOM     35  H   UNK A   0      -1.439  14.396  19.869  0.00  0.00    +0.000 HD
ATOM     36  H   UNK A   0      -1.000  13.841  18.291  0.00  0.00    +0.000 HD
ATOM     37  H   UNK A   0       0.995  10.082  17.644  0.00  0.00    +0.000 HD
BRANCH  27  38
ATOM     38  O   UNK A   0      -0.268  11.301  22.945  0.00  0.00    +0.000 OA
ATOM     39  H   UNK A   0       0.038  10.390  23.115  0.00  0.00    +0.000 HD
ENDBRANCH  27  38
ENDBRANCH  23  33
ENDBRANCH  22  23
ENDBRANCH   1  22
TORSDOF 12
ENDMDL
MODEL 9
REMARK VINA RESULT:      -8.2      3.109      4.969
REMARK  Name = 
REMARK  12 active torsions:
REMARK  status: ('A' for Active; 'I' for Inactive)
REMARK    1  A    between atoms: C_4  and  O_5
REMARK    2  A    between atoms: C_11  and  C_12
REMARK    3  A    between atoms: C_12  and  C_13
REMARK    4  A    between atoms: C_13  and  C_14
REMARK    5  A    between atoms: C_18  and  C_19
REMARK    6  A    between atoms: N_21  and  CA_22
REMARK    7  A    between atoms: CA_22  and  CB_23
REMARK    8  A    between atoms: CA_22  and  C_28
REMARK    9  A    between atoms: CB_23  and  CG_24
REMARK   10  A    between atoms: CG_24  and  CD_25
REMARK   11  A    between atoms: CD_25  and  OE2_27
REMARK   12  A    between atoms: C_28  and  OXT_30
REMARK                            x       y       z     vdW  Elec       q    Type
REMARK                         _______ _______ _______ _____ _____    ______ ____
ROOT
ATOM      1  C   UNK A   0       1.085   9.013  20.328  0.00  0.00    +0.000 A 
ATOM      2  C   UNK A   0       1.192   9.861  19.219  0.00  0.00    +0.000 A 
ATOM      3  C   UNK A   0       1.821   9.424  18.052  0.00  0.00    +0.000 A 
ATOM      4  C   UNK A   0       2.356   8.137  17.983  0.00  0.00    +0.000 A 
ATOM      5  C   UNK A   0       2.272   7.279  19.086  0.00  0.00    +0.000 A 
ATOM      6  C   UNK A   0       1.624   7.719  20.249  0.00  0.00    +0.000 A 
ENDROOT
BRANCH   5   7
ATOM      7  C   UNK A   0       2.809   5.890  19.063  0.00  0.00    +0.000 C 
ATOM      8  O   UNK A   0       2.398   5.045  19.849  0.00  0.00    +0.000 OA
ATOM      9  N   GLU A   1       3.766   5.617  18.112  0.00  0.00    +0.000 N 
ATOM     10  H   GLU A   1       4.181   6.370  17.574  0.00  0.00    +0.000 HD
BRANCH   9  11
ATOM     11  CA  GLU A   1       4.309   4.279  17.905  0.00  0.00    +0.000 C 
BRANCH  11  12
ATOM     12  C   GLU A   1       5.289   4.035  19.060  0.00  0.00    +0.000 C 
ATOM     13  O   GLU A   1       6.104   4.873  19.433  0.00  0.00    +0.000 OA
BRANCH  12  14
ATOM     14  OXT GLU A   1       5.155   2.840  19.667  0.00  0.00    +0.000 OA
ATOM     15  HXT GLU A   1       5.779   2.678  20.410  0.00  0.00    +0.000 HD
ENDBRANCH  12  14
ENDBRANCH  11  12
BRANCH  11  16
ATOM     16  CB  GLU A   1       5.035   4.190  16.549  0.00  0.00    +0.000 C 
BRANCH  16  17
ATOM     17  CG  GLU A   1       5.556   5.521  16.018  0.00  0.00    +0.000 C 
BRANCH  17  18
ATOM     18  CD  GLU A   1       7.010   5.688  16.356  0.00  0.00    +0.000 C 
ATOM     19  OE1 GLU A   1       7.534   6.790  16.459  0.00  0.00    +0.000 OA
BRANCH  18  20
ATOM     20  OE2 GLU A   1       7.648   4.535  16.628  0.00  0.00    +0.000 OA
ATOM     21  HE2 GLU A   1       7.617   3.871  15.912  0.00  0.00    +0.000 HD
ENDBRANCH  18  20
ENDBRANCH  17  18
ENDBRANCH  16  17
ENDBRANCH  11  16
ENDBRANCH   9  11
ENDBRANCH   5   7
BRANCH   1  22
ATOM     22  C   UNK A   0       0.406   9.487  21.592  0.00  0.00    +0.000 C 
BRANCH  22  23
ATOM     23  C   UNK A   0       0.145  10.993  21.540  0.00  0.00    +0.000 C 
BRANCH  23  33
ATOM     24  N   UNK A   0      -7.161  14.095  21.893  0.00  0.00    +0.000 N 
ATOM     25  C   UNK A   0      -5.898  13.614  22.161  0.00  0.00    +0.000 A 
ATOM     26  N   UNK A   0      -5.604  13.374  23.432  0.00  0.00    +0.000 NA
ATOM     27  C   UNK A   0      -4.383  12.861  23.645  0.00  0.00    +0.000 A 
ATOM     28  C   UNK A   0      -3.451  12.582  22.673  0.00  0.00    +0.000 A 
ATOM     29  C   UNK A   0      -3.852  12.921  21.384  0.00  0.00    +0.000 A 
ATOM     30  N   UNK A   0      -5.062  13.446  21.126  0.00  0.00    +0.000 NA
ATOM     31  N   UNK A   0      -3.065  12.693  20.264  0.00  0.00    +0.000 N 
ATOM     32  C   UNK A   0      -1.630  12.500  20.404  0.00  0.00    +0.000 C 
ATOM     33  C   UNK A   0      -1.332  11.369  21.402  0.00  0.00    +0.000 C 
ATOM     34  S   UNK A   0      -1.874  11.877  23.079  0.00  0.00    +0.000 S 
ATOM     35  H   UNK A   0      -7.553  14.541  22.709  0.00  0.00    +0.000 HD
ATOM     36  H   UNK A   0      -7.171  14.609  21.024  0.00  0.00    +0.000 HD
ATOM     37  H   UNK A   0      -3.423  13.189  19.452  0.00  0.00    +0.000 HD
BRANCH  27  38
ATOM     38  O   UNK A   0      -4.139  12.623  24.962  0.00  0.00    +0.000 OA
ATOM     39  H   UNK A   0      -4.232  11.652  24.997  0.00  0.00    +0.000 HD
ENDBRANCH  27  38
ENDBRANCH  23  33
ENDBRANCH  22  23
ENDBRANCH   1  22
TORSDOF 12
ENDMDL
