MODEL 1
REMARK VINA RESULT:      -7.0      0.000      0.000
REMARK  Name = 
REMARK  15 active torsions:
REMARK  status: ('A' for Active; 'I' for Inactive)
REMARK    1  A    between atoms: C_1  and  C_2
REMARK    2  A    between atoms: C_2  and  C_3
REMARK    3  A    between atoms: C_3  and  C_4
REMARK    4  A    between atoms: C_4  and  C_5
REMARK    5  A    between atoms: C_5  and  C_6
REMARK    6  A    between atoms: C_6  and  C_7
REMARK    7  A    between atoms: C_7  and  C_8
REMARK    8  A    between atoms: C_8  and  C_9
REMARK    9  A    between atoms: C_9  and  C_10
REMARK   10  A    between atoms: C_10  and  O_11
REMARK   11  A    between atoms: C_10  and  C_12
REMARK   12  A    between atoms: C_12  and  C_13
REMARK   13  A    between atoms: C_12  and  N_15
REMARK   14  A    between atoms: C_13  and  O_14
REMARK   15  A    between atoms: C_17  and  C_18
REMARK                            x       y       z     vdW  Elec       q    Type
REMARK                         _______ _______ _______ _____ _____    ______ ____
ROOT
ATOM      1  C   UNL     1       6.853   4.737  17.834  0.00  0.00    +0.000 C 
ENDROOT
BRANCH   1   2
ATOM      2  N   UNL     1       6.792   4.650  16.381  0.00  0.00    +0.000 N 
ATOM      3  C   UNL     1       6.033   3.824  15.601  0.00  0.00    +0.000 A 
ATOM      4  C   UNL     1       6.390   4.166  14.310  0.00  0.00    +0.000 A 
ATOM      5  N   UNL     1       7.328   5.168  14.360  0.00  0.00    +0.000 NA
ATOM      6  N   UNL     1       7.565   5.458  15.631  0.00  0.00    +0.000 NA
BRANCH   4   7
ATOM      7  C   UNL     1       5.902   3.578  13.080  0.00  0.00    +0.000 A 
ATOM      8  C   UNL     1       4.627   3.866  12.571  0.00  0.00    +0.000 A 
ATOM      9  C   UNL     1       4.170   3.254  11.400  0.00  0.00    +0.000 A 
ATOM     10  C   UNL     1       4.986   2.353  10.718  0.00  0.00    +0.000 A 
ATOM     11  C   UNL     1       6.260   2.067  11.201  0.00  0.00    +0.000 A 
ATOM     12  C   UNL     1       6.717   2.678  12.372  0.00  0.00    +0.000 A 
ENDBRANCH   4   7
ENDBRANCH   1   2
BRANCH   1  13
ATOM     13  C   UNL     1       5.474   4.489  18.484  0.00  0.00    +0.000 C 
BRANCH  13  14
ATOM     14  O   UNL     1       5.564   3.500  19.521  0.00  0.00    +0.000 OA
ATOM     15  H   UNL     1       4.674   3.353  19.889  0.00  0.00    +0.000 HD
ENDBRANCH  13  14
BRANCH  13  16
ATOM     16  C   UNL     1       4.769   5.746  19.032  0.00  0.00    +0.000 C 
BRANCH  16  17
ATOM     17  C   UNL     1       3.622   6.279  18.168  0.00  0.00    +0.000 C 
BRANCH  17  18
ATOM     18  C   UNL     1       2.224   5.879  18.647  0.00  0.00    +0.000 C 
BRANCH  18  19
ATOM     19  C   UNL     1       2.170   5.732  20.164  0.00  0.00    +0.000 C 
BRANCH  19  20
ATOM     20  C   UNL     1       1.318   4.541  20.581  0.00  0.00    +0.000 C 
BRANCH  20  21
ATOM     21  C   UNL     1       1.068   3.631  19.380  0.00  0.00    +0.000 C 
BRANCH  21  22
ATOM     22  C   UNL     1       1.568   2.220  19.666  0.00  0.00    +0.000 C 
BRANCH  22  24
ATOM     23  C   UNL     1       2.583   2.542  17.405  0.00  0.00    +0.000 C 
ATOM     24  C   UNL     1       2.721   1.843  18.745  0.00  0.00    +0.000 C 
ENDBRANCH  22  24
ENDBRANCH  21  22
ENDBRANCH  20  21
ENDBRANCH  19  20
ENDBRANCH  18  19
ENDBRANCH  17  18
ENDBRANCH  16  17
ENDBRANCH  13  16
ENDBRANCH   1  13
BRANCH   1  25
ATOM     25  C   UNL     1       7.462   6.074  18.292  0.00  0.00    +0.000 C 
BRANCH  25  26
ATOM     26  O   UNL     1       8.180   5.938  19.517  0.00  0.00    +0.000 OA
ATOM     27  H   UNL     1       7.916   5.098  19.936  0.00  0.00    +0.000 HD
ENDBRANCH  25  26
ENDBRANCH   1  25
TORSDOF 14
ENDMDL
MODEL 2
REMARK VINA RESULT:      -7.0      1.326      2.313
REMARK  Name = 
REMARK  15 active torsions:
REMARK  status: ('A' for Active; 'I' for Inactive)
REMARK    1  A    between atoms: C_1  and  C_2
REMARK    2  A    between atoms: C_2  and  C_3
REMARK    3  A    between atoms: C_3  and  C_4
REMARK    4  A    between atoms: C_4  and  C_5
REMARK    5  A    between atoms: C_5  and  C_6
REMARK    6  A    between atoms: C_6  and  C_7
REMARK    7  A    between atoms: C_7  and  C_8
REMARK    8  A    between atoms: C_8  and  C_9
REMARK    9  A    between atoms: C_9  and  C_10
REMARK   10  A    between atoms: C_10  and  O_11
REMARK   11  A    between atoms: C_10  and  C_12
REMARK   12  A    between atoms: C_12  and  C_13
REMARK   13  A    between atoms: C_12  and  N_15
REMARK   14  A    between atoms: C_13  and  O_14
REMARK   15  A    between atoms: C_17  and  C_18
REMARK                            x       y       z     vdW  Elec       q    Type
REMARK                         _______ _______ _______ _____ _____    ______ ____
ROOT
ATOM      1  C   UNL     1       7.619   5.974  17.767  0.00  0.00    +0.000 C 
ENDROOT
BRANCH   1   2
ATOM      2  N   UNL     1       6.928   5.671  16.521  0.00  0.00    +0.000 N 
ATOM      3  C   UNL     1       7.116   4.620  15.668  0.00  0.00    +0.000 A 
ATOM      4  C   UNL     1       6.203   4.847  14.655  0.00  0.00    +0.000 A 
ATOM      5  N   UNL     1       5.510   6.000  14.933  0.00  0.00    +0.000 NA
ATOM      6  N   UNL     1       5.959   6.494  16.077  0.00  0.00    +0.000 NA
BRANCH   4   7
ATOM      7  C   UNL     1       5.992   4.045  13.467  0.00  0.00    +0.000 A 
ATOM      8  C   UNL     1       7.058   3.476  12.754  0.00  0.00    +0.000 A 
ATOM      9  C   UNL     1       6.825   2.737  11.590  0.00  0.00    +0.000 A 
ATOM     10  C   UNL     1       5.523   2.552  11.130  0.00  0.00    +0.000 A 
ATOM     11  C   UNL     1       4.452   3.097  11.834  0.00  0.00    +0.000 A 
ATOM     12  C   UNL     1       4.685   3.835  12.997  0.00  0.00    +0.000 A 
ENDBRANCH   4   7
ENDBRANCH   1   2
BRANCH   1  13
ATOM     13  C   UNL     1       7.032   5.184  18.958  0.00  0.00    +0.000 C 
BRANCH  13  14
ATOM     14  O   UNL     1       7.639   5.591  20.194  0.00  0.00    +0.000 OA
ATOM     15  H   UNL     1       7.689   4.818  20.785  0.00  0.00    +0.000 HD
ENDBRANCH  13  14
BRANCH  13  16
ATOM     16  C   UNL     1       5.498   5.244  19.095  0.00  0.00    +0.000 C 
BRANCH  16  17
ATOM     17  C   UNL     1       4.779   3.895  18.976  0.00  0.00    +0.000 C 
BRANCH  17  18
ATOM     18  C   UNL     1       4.215   3.595  17.586  0.00  0.00    +0.000 C 
BRANCH  18  19
ATOM     19  C   UNL     1       2.692   3.677  17.567  0.00  0.00    +0.000 C 
BRANCH  19  20
ATOM     20  C   UNL     1       2.055   2.373  18.030  0.00  0.00    +0.000 C 
BRANCH  20  21
ATOM     21  C   UNL     1       0.993   2.659  19.090  0.00  0.00    +0.000 C 
BRANCH  21  22
ATOM     22  C   UNL     1       1.165   4.065  19.653  0.00  0.00    +0.000 C 
BRANCH  22  24
ATOM     23  C   UNL     1       1.636   2.620  21.637  0.00  0.00    +0.000 C 
ATOM     24  C   UNL     1       1.695   4.030  21.080  0.00  0.00    +0.000 C 
ENDBRANCH  22  24
ENDBRANCH  21  22
ENDBRANCH  20  21
ENDBRANCH  19  20
ENDBRANCH  18  19
ENDBRANCH  17  18
ENDBRANCH  16  17
ENDBRANCH  13  16
ENDBRANCH   1  13
BRANCH   1  25
ATOM     25  C   UNL     1       7.637   7.487  18.046  0.00  0.00    +0.000 C 
BRANCH  25  26
ATOM     26  O   UNL     1       8.683   7.848  18.946  0.00  0.00    +0.000 OA
ATOM     27  H   UNL     1       8.518   7.409  19.801  0.00  0.00    +0.000 HD
ENDBRANCH  25  26
ENDBRANCH   1  25
TORSDOF 14
ENDMDL
MODEL 3
REMARK VINA RESULT:      -6.6      1.308      2.149
REMARK  Name = 
REMARK  15 active torsions:
REMARK  status: ('A' for Active; 'I' for Inactive)
REMARK    1  A    between atoms: C_1  and  C_2
REMARK    2  A    between atoms: C_2  and  C_3
REMARK    3  A    between atoms: C_3  and  C_4
REMARK    4  A    between atoms: C_4  and  C_5
REMARK    5  A    between atoms: C_5  and  C_6
REMARK    6  A    between atoms: C_6  and  C_7
REMARK    7  A    between atoms: C_7  and  C_8
REMARK    8  A    between atoms: C_8  and  C_9
REMARK    9  A    between atoms: C_9  and  C_10
REMARK   10  A    between atoms: C_10  and  O_11
REMARK   11  A    between atoms: C_10  and  C_12
REMARK   12  A    between atoms: C_12  and  C_13
REMARK   13  A    between atoms: C_12  and  N_15
REMARK   14  A    between atoms: C_13  and  O_14
REMARK   15  A    between atoms: C_17  and  C_18
REMARK                            x       y       z     vdW  Elec       q    Type
REMARK                         _______ _______ _______ _____ _____    ______ ____
ROOT
ATOM      1  C   UNL     1       7.492   5.798  17.945  0.00  0.00    +0.000 C 
ENDROOT
BRANCH   1   2
ATOM      2  N   UNL     1       6.836   5.571  16.664  0.00  0.00    +0.000 N 
ATOM      3  C   UNL     1       7.046   4.572  15.756  0.00  0.00    +0.000 A 
ATOM      4  C   UNL     1       6.164   4.862  14.733  0.00  0.00    +0.000 A 
ATOM      5  N   UNL     1       5.466   5.999  15.058  0.00  0.00    +0.000 NA
ATOM      6  N   UNL     1       5.883   6.424  16.242  0.00  0.00    +0.000 NA
BRANCH   4   7
ATOM      7  C   UNL     1       5.986   4.132  13.494  0.00  0.00    +0.000 A 
ATOM      8  C   UNL     1       4.714   3.823  12.988  0.00  0.00    +0.000 A 
ATOM      9  C   UNL     1       4.574   3.086  11.809  0.00  0.00    +0.000 A 
ATOM     10  C   UNL     1       5.704   2.654  11.117  0.00  0.00    +0.000 A 
ATOM     11  C   UNL     1       6.974   2.965  11.597  0.00  0.00    +0.000 A 
ATOM     12  C   UNL     1       7.114   3.702  12.776  0.00  0.00    +0.000 A 
ENDBRANCH   4   7
ENDBRANCH   1   2
BRANCH   1  13
ATOM     13  C   UNL     1       6.676   5.215  19.121  0.00  0.00    +0.000 C 
BRANCH  13  14
ATOM     14  O   UNL     1       7.426   5.271  20.344  0.00  0.00    +0.000 OA
ATOM     15  H   UNL     1       6.832   5.563  21.059  0.00  0.00    +0.000 HD
ENDBRANCH  13  14
BRANCH  13  16
ATOM     16  C   UNL     1       5.289   5.850  19.338  0.00  0.00    +0.000 C 
BRANCH  16  17
ATOM     17  C   UNL     1       4.103   4.890  19.198  0.00  0.00    +0.000 C 
BRANCH  17  18
ATOM     18  C   UNL     1       4.311   3.763  18.184  0.00  0.00    +0.000 C 
BRANCH  18  19
ATOM     19  C   UNL     1       3.021   3.424  17.446  0.00  0.00    +0.000 C 
BRANCH  19  20
ATOM     20  C   UNL     1       2.575   1.995  17.725  0.00  0.00    +0.000 C 
BRANCH  20  21
ATOM     21  C   UNL     1       1.976   1.898  19.126  0.00  0.00    +0.000 C 
BRANCH  21  22
ATOM     22  C   UNL     1       0.851   2.913  19.297  0.00  0.00    +0.000 C 
BRANCH  22  24
ATOM     23  C   UNL     1       1.924   2.959  21.554  0.00  0.00    +0.000 C 
ATOM     24  C   UNL     1       0.998   3.690  20.599  0.00  0.00    +0.000 C 
ENDBRANCH  22  24
ENDBRANCH  21  22
ENDBRANCH  20  21
ENDBRANCH  19  20
ENDBRANCH  18  19
ENDBRANCH  17  18
ENDBRANCH  16  17
ENDBRANCH  13  16
ENDBRANCH   1  13
BRANCH   1  25
ATOM     25  C   UNL     1       7.806   7.289  18.160  0.00  0.00    +0.000 C 
BRANCH  25  26
ATOM     26  O   UNL     1       7.959   7.983  16.923  0.00  0.00    +0.000 OA
ATOM     27  H   UNL     1       8.173   7.331  16.230  0.00  0.00    +0.000 HD
ENDBRANCH  25  26
ENDBRANCH   1  25
TORSDOF 14
ENDMDL
MODEL 4
REMARK VINA RESULT:      -6.5      0.952      1.125
REMARK  Name = 
REMARK  15 active torsions:
REMARK  status: ('A' for Active; 'I' for Inactive)
REMARK    1  A    between atoms: C_1  and  C_2
REMARK    2  A    between atoms: C_2  and  C_3
REMARK    3  A    between atoms: C_3  and  C_4
REMARK    4  A    between atoms: C_4  and  C_5
REMARK    5  A    between atoms: C_5  and  C_6
REMARK    6  A    between atoms: C_6  and  C_7
REMARK    7  A    between atoms: C_7  and  C_8
REMARK    8  A    between atoms: C_8  and  C_9
REMARK    9  A    between atoms: C_9  and  C_10
REMARK   10  A    between atoms: C_10  and  O_11
REMARK   11  A    between atoms: C_10  and  C_12
REMARK   12  A    between atoms: C_12  and  C_13
REMARK   13  A    between atoms: C_12  and  N_15
REMARK   14  A    between atoms: C_13  and  O_14
REMARK   15  A    between atoms: C_17  and  C_18
REMARK                            x       y       z     vdW  Elec       q    Type
REMARK                         _______ _______ _______ _____ _____    ______ ____
ROOT
ATOM      1  C   UNL     1       6.976   4.945  17.695  0.00  0.00    +0.000 C 
ENDROOT
BRANCH   1   2
ATOM      2  N   UNL     1       6.846   4.826  16.249  0.00  0.00    +0.000 N 
ATOM      3  C   UNL     1       6.164   3.892  15.521  0.00  0.00    +0.000 A 
ATOM      4  C   UNL     1       6.397   4.258  14.209  0.00  0.00    +0.000 A 
ATOM      5  N   UNL     1       7.191   5.380  14.196  0.00  0.00    +0.000 NA
ATOM      6  N   UNL     1       7.458   5.719  15.448  0.00  0.00    +0.000 NA
BRANCH   4   7
ATOM      7  C   UNL     1       5.925   3.590  13.014  0.00  0.00    +0.000 A 
ATOM      8  C   UNL     1       4.650   3.830  12.481  0.00  0.00    +0.000 A 
ATOM      9  C   UNL     1       4.209   3.142  11.346  0.00  0.00    +0.000 A 
ATOM     10  C   UNL     1       5.040   2.211  10.727  0.00  0.00    +0.000 A 
ATOM     11  C   UNL     1       6.315   1.972  11.234  0.00  0.00    +0.000 A 
ATOM     12  C   UNL     1       6.756   2.659  12.367  0.00  0.00    +0.000 A 
ENDBRANCH   4   7
ENDBRANCH   1   2
BRANCH   1  13
ATOM     13  C   UNL     1       5.612   4.818  18.409  0.00  0.00    +0.000 C 
BRANCH  13  14
ATOM     14  O   UNL     1       5.765   4.916  19.833  0.00  0.00    +0.000 OA
ATOM     15  H   UNL     1       5.107   4.336  20.257  0.00  0.00    +0.000 HD
ENDBRANCH  13  14
BRANCH  13  16
ATOM     16  C   UNL     1       4.529   5.809  17.938  0.00  0.00    +0.000 C 
BRANCH  16  17
ATOM     17  C   UNL     1       3.107   5.498  18.418  0.00  0.00    +0.000 C 
BRANCH  17  18
ATOM     18  C   UNL     1       2.613   6.386  19.562  0.00  0.00    +0.000 C 
BRANCH  18  19
ATOM     19  C   UNL     1       1.815   5.590  20.589  0.00  0.00    +0.000 C 
BRANCH  19  20
ATOM     20  C   UNL     1       1.210   4.334  19.976  0.00  0.00    +0.000 C 
BRANCH  20  21
ATOM     21  C   UNL     1       1.226   3.196  20.995  0.00  0.00    +0.000 C 
BRANCH  21  22
ATOM     22  C   UNL     1       2.659   2.802  21.333  0.00  0.00    +0.000 C 
BRANCH  22  24
ATOM     23  C   UNL     1       4.747   1.716  20.491  0.00  0.00    +0.000 C 
ATOM     24  C   UNL     1       3.400   2.297  20.102  0.00  0.00    +0.000 C 
ENDBRANCH  22  24
ENDBRANCH  21  22
ENDBRANCH  20  21
ENDBRANCH  19  20
ENDBRANCH  18  19
ENDBRANCH  17  18
ENDBRANCH  16  17
ENDBRANCH  13  16
ENDBRANCH   1  13
BRANCH   1  25
ATOM     25  C   UNL     1       7.702   6.242  18.090  0.00  0.00    +0.000 C 
BRANCH  25  26
ATOM     26  O   UNL     1       8.190   6.191  19.429  0.00  0.00    +0.000 OA
ATOM     27  H   UNL     1       8.014   5.301  19.787  0.00  0.00    +0.000 HD
ENDBRANCH  25  26
ENDBRANCH   1  25
TORSDOF 14
ENDMDL
MODEL 5
REMARK VINA RESULT:      -6.5      3.719      7.122
REMARK  Name = 
REMARK  15 active torsions:
REMARK  status: ('A' for Active; 'I' for Inactive)
REMARK    1  A    between atoms: C_1  and  C_2
REMARK    2  A    between atoms: C_2  and  C_3
REMARK    3  A    between atoms: C_3  and  C_4
REMARK    4  A    between atoms: C_4  and  C_5
REMARK    5  A    between atoms: C_5  and  C_6
REMARK    6  A    between atoms: C_6  and  C_7
REMARK    7  A    between atoms: C_7  and  C_8
REMARK    8  A    between atoms: C_8  and  C_9
REMARK    9  A    between atoms: C_9  and  C_10
REMARK   10  A    between atoms: C_10  and  O_11
REMARK   11  A    between atoms: C_10  and  C_12
REMARK   12  A    between atoms: C_12  and  C_13
REMARK   13  A    between atoms: C_12  and  N_15
REMARK   14  A    between atoms: C_13  and  O_14
REMARK   15  A    between atoms: C_17  and  C_18
REMARK                            x       y       z     vdW  Elec       q    Type
REMARK                         _______ _______ _______ _____ _____    ______ ____
ROOT
ATOM      1  C   UNL     1       7.436   5.974  17.996  0.00  0.00    +0.000 C 
ENDROOT
BRANCH   1   2
ATOM      2  N   UNL     1       7.788   7.387  18.031  0.00  0.00    +0.000 N 
ATOM      3  C   UNL     1       8.720   8.022  18.802  0.00  0.00    +0.000 A 
ATOM      4  C   UNL     1       8.613   9.349  18.428  0.00  0.00    +0.000 A 
ATOM      5  N   UNL     1       7.644   9.460  17.461  0.00  0.00    +0.000 NA
ATOM      6  N   UNL     1       7.147   8.255  17.224  0.00  0.00    +0.000 NA
BRANCH   4   7
ATOM      7  C   UNL     1       9.360  10.472  18.955  0.00  0.00    +0.000 A 
ATOM      8  C   UNL     1       9.427  10.743  20.330  0.00  0.00    +0.000 A 
ATOM      9  C   UNL     1      10.126  11.857  20.805  0.00  0.00    +0.000 A 
ATOM     10  C   UNL     1      10.772  12.709  19.912  0.00  0.00    +0.000 A 
ATOM     11  C   UNL     1      10.729  12.446  18.546  0.00  0.00    +0.000 A 
ATOM     12  C   UNL     1      10.031  11.334  18.070  0.00  0.00    +0.000 A 
ENDBRANCH   4   7
ENDBRANCH   1   2
BRANCH   1  13
ATOM     13  C   UNL     1       6.582   5.623  16.757  0.00  0.00    +0.000 C 
BRANCH  13  14
ATOM     14  O   UNL     1       7.289   5.922  15.544  0.00  0.00    +0.000 OA
ATOM     15  H   UNL     1       8.192   5.564  15.615  0.00  0.00    +0.000 HD
ENDBRANCH  13  14
BRANCH  13  16
ATOM     16  C   UNL     1       6.062   4.174  16.706  0.00  0.00    +0.000 C 
BRANCH  16  17
ATOM     17  C   UNL     1       4.537   4.029  16.648  0.00  0.00    +0.000 C 
BRANCH  17  18
ATOM     18  C   UNL     1       3.962   2.972  17.593  0.00  0.00    +0.000 C 
BRANCH  18  19
ATOM     19  C   UNL     1       2.460   3.148  17.787  0.00  0.00    +0.000 C 
BRANCH  19  20
ATOM     20  C   UNL     1       2.050   4.611  17.685  0.00  0.00    +0.000 C 
BRANCH  20  21
ATOM     21  C   UNL     1       2.226   5.299  19.037  0.00  0.00    +0.000 C 
BRANCH  21  22
ATOM     22  C   UNL     1       3.017   6.592  18.879  0.00  0.00    +0.000 C 
BRANCH  22  24
ATOM     23  C   UNL     1       2.069   8.634  17.792  0.00  0.00    +0.000 C 
ATOM     24  C   UNL     1       2.127   7.813  19.068  0.00  0.00    +0.000 C 
ENDBRANCH  22  24
ENDBRANCH  21  22
ENDBRANCH  20  21
ENDBRANCH  19  20
ENDBRANCH  18  19
ENDBRANCH  17  18
ENDBRANCH  16  17
ENDBRANCH  13  16
ENDBRANCH   1  13
BRANCH   1  25
ATOM     25  C   UNL     1       6.748   5.534  19.300  0.00  0.00    +0.000 C 
BRANCH  25  26
ATOM     26  O   UNL     1       7.683   5.367  20.364  0.00  0.00    +0.000 OA
ATOM     27  H   UNL     1       7.186   5.252  21.195  0.00  0.00    +0.000 HD
ENDBRANCH  25  26
ENDBRANCH   1  25
TORSDOF 14
ENDMDL
MODEL 6
REMARK VINA RESULT:      -6.4      1.977      7.059
REMARK  Name = 
REMARK  15 active torsions:
REMARK  status: ('A' for Active; 'I' for Inactive)
REMARK    1  A    between atoms: C_1  and  C_2
REMARK    2  A    between atoms: C_2  and  C_3
REMARK    3  A    between atoms: C_3  and  C_4
REMARK    4  A    between atoms: C_4  and  C_5
REMARK    5  A    between atoms: C_5  and  C_6
REMARK    6  A    between atoms: C_6  and  C_7
REMARK    7  A    between atoms: C_7  and  C_8
REMARK    8  A    between atoms: C_8  and  C_9
REMARK    9  A    between atoms: C_9  and  C_10
REMARK   10  A    between atoms: C_10  and  O_11
REMARK   11  A    between atoms: C_10  and  C_12
REMARK   12  A    between atoms: C_12  and  C_13
REMARK   13  A    between atoms: C_12  and  N_15
REMARK   14  A    between atoms: C_13  and  O_14
REMARK   15  A    between atoms: C_17  and  C_18
REMARK                            x       y       z     vdW  Elec       q    Type
REMARK                         _______ _______ _______ _____ _____    ______ ____
ROOT
ATOM      1  C   UNL     1       6.574   6.127  16.525  0.00  0.00    +0.000 C 
ENDROOT
BRANCH   1   2
ATOM      2  N   UNL     1       5.316   5.928  17.233  0.00  0.00    +0.000 N 
ATOM      3  C   UNL     1       4.911   4.858  17.981  0.00  0.00    +0.000 A 
ATOM      4  C   UNL     1       3.639   5.206  18.396  0.00  0.00    +0.000 A 
ATOM      5  N   UNL     1       3.335   6.449  17.897  0.00  0.00    +0.000 NA
ATOM      6  N   UNL     1       4.367   6.882  17.190  0.00  0.00    +0.000 NA
BRANCH   4   7
ATOM      7  C   UNL     1       2.732   4.415  19.202  0.00  0.00    +0.000 A 
ATOM      8  C   UNL     1       1.797   3.540  18.630  0.00  0.00    +0.000 A 
ATOM      9  C   UNL     1       0.910   2.817  19.434  0.00  0.00    +0.000 A 
ATOM     10  C   UNL     1       0.952   2.956  20.820  0.00  0.00    +0.000 A 
ATOM     11  C   UNL     1       1.884   3.809  21.405  0.00  0.00    +0.000 A 
ATOM     12  C   UNL     1       2.771   4.532  20.602  0.00  0.00    +0.000 A 
ENDBRANCH   4   7
ENDBRANCH   1   2
BRANCH   1  13
ATOM     13  C   UNL     1       7.162   4.794  16.010  0.00  0.00    +0.000 C 
BRANCH  13  14
ATOM     14  O   UNL     1       7.948   4.152  17.026  0.00  0.00    +0.000 OA
ATOM     15  H   UNL     1       8.883   4.394  16.894  0.00  0.00    +0.000 HD
ENDBRANCH  13  14
BRANCH  13  16
ATOM     16  C   UNL     1       6.133   3.794  15.449  0.00  0.00    +0.000 C 
BRANCH  16  17
ATOM     17  C   UNL     1       5.426   4.239  14.164  0.00  0.00    +0.000 C 
BRANCH  17  18
ATOM     18  C   UNL     1       6.268   4.101  12.893  0.00  0.00    +0.000 C 
BRANCH  18  19
ATOM     19  C   UNL     1       6.354   2.651  12.429  0.00  0.00    +0.000 C 
BRANCH  19  20
ATOM     20  C   UNL     1       5.282   2.329  11.397  0.00  0.00    +0.000 C 
BRANCH  20  21
ATOM     21  C   UNL     1       4.164   3.367  11.463  0.00  0.00    +0.000 C 
BRANCH  21  22
ATOM     22  C   UNL     1       3.978   4.039  10.108  0.00  0.00    +0.000 C 
BRANCH  22  24
ATOM     23  C   UNL     1       2.082   5.123   8.893  0.00  0.00    +0.000 C 
ATOM     24  C   UNL     1       2.557   3.862   9.590  0.00  0.00    +0.000 C 
ENDBRANCH  22  24
ENDBRANCH  21  22
ENDBRANCH  20  21
ENDBRANCH  19  20
ENDBRANCH  18  19
ENDBRANCH  17  18
ENDBRANCH  16  17
ENDBRANCH  13  16
ENDBRANCH   1  13
BRANCH   1  25
ATOM     25  C   UNL     1       7.589   6.897  17.387  0.00  0.00    +0.000 C 
BRANCH  25  26
ATOM     26  O   UNL     1       7.192   8.251  17.593  0.00  0.00    +0.000 OA
ATOM     27  H   UNL     1       7.789   8.650  18.252  0.00  0.00    +0.000 HD
ENDBRANCH  25  26
ENDBRANCH   1  25
TORSDOF 14
ENDMDL
MODEL 7
REMARK VINA RESULT:      -6.4      4.161      8.395
REMARK  Name = 
REMARK  15 active torsions:
REMARK  status: ('A' for Active; 'I' for Inactive)
REMARK    1  A    between atoms: C_1  and  C_2
REMARK    2  A    between atoms: C_2  and  C_3
REMARK    3  A    between atoms: C_3  and  C_4
REMARK    4  A    between atoms: C_4  and  C_5
REMARK    5  A    between atoms: C_5  and  C_6
REMARK    6  A    between atoms: C_6  and  C_7
REMARK    7  A    between atoms: C_7  and  C_8
REMARK    8  A    between atoms: C_8  and  C_9
REMARK    9  A    between atoms: C_9  and  C_10
REMARK   10  A    between atoms: C_10  and  O_11
REMARK   11  A    between atoms: C_10  and  C_12
REMARK   12  A    between atoms: C_12  and  C_13
REMARK   13  A    between atoms: C_12  and  N_15
REMARK   14  A    between atoms: C_13  and  O_14
REMARK   15  A    between atoms: C_17  and  C_18
REMARK                            x       y       z     vdW  Elec       q    Type
REMARK                         _______ _______ _______ _____ _____    ______ ____
ROOT
ATOM      1  C   UNL     1       6.672   5.105  16.557  0.00  0.00    +0.000 C 
ENDROOT
BRANCH   1   2
ATOM      2  N   UNL     1       5.444   4.554  17.114  0.00  0.00    +0.000 N 
ATOM      3  C   UNL     1       5.053   4.476  18.421  0.00  0.00    +0.000 A 
ATOM      4  C   UNL     1       3.820   3.853  18.362  0.00  0.00    +0.000 A 
ATOM      5  N   UNL     1       3.519   3.590  17.048  0.00  0.00    +0.000 NA
ATOM      6  N   UNL     1       4.518   4.024  16.293  0.00  0.00    +0.000 NA
BRANCH   4   7
ATOM      7  C   UNL     1       2.963   3.496  19.473  0.00  0.00    +0.000 A 
ATOM      8  C   UNL     1       3.433   2.757  20.569  0.00  0.00    +0.000 A 
ATOM      9  C   UNL     1       2.572   2.396  21.610  0.00  0.00    +0.000 A 
ATOM     10  C   UNL     1       1.232   2.776  21.571  0.00  0.00    +0.000 A 
ATOM     11  C   UNL     1       0.752   3.522  20.498  0.00  0.00    +0.000 A 
ATOM     12  C   UNL     1       1.612   3.883  19.458  0.00  0.00    +0.000 A 
ENDBRANCH   4   7
ENDBRANCH   1   2
BRANCH   1  13
ATOM     13  C   UNL     1       6.541   6.615  16.255  0.00  0.00    +0.000 C 
BRANCH  13  14
ATOM     14  O   UNL     1       5.320   6.894  15.553  0.00  0.00    +0.000 OA
ATOM     15  H   UNL     1       4.665   6.210  15.784  0.00  0.00    +0.000 HD
ENDBRANCH  13  14
BRANCH  13  16
ATOM     16  C   UNL     1       6.653   7.543  17.479  0.00  0.00    +0.000 C 
BRANCH  16  17
ATOM     17  C   UNL     1       8.078   7.981  17.837  0.00  0.00    +0.000 C 
BRANCH  17  18
ATOM     18  C   UNL     1       8.268   9.495  17.952  0.00  0.00    +0.000 C 
BRANCH  18  19
ATOM     19  C   UNL     1       9.180   9.861  19.118  0.00  0.00    +0.000 C 
BRANCH  19  20
ATOM     20  C   UNL     1       9.604  11.323  19.060  0.00  0.00    +0.000 C 
BRANCH  20  21
ATOM     21  C   UNL     1      10.619  11.527  17.937  0.00  0.00    +0.000 C 
BRANCH  21  22
ATOM     22  C   UNL     1      10.513  12.939  17.373  0.00  0.00    +0.000 C 
BRANCH  22  24
ATOM     23  C   UNL     1      11.713  14.370  19.034  0.00  0.00    +0.000 C 
ATOM     24  C   UNL     1      10.357  13.970  18.483  0.00  0.00    +0.000 C 
ENDBRANCH  22  24
ENDBRANCH  21  22
ENDBRANCH  20  21
ENDBRANCH  19  20
ENDBRANCH  18  19
ENDBRANCH  17  18
ENDBRANCH  16  17
ENDBRANCH  13  16
ENDBRANCH   1  13
BRANCH   1  25
ATOM     25  C   UNL     1       7.131   4.318  15.317  0.00  0.00    +0.000 C 
BRANCH  25  26
ATOM     26  O   UNL     1       6.433   4.726  14.142  0.00  0.00    +0.000 OA
ATOM     27  H   UNL     1       5.506   4.910  14.383  0.00  0.00    +0.000 HD
ENDBRANCH  25  26
ENDBRANCH   1  25
TORSDOF 14
ENDMDL
MODEL 8
REMARK VINA RESULT:      -6.4      1.106      1.788
REMARK  Name = 
REMARK  15 active torsions:
REMARK  status: ('A' for Active; 'I' for Inactive)
REMARK    1  A    between atoms: C_1  and  C_2
REMARK    2  A    between atoms: C_2  and  C_3
REMARK    3  A    between atoms: C_3  and  C_4
REMARK    4  A    between atoms: C_4  and  C_5
REMARK    5  A    between atoms: C_5  and  C_6
REMARK    6  A    between atoms: C_6  and  C_7
REMARK    7  A    between atoms: C_7  and  C_8
REMARK    8  A    between atoms: C_8  and  C_9
REMARK    9  A    between atoms: C_9  and  C_10
REMARK   10  A    between atoms: C_10  and  O_11
REMARK   11  A    between atoms: C_10  and  C_12
REMARK   12  A    between atoms: C_12  and  C_13
REMARK   13  A    between atoms: C_12  and  N_15
REMARK   14  A    between atoms: C_13  and  O_14
REMARK   15  A    between atoms: C_17  and  C_18
REMARK                            x       y       z     vdW  Elec       q    Type
REMARK                         _______ _______ _______ _____ _____    ______ ____
ROOT
ATOM      1  C   UNL     1       6.555   5.602  17.451  0.00  0.00    +0.000 C 
ENDROOT
BRANCH   1   2
ATOM      2  N   UNL     1       6.628   5.202  16.052  0.00  0.00    +0.000 N 
ATOM      3  C   UNL     1       5.810   4.356  15.357  0.00  0.00    +0.000 A 
ATOM      4  C   UNL     1       6.356   4.338  14.087  0.00  0.00    +0.000 A 
ATOM      5  N   UNL     1       7.456   5.160  14.064  0.00  0.00    +0.000 NA
ATOM      6  N   UNL     1       7.612   5.685  15.270  0.00  0.00    +0.000 NA
BRANCH   4   7
ATOM      7  C   UNL     1       5.894   3.576  12.945  0.00  0.00    +0.000 A 
ATOM      8  C   UNL     1       6.709   2.634  12.299  0.00  0.00    +0.000 A 
ATOM      9  C   UNL     1       6.248   1.941  11.176  0.00  0.00    +0.000 A 
ATOM     10  C   UNL     1       4.963   2.175  10.690  0.00  0.00    +0.000 A 
ATOM     11  C   UNL     1       4.136   3.095  11.328  0.00  0.00    +0.000 A 
ATOM     12  C   UNL     1       4.596   3.788  12.450  0.00  0.00    +0.000 A 
ENDBRANCH   4   7
ENDBRANCH   1   2
BRANCH   1  13
ATOM     13  C   UNL     1       5.435   4.853  18.207  0.00  0.00    +0.000 C 
BRANCH  13  14
ATOM     14  O   UNL     1       5.876   3.551  18.622  0.00  0.00    +0.000 OA
ATOM     15  H   UNL     1       5.097   3.028  18.884  0.00  0.00    +0.000 HD
ENDBRANCH  13  14
BRANCH  13  16
ATOM     16  C   UNL     1       4.840   5.603  19.414  0.00  0.00    +0.000 C 
BRANCH  16  17
ATOM     17  C   UNL     1       3.341   5.909  19.320  0.00  0.00    +0.000 C 
BRANCH  17  18
ATOM     18  C   UNL     1       2.829   6.147  17.898  0.00  0.00    +0.000 C 
BRANCH  18  19
ATOM     19  C   UNL     1       1.706   5.182  17.534  0.00  0.00    +0.000 C 
BRANCH  19  20
ATOM     20  C   UNL     1       1.517   4.115  18.604  0.00  0.00    +0.000 C 
BRANCH  20  21
ATOM     21  C   UNL     1       2.192   2.815  18.170  0.00  0.00    +0.000 C 
BRANCH  21  22
ATOM     22  C   UNL     1       2.332   1.865  19.355  0.00  0.00    +0.000 C 
BRANCH  22  24
ATOM     23  C   UNL     1       2.216   2.674  21.717  0.00  0.00    +0.000 C 
ATOM     24  C   UNL     1       3.104   2.513  20.497  0.00  0.00    +0.000 C 
ENDBRANCH  22  24
ENDBRANCH  21  22
ENDBRANCH  20  21
ENDBRANCH  19  20
ENDBRANCH  18  19
ENDBRANCH  17  18
ENDBRANCH  16  17
ENDBRANCH  13  16
ENDBRANCH   1  13
BRANCH   1  25
ATOM     25  C   UNL     1       6.410   7.127  17.594  0.00  0.00    +0.000 C 
BRANCH  25  26
ATOM     26  O   UNL     1       7.565   7.816  17.119  0.00  0.00    +0.000 OA
ATOM     27  H   UNL     1       7.535   8.732  17.453  0.00  0.00    +0.000 HD
ENDBRANCH  25  26
ENDBRANCH   1  25
TORSDOF 14
ENDMDL
MODEL 9
REMARK VINA RESULT:      -6.3      1.170      1.408
REMARK  Name = 
REMARK  15 active torsions:
REMARK  status: ('A' for Active; 'I' for Inactive)
REMARK    1  A    between atoms: C_1  and  C_2
REMARK    2  A    between atoms: C_2  and  C_3
REMARK    3  A    between atoms: C_3  and  C_4
REMARK    4  A    between atoms: C_4  and  C_5
REMARK    5  A    between atoms: C_5  and  C_6
REMARK    6  A    between atoms: C_6  and  C_7
REMARK    7  A    between atoms: C_7  and  C_8
REMARK    8  A    between atoms: C_8  and  C_9
REMARK    9  A    between atoms: C_9  and  C_10
REMARK   10  A    between atoms: C_10  and  O_11
REMARK   11  A    between atoms: C_10  and  C_12
REMARK   12  A    between atoms: C_12  and  C_13
REMARK   13  A    between atoms: C_12  and  N_15
REMARK   14  A    between atoms: C_13  and  O_14
REMARK   15  A    between atoms: C_17  and  C_18
REMARK                            x       y       z     vdW  Elec       q    Type
REMARK                         _______ _______ _______ _____ _____    ______ ____
ROOT
ATOM      1  C   UNL     1       6.086   5.450  17.653  0.00  0.00    +0.000 C 
ENDROOT
BRANCH   1   2
ATOM      2  N   UNL     1       6.358   5.115  16.261  0.00  0.00    +0.000 N 
ATOM      3  C   UNL     1       5.679   4.268  15.432  0.00  0.00    +0.000 A 
ATOM      4  C   UNL     1       6.385   4.328  14.245  0.00  0.00    +0.000 A 
ATOM      5  N   UNL     1       7.439   5.196  14.399  0.00  0.00    +0.000 NA
ATOM      6  N   UNL     1       7.412   5.673  15.635  0.00  0.00    +0.000 NA
BRANCH   4   7
ATOM      7  C   UNL     1       6.112   3.599  13.024  0.00  0.00    +0.000 A 
ATOM      8  C   UNL     1       4.814   3.469  12.508  0.00  0.00    +0.000 A 
ATOM      9  C   UNL     1       4.578   2.728  11.346  0.00  0.00    +0.000 A 
ATOM     10  C   UNL     1       5.638   2.115  10.681  0.00  0.00    +0.000 A 
ATOM     11  C   UNL     1       6.934   2.247  11.171  0.00  0.00    +0.000 A 
ATOM     12  C   UNL     1       7.171   2.987  12.332  0.00  0.00    +0.000 A 
ENDBRANCH   4   7
ENDBRANCH   1   2
BRANCH   1  13
ATOM     13  C   UNL     1       5.344   6.799  17.786  0.00  0.00    +0.000 C 
BRANCH  13  14
ATOM     14  O   UNL     1       5.882   7.774  16.879  0.00  0.00    +0.000 OA
ATOM     15  H   UNL     1       5.571   8.656  17.151  0.00  0.00    +0.000 HD
ENDBRANCH  13  14
BRANCH  13  16
ATOM     16  C   UNL     1       3.814   6.728  17.615  0.00  0.00    +0.000 C 
BRANCH  16  17
ATOM     17  C   UNL     1       3.117   5.635  18.433  0.00  0.00    +0.000 C 
BRANCH  17  18
ATOM     18  C   UNL     1       3.372   5.706  19.940  0.00  0.00    +0.000 C 
BRANCH  18  19
ATOM     19  C   UNL     1       2.363   4.872  20.722  0.00  0.00    +0.000 C 
BRANCH  19  20
ATOM     20  C   UNL     1       1.137   4.542  19.881  0.00  0.00    +0.000 C 
BRANCH  20  21
ATOM     21  C   UNL     1       0.837   3.046  19.960  0.00  0.00    +0.000 C 
BRANCH  21  22
ATOM     22  C   UNL     1       1.306   2.339  18.693  0.00  0.00    +0.000 C 
BRANCH  22  24
ATOM     23  C   UNL     1       3.603   2.150  17.727  0.00  0.00    +0.000 C 
ATOM     24  C   UNL     1       2.695   1.743  18.873  0.00  0.00    +0.000 C 
ENDBRANCH  22  24
ENDBRANCH  21  22
ENDBRANCH  20  21
ENDBRANCH  19  20
ENDBRANCH  18  19
ENDBRANCH  17  18
ENDBRANCH  16  17
ENDBRANCH  13  16
ENDBRANCH   1  13
BRANCH   1  25
ATOM     25  C   UNL     1       7.370   5.425  18.500  0.00  0.00    +0.000 C 
BRANCH  25  26
ATOM     26  O   UNL     1       8.020   6.694  18.515  0.00  0.00    +0.000 OA
ATOM     27  H   UNL     1       7.447   7.328  18.986  0.00  0.00    +0.000 HD
ENDBRANCH  25  26
ENDBRANCH   1  25
TORSDOF 14
ENDMDL
