MODEL 1
REMARK VINA RESULT:      -8.4      0.000      0.000
REMARK  Name = 
REMARK  9 active torsions:
REMARK  status: ('A' for Active; 'I' for Inactive)
REMARK    1  A    between atoms: C_1  and  O_2
REMARK    2  A    between atoms: O_2  and  C_3
REMARK    3  A    between atoms: C_8  and  C_9
REMARK    4  A    between atoms: C_10  and  C_11
REMARK    5  A    between atoms: C_14  and  C_15
REMARK    6  A    between atoms: C_17  and  C_18
REMARK    7  A    between atoms: C_19  and  C_20
REMARK    8  A    between atoms: C_20  and  C_21
REMARK    9  A    between atoms: N_22  and  N_23
REMARK                            x       y       z     vdW  Elec       q    Type
REMARK                         _______ _______ _______ _____ _____    ______ ____
ROOT
ATOM      1  C   UNL     1       2.999   6.321  18.331  0.00  0.00    +0.000 A 
ATOM      2  N   UNL     1       2.643   5.053  18.284  0.00  0.00    +0.000 NA
ATOM      3  C   UNL     1       3.512   4.316  17.487  0.00  0.00    +0.000 A 
ATOM      4  C   UNL     1       3.207   2.868  17.308  0.00  0.00    +0.000 C 
ATOM      5  C   UNL     1       4.569   5.034  16.937  0.00  0.00    +0.000 A 
ATOM      6  S   UNL     1       4.427   6.669  17.437  0.00  0.00    +0.000 S 
ENDROOT
BRANCH   1  10
ATOM      7  C   UNL     1       0.837   9.422  20.420  0.00  0.00    +0.000 A 
ATOM      8  C   UNL     1       1.209   9.586  19.082  0.00  0.00    +0.000 A 
ATOM      9  C   UNL     1       1.909   8.563  18.418  0.00  0.00    +0.000 A 
ATOM     10  C   UNL     1       2.253   7.364  19.072  0.00  0.00    +0.000 A 
ATOM     11  C   UNL     1       1.871   7.229  20.418  0.00  0.00    +0.000 A 
ATOM     12  C   UNL     1       1.175   8.251  21.081  0.00  0.00    +0.000 A 
BRANCH   7  14
ATOM     13  C   UNL     1      -0.484  11.313  21.695  0.00  0.00    +0.000 C 
ATOM     14  C   UNL     1       0.105  10.448  21.112  0.00  0.00    +0.000 C 
BRANCH  13  20
ATOM     15  C   UNL     1      -0.592  13.569  22.763  0.00  0.00    +0.000 A 
ATOM     16  C   UNL     1      -1.334  14.505  23.500  0.00  0.00    +0.000 A 
ATOM     17  C   UNL     1      -2.612  14.195  23.966  0.00  0.00    +0.000 A 
ATOM     18  C   UNL     1      -3.168  12.954  23.693  0.00  0.00    +0.000 A 
ATOM     19  C   UNL     1      -2.454  12.021  22.938  0.00  0.00    +0.000 A 
ATOM     20  C   UNL     1      -1.168  12.320  22.466  0.00  0.00    +0.000 A 
BRANCH  15  22
ATOM     21  C   UNL     1       0.833  15.100  21.656  0.00  0.00    +0.000 C 
ATOM     22  O   UNL     1       0.668  13.831  22.282  0.00  0.00    +0.000 OA
ENDBRANCH  15  22
ENDBRANCH  13  20
ENDBRANCH   7  14
ENDBRANCH   1  10
BRANCH   5  23
ATOM     23  C   UNL     1       5.651   4.559  16.071  0.00  0.00    +0.000 C 
ATOM     24  C   UNL     1       7.080   4.468  16.576  0.00  0.00    +0.000 C 
ATOM     25  N   UNL     1       5.326   4.217  14.855  0.00  0.00    +0.000 NA
BRANCH  25  26
ATOM     26  N   UNL     1       6.274   3.769  13.980  0.00  0.00    +0.000 N 
ATOM     27  C   UNL     1       5.979   3.434  12.690  0.00  0.00    +0.000 C 
ATOM     28  N   UNL     1       4.785   3.460  12.200  0.00  0.00    +0.000 NA
ATOM     29  N   UNL     1       7.020   3.107  11.900  0.00  0.00    +0.000 N 
ATOM     30  H   UNL     1       7.249   3.706  14.242  0.00  0.00    +0.000 HD
ATOM     31  H   UNL     1       4.206   3.785  12.988  0.00  0.00    +0.000 HD
ATOM     32  H   UNL     1       7.873   2.734  12.285  0.00  0.00    +0.000 HD
ATOM     33  H   UNL     1       6.724   2.686  11.024  0.00  0.00    +0.000 HD
ENDBRANCH  25  26
ENDBRANCH   5  23
TORSDOF 6
ENDMDL
MODEL 2
REMARK VINA RESULT:      -8.2      1.306      1.926
REMARK  Name = 
REMARK  9 active torsions:
REMARK  status: ('A' for Active; 'I' for Inactive)
REMARK    1  A    between atoms: C_1  and  O_2
REMARK    2  A    between atoms: O_2  and  C_3
REMARK    3  A    between atoms: C_8  and  C_9
REMARK    4  A    between atoms: C_10  and  C_11
REMARK    5  A    between atoms: C_14  and  C_15
REMARK    6  A    between atoms: C_17  and  C_18
REMARK    7  A    between atoms: C_19  and  C_20
REMARK    8  A    between atoms: C_20  and  C_21
REMARK    9  A    between atoms: N_22  and  N_23
REMARK                            x       y       z     vdW  Elec       q    Type
REMARK                         _______ _______ _______ _____ _____    ______ ____
ROOT
ATOM      1  C   UNL     1       3.178   6.371  18.212  0.00  0.00    +0.000 A 
ATOM      2  N   UNL     1       3.020   5.089  18.474  0.00  0.00    +0.000 NA
ATOM      3  C   UNL     1       3.900   4.312  17.729  0.00  0.00    +0.000 A 
ATOM      4  C   UNL     1       3.806   2.834  17.891  0.00  0.00    +0.000 C 
ATOM      5  C   UNL     1       4.768   5.021  16.904  0.00  0.00    +0.000 A 
ATOM      6  S   UNL     1       4.429   6.694  17.077  0.00  0.00    +0.000 S 
ENDROOT
BRANCH   1  10
ATOM      7  C   UNL     1       0.788   9.455  20.069  0.00  0.00    +0.000 A 
ATOM      8  C   UNL     1       1.191   8.328  20.793  0.00  0.00    +0.000 A 
ATOM      9  C   UNL     1       1.972   7.336  20.172  0.00  0.00    +0.000 A 
ATOM     10  C   UNL     1       2.363   7.447  18.823  0.00  0.00    +0.000 A 
ATOM     11  C   UNL     1       1.940   8.587  18.119  0.00  0.00    +0.000 A 
ATOM     12  C   UNL     1       1.158   9.575  18.738  0.00  0.00    +0.000 A 
BRANCH   7  14
ATOM     13  C   UNL     1      -0.658  11.353  21.186  0.00  0.00    +0.000 C 
ATOM     14  C   UNL     1       0.006  10.487  20.690  0.00  0.00    +0.000 C 
BRANCH  13  20
ATOM     15  C   UNL     1      -2.572  12.957  21.128  0.00  0.00    +0.000 A 
ATOM     16  C   UNL     1      -3.264  14.011  21.746  0.00  0.00    +0.000 A 
ATOM     17  C   UNL     1      -2.794  14.574  22.933  0.00  0.00    +0.000 A 
ATOM     18  C   UNL     1      -1.637  14.086  23.523  0.00  0.00    +0.000 A 
ATOM     19  C   UNL     1      -0.952  13.020  22.936  0.00  0.00    +0.000 A 
ATOM     20  C   UNL     1      -1.413  12.448  21.741  0.00  0.00    +0.000 A 
BRANCH  15  22
ATOM     21  C   UNL     1      -4.400  12.437  19.719  0.00  0.00    +0.000 C 
ATOM     22  O   UNL     1      -2.997  12.371  19.960  0.00  0.00    +0.000 OA
ENDBRANCH  15  22
ENDBRANCH  13  20
ENDBRANCH   7  14
ENDBRANCH   1  10
BRANCH   5  23
ATOM     23  C   UNL     1       5.809   4.510  16.010  0.00  0.00    +0.000 C 
ATOM     24  C   UNL     1       7.262   4.455  16.447  0.00  0.00    +0.000 C 
ATOM     25  N   UNL     1       5.428   4.104  14.831  0.00  0.00    +0.000 NA
BRANCH  25  26
ATOM     26  N   UNL     1       6.335   3.618  13.933  0.00  0.00    +0.000 N 
ATOM     27  C   UNL     1       6.007   3.338  12.638  0.00  0.00    +0.000 C 
ATOM     28  N   UNL     1       4.812   3.456  12.163  0.00  0.00    +0.000 NA
ATOM     29  N   UNL     1       7.016   2.965  11.828  0.00  0.00    +0.000 N 
ATOM     30  H   UNL     1       7.307   3.485  14.182  0.00  0.00    +0.000 HD
ATOM     31  H   UNL     1       4.264   3.798  12.966  0.00  0.00    +0.000 HD
ATOM     32  H   UNL     1       7.846   2.526  12.193  0.00  0.00    +0.000 HD
ATOM     33  H   UNL     1       6.684   2.588  10.945  0.00  0.00    +0.000 HD
ENDBRANCH  25  26
ENDBRANCH   5  23
TORSDOF 6
ENDMDL
MODEL 3
REMARK VINA RESULT:      -7.8      2.065      3.491
REMARK  Name = 
REMARK  9 active torsions:
REMARK  status: ('A' for Active; 'I' for Inactive)
REMARK    1  A    between atoms: C_1  and  O_2
REMARK    2  A    between atoms: O_2  and  C_3
REMARK    3  A    between atoms: C_8  and  C_9
REMARK    4  A    between atoms: C_10  and  C_11
REMARK    5  A    between atoms: C_14  and  C_15
REMARK    6  A    between atoms: C_17  and  C_18
REMARK    7  A    between atoms: C_19  and  C_20
REMARK    8  A    between atoms: C_20  and  C_21
REMARK    9  A    between atoms: N_22  and  N_23
REMARK                            x       y       z     vdW  Elec       q    Type
REMARK                         _______ _______ _______ _____ _____    ______ ____
ROOT
ATOM      1  C   UNL     1       1.712   7.531  20.189  0.00  0.00    +0.000 A 
ATOM      2  N   UNL     1       1.796   6.359  20.785  0.00  0.00    +0.000 NA
ATOM      3  C   UNL     1       2.457   5.434  19.984  0.00  0.00    +0.000 A 
ATOM      4  C   UNL     1       2.588   4.048  20.513  0.00  0.00    +0.000 C 
ATOM      5  C   UNL     1       2.912   5.923  18.763  0.00  0.00    +0.000 A 
ATOM      6  S   UNL     1       2.467   7.575  18.644  0.00  0.00    +0.000 S 
ENDROOT
BRANCH   1  10
ATOM      7  C   UNL     1      -0.281  10.922  21.976  0.00  0.00    +0.000 A 
ATOM      8  C   UNL     1       0.018   9.787  22.735  0.00  0.00    +0.000 A 
ATOM      9  C   UNL     1       0.671   8.694  22.137  0.00  0.00    +0.000 A 
ATOM     10  C   UNL     1       1.035   8.711  20.775  0.00  0.00    +0.000 A 
ATOM     11  C   UNL     1       0.717   9.864  20.036  0.00  0.00    +0.000 A 
ATOM     12  C   UNL     1       0.063  10.952  20.633  0.00  0.00    +0.000 A 
BRANCH   7  14
ATOM     13  C   UNL     1      -1.464  12.996  23.092  0.00  0.00    +0.000 C 
ATOM     14  C   UNL     1      -0.932  12.056  22.573  0.00  0.00    +0.000 C 
BRANCH  13  20
ATOM     15  C   UNL     1      -3.540  14.275  23.633  0.00  0.00    +0.000 A 
ATOM     16  C   UNL     1      -4.140  15.336  24.330  0.00  0.00    +0.000 A 
ATOM     17  C   UNL     1      -3.372  16.205  25.106  0.00  0.00    +0.000 A 
ATOM     18  C   UNL     1      -2.001  16.019  25.205  0.00  0.00    +0.000 A 
ATOM     19  C   UNL     1      -1.392  14.953  24.540  0.00  0.00    +0.000 A 
ATOM     20  C   UNL     1      -2.153  14.075  23.755  0.00  0.00    +0.000 A 
BRANCH  15  22
ATOM     21  C   UNL     1      -5.559  13.077  23.339  0.00  0.00    +0.000 C 
ATOM     22  O   UNL     1      -4.256  13.394  22.859  0.00  0.00    +0.000 OA
ENDBRANCH  15  22
ENDBRANCH  13  20
ENDBRANCH   7  14
ENDBRANCH   1  10
BRANCH   5  23
ATOM     23  C   UNL     1       3.645   5.220  17.707  0.00  0.00    +0.000 C 
ATOM     24  C   UNL     1       3.191   3.859  17.208  0.00  0.00    +0.000 C 
ATOM     25  N   UNL     1       4.695   5.819  17.218  0.00  0.00    +0.000 NA
BRANCH  25  26
ATOM     26  N   UNL     1       5.439   5.231  16.235  0.00  0.00    +0.000 N 
ATOM     27  C   UNL     1       6.753   5.538  16.030  0.00  0.00    +0.000 C 
ATOM     28  N   UNL     1       7.391   6.435  16.702  0.00  0.00    +0.000 NA
ATOM     29  N   UNL     1       7.401   4.813  15.098  0.00  0.00    +0.000 N 
ATOM     30  H   UNL     1       5.054   4.509  15.641  0.00  0.00    +0.000 HD
ATOM     31  H   UNL     1       6.686   6.789  17.366  0.00  0.00    +0.000 HD
ATOM     32  H   UNL     1       6.908   4.382  14.332  0.00  0.00    +0.000 HD
ATOM     33  H   UNL     1       8.304   5.210  14.857  0.00  0.00    +0.000 HD
ENDBRANCH  25  26
ENDBRANCH   5  23
TORSDOF 6
ENDMDL
MODEL 4
REMARK VINA RESULT:      -7.8      5.774     12.053
REMARK  Name = 
REMARK  9 active torsions:
REMARK  status: ('A' for Active; 'I' for Inactive)
REMARK    1  A    between atoms: C_1  and  O_2
REMARK    2  A    between atoms: O_2  and  C_3
REMARK    3  A    between atoms: C_8  and  C_9
REMARK    4  A    between atoms: C_10  and  C_11
REMARK    5  A    between atoms: C_14  and  C_15
REMARK    6  A    between atoms: C_17  and  C_18
REMARK    7  A    between atoms: C_19  and  C_20
REMARK    8  A    between atoms: C_20  and  C_21
REMARK    9  A    between atoms: N_22  and  N_23
REMARK                            x       y       z     vdW  Elec       q    Type
REMARK                         _______ _______ _______ _____ _____    ______ ____
ROOT
ATOM      1  C   UNL     1      -0.317  11.151  20.550  0.00  0.00    +0.000 A 
ATOM      2  N   UNL     1      -0.530  12.357  20.064  0.00  0.00    +0.000 NA
ATOM      3  C   UNL     1      -1.422  13.070  20.858  0.00  0.00    +0.000 A 
ATOM      4  C   UNL     1      -1.791  14.440  20.404  0.00  0.00    +0.000 C 
ATOM      5  C   UNL     1      -1.876  12.401  21.990  0.00  0.00    +0.000 A 
ATOM      6  S   UNL     1      -1.162  10.840  22.016  0.00  0.00    +0.000 S 
ENDROOT
BRANCH   1  10
ATOM      7  C   UNL     1       2.226   8.254  18.601  0.00  0.00    +0.000 A 
ATOM      8  C   UNL     1       1.817   9.412  17.932  0.00  0.00    +0.000 A 
ATOM      9  C   UNL     1       0.993  10.346  18.585  0.00  0.00    +0.000 A 
ATOM     10  C   UNL     1       0.559  10.143  19.910  0.00  0.00    +0.000 A 
ATOM     11  C   UNL     1       0.981   8.967  20.556  0.00  0.00    +0.000 A 
ATOM     12  C   UNL     1       1.801   8.035  19.902  0.00  0.00    +0.000 A 
BRANCH   7  14
ATOM     13  C   UNL     1       3.806   6.515  17.406  0.00  0.00    +0.000 C 
ATOM     14  C   UNL     1       3.083   7.296  17.958  0.00  0.00    +0.000 C 
BRANCH  13  20
ATOM     15  C   UNL     1       4.667   4.208  16.993  0.00  0.00    +0.000 A 
ATOM     16  C   UNL     1       5.474   3.356  16.221  0.00  0.00    +0.000 A 
ATOM     17  C   UNL     1       6.253   3.862  15.180  0.00  0.00    +0.000 A 
ATOM     18  C   UNL     1       6.228   5.218  14.889  0.00  0.00    +0.000 A 
ATOM     19  C   UNL     1       5.411   6.074  15.629  0.00  0.00    +0.000 A 
ATOM     20  C   UNL     1       4.625   5.578  16.680  0.00  0.00    +0.000 A 
BRANCH  15  22
ATOM     21  C   UNL     1       2.741   2.995  17.639  0.00  0.00    +0.000 C 
ATOM     22  O   UNL     1       3.882   3.755  18.026  0.00  0.00    +0.000 OA
ENDBRANCH  15  22
ENDBRANCH  13  20
ENDBRANCH   7  14
ENDBRANCH   1  10
BRANCH   5  23
ATOM     23  C   UNL     1      -2.801  12.868  23.025  0.00  0.00    +0.000 C 
ATOM     24  C   UNL     1      -2.387  13.929  24.029  0.00  0.00    +0.000 C 
ATOM     25  N   UNL     1      -3.991  12.334  23.037  0.00  0.00    +0.000 NA
BRANCH  25  26
ATOM     26  N   UNL     1      -4.915  12.707  23.971  0.00  0.00    +0.000 N 
ATOM     27  C   UNL     1      -6.215  12.968  23.652  0.00  0.00    +0.000 C 
ATOM     28  N   UNL     1      -6.675  12.936  22.446  0.00  0.00    +0.000 NA
ATOM     29  N   UNL     1      -7.048  13.224  24.679  0.00  0.00    +0.000 N 
ATOM     30  H   UNL     1      -4.679  12.766  24.953  0.00  0.00    +0.000 HD
ATOM     31  H   UNL     1      -5.855  12.672  21.880  0.00  0.00    +0.000 HD
ATOM     32  H   UNL     1      -6.706  13.603  25.548  0.00  0.00    +0.000 HD
ATOM     33  H   UNL     1      -7.941  13.596  24.370  0.00  0.00    +0.000 HD
ENDBRANCH  25  26
ENDBRANCH   5  23
TORSDOF 6
ENDMDL
MODEL 5
REMARK VINA RESULT:      -7.8      5.849     12.041
REMARK  Name = 
REMARK  9 active torsions:
REMARK  status: ('A' for Active; 'I' for Inactive)
REMARK    1  A    between atoms: C_1  and  O_2
REMARK    2  A    between atoms: O_2  and  C_3
REMARK    3  A    between atoms: C_8  and  C_9
REMARK    4  A    between atoms: C_10  and  C_11
REMARK    5  A    between atoms: C_14  and  C_15
REMARK    6  A    between atoms: C_17  and  C_18
REMARK    7  A    between atoms: C_19  and  C_20
REMARK    8  A    between atoms: C_20  and  C_21
REMARK    9  A    between atoms: N_22  and  N_23
REMARK                            x       y       z     vdW  Elec       q    Type
REMARK                         _______ _______ _______ _____ _____    ______ ____
ROOT
ATOM      1  C   UNL     1      -0.611  10.846  20.309  0.00  0.00    +0.000 A 
ATOM      2  N   UNL     1      -1.639  11.377  19.679  0.00  0.00    +0.000 NA
ATOM      3  C   UNL     1      -2.433  12.117  20.548  0.00  0.00    +0.000 A 
ATOM      4  C   UNL     1      -3.661  12.743  19.980  0.00  0.00    +0.000 C 
ATOM      5  C   UNL     1      -1.983  12.175  21.863  0.00  0.00    +0.000 A 
ATOM      6  S   UNL     1      -0.540  11.253  21.979  0.00  0.00    +0.000 S 
ENDROOT
BRANCH   1  10
ATOM      7  C   UNL     1       2.349   8.268  18.504  0.00  0.00    +0.000 A 
ATOM      8  C   UNL     1       1.920   8.056  19.818  0.00  0.00    +0.000 A 
ATOM      9  C   UNL     1       0.953   8.903  20.387  0.00  0.00    +0.000 A 
ATOM     10  C   UNL     1       0.398   9.976  19.662  0.00  0.00    +0.000 A 
ATOM     11  C   UNL     1       0.851  10.169  18.345  0.00  0.00    +0.000 A 
ATOM     12  C   UNL     1       1.819   9.325  17.779  0.00  0.00    +0.000 A 
BRANCH   7  14
ATOM     13  C   UNL     1       4.151   6.687  17.410  0.00  0.00    +0.000 C 
ATOM     14  C   UNL     1       3.323   7.403  17.898  0.00  0.00    +0.000 C 
BRANCH  13  20
ATOM     15  C   UNL     1       6.208   5.277  17.546  0.00  0.00    +0.000 A 
ATOM     16  C   UNL     1       7.167   4.499  16.878  0.00  0.00    +0.000 A 
ATOM     17  C   UNL     1       7.135   4.363  15.490  0.00  0.00    +0.000 A 
ATOM     18  C   UNL     1       6.140   4.991  14.754  0.00  0.00    +0.000 A 
ATOM     19  C   UNL     1       5.163   5.746  15.405  0.00  0.00    +0.000 A 
ATOM     20  C   UNL     1       5.187   5.892  16.800  0.00  0.00    +0.000 A 
BRANCH  15  22
ATOM     21  C   UNL     1       7.464   5.732  19.499  0.00  0.00    +0.000 C 
ATOM     22  O   UNL     1       6.200   5.438  18.911  0.00  0.00    +0.000 OA
ENDBRANCH  15  22
ENDBRANCH  13  20
ENDBRANCH   7  14
ENDBRANCH   1  10
BRANCH   5  23
ATOM     23  C   UNL     1      -2.576  12.870  23.008  0.00  0.00    +0.000 C 
ATOM     24  C   UNL     1      -3.559  12.171  23.929  0.00  0.00    +0.000 C 
ATOM     25  N   UNL     1      -2.215  14.109  23.197  0.00  0.00    +0.000 NA
BRANCH  25  26
ATOM     26  N   UNL     1      -2.724  14.833  24.237  0.00  0.00    +0.000 N 
ATOM     27  C   UNL     1      -3.693  15.778  24.067  0.00  0.00    +0.000 C 
ATOM     28  N   UNL     1      -4.175  16.107  22.916  0.00  0.00    +0.000 NA
ATOM     29  N   UNL     1      -4.183  16.347  25.185  0.00  0.00    +0.000 N 
ATOM     30  H   UNL     1      -2.429  14.667  25.191  0.00  0.00    +0.000 HD
ATOM     31  H   UNL     1      -3.670  15.496  22.257  0.00  0.00    +0.000 HD
ATOM     32  H   UNL     1      -3.634  16.403  26.028  0.00  0.00    +0.000 HD
ATOM     33  H   UNL     1      -4.750  17.165  24.987  0.00  0.00    +0.000 HD
ENDBRANCH  25  26
ENDBRANCH   5  23
TORSDOF 6
ENDMDL
MODEL 6
REMARK VINA RESULT:      -7.8      6.306     12.281
REMARK  Name = 
REMARK  9 active torsions:
REMARK  status: ('A' for Active; 'I' for Inactive)
REMARK    1  A    between atoms: C_1  and  O_2
REMARK    2  A    between atoms: O_2  and  C_3
REMARK    3  A    between atoms: C_8  and  C_9
REMARK    4  A    between atoms: C_10  and  C_11
REMARK    5  A    between atoms: C_14  and  C_15
REMARK    6  A    between atoms: C_17  and  C_18
REMARK    7  A    between atoms: C_19  and  C_20
REMARK    8  A    between atoms: C_20  and  C_21
REMARK    9  A    between atoms: N_22  and  N_23
REMARK                            x       y       z     vdW  Elec       q    Type
REMARK                         _______ _______ _______ _____ _____    ______ ____
ROOT
ATOM      1  C   UNL     1      -0.542  11.814  22.071  0.00  0.00    +0.000 A 
ATOM      2  N   UNL     1      -0.064  13.033  22.215  0.00  0.00    +0.000 NA
ATOM      3  C   UNL     1      -0.975  13.855  22.870  0.00  0.00    +0.000 A 
ATOM      4  C   UNL     1      -0.585  15.280  23.066  0.00  0.00    +0.000 C 
ATOM      5  C   UNL     1      -2.160  13.240  23.259  0.00  0.00    +0.000 A 
ATOM      6  S   UNL     1      -2.104  11.599  22.758  0.00  0.00    +0.000 S 
ENDROOT
BRANCH   1  10
ATOM      7  C   UNL     1       1.543   8.660  19.981  0.00  0.00    +0.000 A 
ATOM      8  C   UNL     1       1.151   9.824  19.313  0.00  0.00    +0.000 A 
ATOM      9  C   UNL     1       0.477  10.842  20.011  0.00  0.00    +0.000 A 
ATOM     10  C   UNL     1       0.179  10.718  21.382  0.00  0.00    +0.000 A 
ATOM     11  C   UNL     1       0.581   9.535  22.027  0.00  0.00    +0.000 A 
ATOM     12  C   UNL     1       1.251   8.519  21.329  0.00  0.00    +0.000 A 
BRANCH   7  14
ATOM     13  C   UNL     1       2.851   6.764  18.700  0.00  0.00    +0.000 C 
ATOM     14  C   UNL     1       2.249   7.617  19.289  0.00  0.00    +0.000 C 
BRANCH  13  20
ATOM     15  C   UNL     1       2.977   4.487  17.681  0.00  0.00    +0.000 A 
ATOM     16  C   UNL     1       3.694   3.570  16.897  0.00  0.00    +0.000 A 
ATOM     17  C   UNL     1       4.955   3.893  16.394  0.00  0.00    +0.000 A 
ATOM     18  C   UNL     1       5.509   5.137  16.657  0.00  0.00    +0.000 A 
ATOM     19  C   UNL     1       4.798   6.071  17.413  0.00  0.00    +0.000 A 
ATOM     20  C   UNL     1       3.531   5.756  17.926  0.00  0.00    +0.000 A 
BRANCH  15  22
ATOM     21  C   UNL     1       1.621   2.981  18.903  0.00  0.00    +0.000 C 
ATOM     22  O   UNL     1       1.733   4.213  18.196  0.00  0.00    +0.000 OA
ENDBRANCH  15  22
ENDBRANCH  13  20
ENDBRANCH   7  14
ENDBRANCH   1  10
BRANCH   5  23
ATOM     23  C   UNL     1      -3.306  13.815  23.968  0.00  0.00    +0.000 C 
ATOM     24  C   UNL     1      -3.115  14.651  25.221  0.00  0.00    +0.000 C 
ATOM     25  N   UNL     1      -4.488  13.579  23.469  0.00  0.00    +0.000 NA
BRANCH  25  26
ATOM     26  N   UNL     1      -5.610  14.072  24.070  0.00  0.00    +0.000 N 
ATOM     27  C   UNL     1      -6.792  13.390  24.087  0.00  0.00    +0.000 C 
ATOM     28  N   UNL     1      -6.969  12.255  23.500  0.00  0.00    +0.000 NA
ATOM     29  N   UNL     1      -7.793  13.938  24.802  0.00  0.00    +0.000 N 
ATOM     30  H   UNL     1      -5.599  14.953  24.568  0.00  0.00    +0.000 HD
ATOM     31  H   UNL     1      -6.049  12.050  23.083  0.00  0.00    +0.000 HD
ATOM     32  H   UNL     1      -7.837  14.931  24.967  0.00  0.00    +0.000 HD
ATOM     33  H   UNL     1      -8.688  13.494  24.620  0.00  0.00    +0.000 HD
ENDBRANCH  25  26
ENDBRANCH   5  23
TORSDOF 6
ENDMDL
MODEL 7
REMARK VINA RESULT:      -7.8      5.990     12.075
REMARK  Name = 
REMARK  9 active torsions:
REMARK  status: ('A' for Active; 'I' for Inactive)
REMARK    1  A    between atoms: C_1  and  O_2
REMARK    2  A    between atoms: O_2  and  C_3
REMARK    3  A    between atoms: C_8  and  C_9
REMARK    4  A    between atoms: C_10  and  C_11
REMARK    5  A    between atoms: C_14  and  C_15
REMARK    6  A    between atoms: C_17  and  C_18
REMARK    7  A    between atoms: C_19  and  C_20
REMARK    8  A    between atoms: C_20  and  C_21
REMARK    9  A    between atoms: N_22  and  N_23
REMARK                            x       y       z     vdW  Elec       q    Type
REMARK                         _______ _______ _______ _____ _____    ______ ____
ROOT
ATOM      1  C   UNL     1      -0.918  11.090  20.437  0.00  0.00    +0.000 A 
ATOM      2  N   UNL     1      -1.945  11.622  19.808  0.00  0.00    +0.000 NA
ATOM      3  C   UNL     1      -2.731  12.375  20.674  0.00  0.00    +0.000 A 
ATOM      4  C   UNL     1      -3.956  13.004  20.107  0.00  0.00    +0.000 C 
ATOM      5  C   UNL     1      -2.274  12.439  21.987  0.00  0.00    +0.000 A 
ATOM      6  S   UNL     1      -0.838  11.509  22.104  0.00  0.00    +0.000 S 
ENDROOT
BRANCH   1  10
ATOM      7  C   UNL     1       2.020   8.482  18.639  0.00  0.00    +0.000 A 
ATOM      8  C   UNL     1       1.658   8.334  19.982  0.00  0.00    +0.000 A 
ATOM      9  C   UNL     1       0.696   9.190  20.548  0.00  0.00    +0.000 A 
ATOM     10  C   UNL     1       0.082  10.207  19.792  0.00  0.00    +0.000 A 
ATOM     11  C   UNL     1       0.469  10.336  18.446  0.00  0.00    +0.000 A 
ATOM     12  C   UNL     1       1.431   9.484  17.883  0.00  0.00    +0.000 A 
BRANCH   7  14
ATOM     13  C   UNL     1       3.791   6.860  17.553  0.00  0.00    +0.000 C 
ATOM     14  C   UNL     1       2.987   7.606  18.037  0.00  0.00    +0.000 C 
BRANCH  13  20
ATOM     15  C   UNL     1       6.128   6.415  16.792  0.00  0.00    +0.000 A 
ATOM     16  C   UNL     1       7.067   5.494  16.302  0.00  0.00    +0.000 A 
ATOM     17  C   UNL     1       6.697   4.179  16.019  0.00  0.00    +0.000 A 
ATOM     18  C   UNL     1       5.391   3.765  16.231  0.00  0.00    +0.000 A 
ATOM     19  C   UNL     1       4.450   4.661  16.743  0.00  0.00    +0.000 A 
ATOM     20  C   UNL     1       4.810   5.985  17.029  0.00  0.00    +0.000 A 
BRANCH  15  22
ATOM     21  C   UNL     1       7.740   7.920  17.650  0.00  0.00    +0.000 C 
ATOM     22  O   UNL     1       6.447   7.719  17.087  0.00  0.00    +0.000 OA
ENDBRANCH  15  22
ENDBRANCH  13  20
ENDBRANCH   7  14
ENDBRANCH   1  10
BRANCH   5  23
ATOM     23  C   UNL     1      -2.857  13.147  23.129  0.00  0.00    +0.000 C 
ATOM     24  C   UNL     1      -3.732  12.425  24.138  0.00  0.00    +0.000 C 
ATOM     25  N   UNL     1      -2.585  14.418  23.237  0.00  0.00    +0.000 NA
BRANCH  25  26
ATOM     26  N   UNL     1      -3.091  15.155  24.269  0.00  0.00    +0.000 N 
ATOM     27  C   UNL     1      -4.118  16.039  24.102  0.00  0.00    +0.000 C 
ATOM     28  N   UNL     1      -4.663  16.294  22.960  0.00  0.00    +0.000 NA
ATOM     29  N   UNL     1      -4.595  16.625  25.217  0.00  0.00    +0.000 N 
ATOM     30  H   UNL     1      -2.751  15.045  25.215  0.00  0.00    +0.000 HD
ATOM     31  H   UNL     1      -4.150  15.685  22.305  0.00  0.00    +0.000 HD
ATOM     32  H   UNL     1      -4.017  16.746  26.034  0.00  0.00    +0.000 HD
ATOM     33  H   UNL     1      -5.214  17.403  25.011  0.00  0.00    +0.000 HD
ENDBRANCH  25  26
ENDBRANCH   5  23
TORSDOF 6
ENDMDL
MODEL 8
REMARK VINA RESULT:      -7.7      5.757     11.958
REMARK  Name = 
REMARK  9 active torsions:
REMARK  status: ('A' for Active; 'I' for Inactive)
REMARK    1  A    between atoms: C_1  and  O_2
REMARK    2  A    between atoms: O_2  and  C_3
REMARK    3  A    between atoms: C_8  and  C_9
REMARK    4  A    between atoms: C_10  and  C_11
REMARK    5  A    between atoms: C_14  and  C_15
REMARK    6  A    between atoms: C_17  and  C_18
REMARK    7  A    between atoms: C_19  and  C_20
REMARK    8  A    between atoms: C_20  and  C_21
REMARK    9  A    between atoms: N_22  and  N_23
REMARK                            x       y       z     vdW  Elec       q    Type
REMARK                         _______ _______ _______ _____ _____    ______ ____
ROOT
ATOM      1  C   UNL     1      -0.298  11.168  20.435  0.00  0.00    +0.000 A 
ATOM      2  N   UNL     1      -0.640  12.330  19.917  0.00  0.00    +0.000 NA
ATOM      3  C   UNL     1      -1.567  12.986  20.721  0.00  0.00    +0.000 A 
ATOM      4  C   UNL     1      -2.078  14.298  20.236  0.00  0.00    +0.000 C 
ATOM      5  C   UNL     1      -1.916  12.320  21.892  0.00  0.00    +0.000 A 
ATOM      6  S   UNL     1      -1.058  10.834  21.942  0.00  0.00    +0.000 S 
ENDROOT
BRANCH   1  10
ATOM      7  C   UNL     1       2.447   8.457  18.492  0.00  0.00    +0.000 A 
ATOM      8  C   UNL     1       2.068   9.655  17.877  0.00  0.00    +0.000 A 
ATOM      9  C   UNL     1       1.176  10.526  18.527  0.00  0.00    +0.000 A 
ATOM     10  C   UNL     1       0.645  10.221  19.796  0.00  0.00    +0.000 A 
ATOM     11  C   UNL     1       1.040   9.009  20.388  0.00  0.00    +0.000 A 
ATOM     12  C   UNL     1       1.927   8.138  19.737  0.00  0.00    +0.000 A 
BRANCH   7  14
ATOM     13  C   UNL     1       4.149   6.807  17.341  0.00  0.00    +0.000 C 
ATOM     14  C   UNL     1       3.372   7.562  17.852  0.00  0.00    +0.000 C 
BRANCH  13  20
ATOM     15  C   UNL     1       6.213   5.408  17.493  0.00  0.00    +0.000 A 
ATOM     16  C   UNL     1       7.128   4.558  16.851  0.00  0.00    +0.000 A 
ATOM     17  C   UNL     1       7.005   4.274  15.490  0.00  0.00    +0.000 A 
ATOM     18  C   UNL     1       5.963   4.825  14.758  0.00  0.00    +0.000 A 
ATOM     19  C   UNL     1       5.030   5.651  15.387  0.00  0.00    +0.000 A 
ATOM     20  C   UNL     1       5.144   5.945  16.753  0.00  0.00    +0.000 A 
BRANCH  15  22
ATOM     21  C   UNL     1       7.606   5.695  19.384  0.00  0.00    +0.000 C 
ATOM     22  O   UNL     1       6.293   5.714  18.830  0.00  0.00    +0.000 OA
ENDBRANCH  15  22
ENDBRANCH  13  20
ENDBRANCH   7  14
ENDBRANCH   1  10
BRANCH   5  23
ATOM     23  C   UNL     1      -2.844  12.737  22.945  0.00  0.00    +0.000 C 
ATOM     24  C   UNL     1      -2.438  13.762  23.989  0.00  0.00    +0.000 C 
ATOM     25  N   UNL     1      -4.029  12.192  22.937  0.00  0.00    +0.000 NA
BRANCH  25  26
ATOM     26  N   UNL     1      -4.954  12.520  23.886  0.00  0.00    +0.000 N 
ATOM     27  C   UNL     1      -6.094  13.209  23.590  0.00  0.00    +0.000 C 
ATOM     28  N   UNL     1      -6.375  13.653  22.411  0.00  0.00    +0.000 NA
ATOM     29  N   UNL     1      -6.974  13.378  24.595  0.00  0.00    +0.000 N 
ATOM     30  H   UNL     1      -4.851  12.227  24.849  0.00  0.00    +0.000 HD
ATOM     31  H   UNL     1      -5.573  13.348  21.839  0.00  0.00    +0.000 HD
ATOM     32  H   UNL     1      -6.675  13.382  25.558  0.00  0.00    +0.000 HD
ATOM     33  H   UNL     1      -7.698  14.053  24.368  0.00  0.00    +0.000 HD
ENDBRANCH  25  26
ENDBRANCH   5  23
TORSDOF 6
ENDMDL
MODEL 9
REMARK VINA RESULT:      -7.7      2.651      3.902
REMARK  Name = 
REMARK  9 active torsions:
REMARK  status: ('A' for Active; 'I' for Inactive)
REMARK    1  A    between atoms: C_1  and  O_2
REMARK    2  A    between atoms: O_2  and  C_3
REMARK    3  A    between atoms: C_8  and  C_9
REMARK    4  A    between atoms: C_10  and  C_11
REMARK    5  A    between atoms: C_14  and  C_15
REMARK    6  A    between atoms: C_17  and  C_18
REMARK    7  A    between atoms: C_19  and  C_20
REMARK    8  A    between atoms: C_20  and  C_21
REMARK    9  A    between atoms: N_22  and  N_23
REMARK                            x       y       z     vdW  Elec       q    Type
REMARK                         _______ _______ _______ _____ _____    ______ ____
ROOT
ATOM      1  C   UNL     1       1.293   7.681  20.703  0.00  0.00    +0.000 A 
ATOM      2  N   UNL     1       1.275   6.480  21.243  0.00  0.00    +0.000 NA
ATOM      3  C   UNL     1       2.068   5.593  20.523  0.00  0.00    +0.000 A 
ATOM      4  C   UNL     1       2.109   4.180  20.995  0.00  0.00    +0.000 C 
ATOM      5  C   UNL     1       2.726   6.139  19.426  0.00  0.00    +0.000 A 
ATOM      6  S   UNL     1       2.304   7.799  19.316  0.00  0.00    +0.000 S 
ENDROOT
BRANCH   1  10
ATOM      7  C   UNL     1      -0.965  11.000  22.300  0.00  0.00    +0.000 A 
ATOM      8  C   UNL     1      -0.502   9.981  23.138  0.00  0.00    +0.000 A 
ATOM      9  C   UNL     1       0.235   8.910  22.600  0.00  0.00    +0.000 A 
ATOM     10  C   UNL     1       0.521   8.835  21.223  0.00  0.00    +0.000 A 
ATOM     11  C   UNL     1       0.039   9.870  20.404  0.00  0.00    +0.000 A 
ATOM     12  C   UNL     1      -0.699  10.936  20.941  0.00  0.00    +0.000 A 
BRANCH   7  14
ATOM     13  C   UNL     1      -2.320  13.049  23.255  0.00  0.00    +0.000 C 
ATOM     14  C   UNL     1      -1.704  12.111  22.833  0.00  0.00    +0.000 C 
BRANCH  13  20
ATOM     15  C   UNL     1      -2.358  15.158  24.593  0.00  0.00    +0.000 A 
ATOM     16  C   UNL     1      -3.076  16.285  25.022  0.00  0.00    +0.000 A 
ATOM     17  C   UNL     1      -4.411  16.462  24.657  0.00  0.00    +0.000 A 
ATOM     18  C   UNL     1      -5.042  15.524  23.853  0.00  0.00    +0.000 A 
ATOM     19  C   UNL     1      -4.334  14.410  23.396  0.00  0.00    +0.000 A 
ATOM     20  C   UNL     1      -2.993  14.221  23.758  0.00  0.00    +0.000 A 
BRANCH  15  22
ATOM     21  C   UNL     1      -0.415  15.996  25.652  0.00  0.00    +0.000 C 
ATOM     22  O   UNL     1      -1.042  14.943  24.925  0.00  0.00    +0.000 OA
ENDBRANCH  15  22
ENDBRANCH  13  20
ENDBRANCH   7  14
ENDBRANCH   1  10
BRANCH   5  23
ATOM     23  C   UNL     1       3.632   5.486  18.478  0.00  0.00    +0.000 C 
ATOM     24  C   UNL     1       3.100   4.605  17.362  0.00  0.00    +0.000 C 
ATOM     25  N   UNL     1       4.909   5.701  18.638  0.00  0.00    +0.000 NA
BRANCH  25  26
ATOM     26  N   UNL     1       5.823   5.127  17.803  0.00  0.00    +0.000 N 
ATOM     27  C   UNL     1       7.134   4.970  18.148  0.00  0.00    +0.000 C 
ATOM     28  N   UNL     1       7.634   5.392  19.261  0.00  0.00    +0.000 NA
ATOM     29  N   UNL     1       7.910   4.295  17.279  0.00  0.00    +0.000 N 
ATOM     30  H   UNL     1       5.555   4.752  16.902  0.00  0.00    +0.000 HD
ATOM     31  H   UNL     1       6.829   5.815  19.745  0.00  0.00    +0.000 HD
ATOM     32  H   UNL     1       7.690   4.263  16.296  0.00  0.00    +0.000 HD
ATOM     33  H   UNL     1       8.898   4.379  17.495  0.00  0.00    +0.000 HD
ENDBRANCH  25  26
ENDBRANCH   5  23
TORSDOF 6
ENDMDL
