MODEL 1
REMARK VINA RESULT:      -7.8      0.000      0.000
REMARK  Name = 
REMARK  3 active torsions:
REMARK  status: ('A' for Active; 'I' for Inactive)
REMARK    1  A    between atoms: N_3  and  C_4
REMARK    2  A    between atoms: N_18  and  S_19
REMARK    3  A    between atoms: S_19  and  O_22
REMARK                            x       y       z     vdW  Elec       q    Type
REMARK                         _______ _______ _______ _____ _____    ______ ____
ROOT
ATOM      1  O   UNL     1       1.328   5.429  20.800  0.00  0.00    +0.000 OA
ATOM      2  C   UNL     1       2.240   5.919  20.141  0.00  0.00    +0.000 C 
ATOM      3  N   UNL     1       2.344   7.262  19.878  0.00  0.00    +0.000 N 
ATOM      4  N   UNL     1       3.260   5.161  19.620  0.00  0.00    +0.000 N 
ATOM      5  C   UNL     1       3.296   3.718  19.838  0.00  0.00    +0.000 C 
ATOM      6  C   UNL     1       4.402   3.225  18.916  0.00  0.00    +0.000 C 
ATOM      7  C   UNL     1       5.434   4.353  18.924  0.00  0.00    +0.000 C 
ATOM      8  C   UNL     1       4.620   5.634  19.260  0.00  0.00    +0.000 C 
ATOM      9  C   UNL     1       4.958   6.053  17.787  0.00  0.00    +0.000 C 
ATOM     10  O   UNL     1       4.821   7.009  17.060  0.00  0.00    +0.000 OA
ATOM     11  N   UNL     1       5.673   4.874  17.568  0.00  0.00    +0.000 N 
ATOM     12  H   UNL     1       2.770   7.494  18.993  0.00  0.00    +0.000 HD
ENDROOT
BRANCH   3  13
ATOM     13  C   UNL     1       1.315   8.199  20.352  0.00  0.00    +0.000 C 
ATOM     14  C   UNL     1       1.138   9.326  19.321  0.00  0.00    +0.000 C 
ATOM     15  C   UNL     1       0.006  10.316  19.594  0.00  0.00    +0.000 C 
ATOM     16  C   UNL     1       0.005  10.955  20.982  0.00  0.00    +0.000 C 
ATOM     17  N   UNL     1      -0.459  10.038  22.011  0.00  0.00    +0.000 NA
ATOM     18  C   UNL     1       0.553   9.171  22.595  0.00  0.00    +0.000 C 
ATOM     19  C   UNL     1       1.732   8.738  21.723  0.00  0.00    +0.000 C 
ATOM     20  H   UNL     1      -1.244   9.486  21.662  0.00  0.00    +0.000 HD
ENDBRANCH   3  13
BRANCH  11  21
ATOM     21  S   UNL     1       7.022   4.751  16.637  0.00  0.00    +0.000 S 
ATOM     22  O   UNL     1       8.077   4.207  17.463  0.00  0.00    +0.000 OA
ATOM     23  O   UNL     1       6.641   4.125  15.396  0.00  0.00    +0.000 OA
BRANCH  21  24
ATOM     24  O   UNL     1       7.426   6.274  16.329  0.00  0.00    +0.000 OA
ATOM     25  H   UNL     1       6.814   6.856  16.821  0.00  0.00    +0.000 HD
ENDBRANCH  21  24
ENDBRANCH  11  21
TORSDOF 3
ENDMDL
MODEL 2
REMARK VINA RESULT:      -7.3      0.388      1.056
REMARK  Name = 
REMARK  3 active torsions:
REMARK  status: ('A' for Active; 'I' for Inactive)
REMARK    1  A    between atoms: N_3  and  C_4
REMARK    2  A    between atoms: N_18  and  S_19
REMARK    3  A    between atoms: S_19  and  O_22
REMARK                            x       y       z     vdW  Elec       q    Type
REMARK                         _______ _______ _______ _____ _____    ______ ____
ROOT
ATOM      1  O   UNL     1       1.193   5.475  20.860  0.00  0.00    +0.000 OA
ATOM      2  C   UNL     1       2.097   5.940  20.173  0.00  0.00    +0.000 C 
ATOM      3  N   UNL     1       2.237   7.280  19.917  0.00  0.00    +0.000 N 
ATOM      4  N   UNL     1       3.072   5.153  19.610  0.00  0.00    +0.000 N 
ATOM      5  C   UNL     1       3.067   3.707  19.815  0.00  0.00    +0.000 C 
ATOM      6  C   UNL     1       4.123   3.186  18.851  0.00  0.00    +0.000 C 
ATOM      7  C   UNL     1       5.191   4.279  18.831  0.00  0.00    +0.000 C 
ATOM      8  C   UNL     1       4.433   5.583  19.205  0.00  0.00    +0.000 C 
ATOM      9  C   UNL     1       4.733   6.004  17.725  0.00  0.00    +0.000 C 
ATOM     10  O   UNL     1       4.602   6.971  17.011  0.00  0.00    +0.000 OA
ATOM     11  N   UNL     1       5.400   4.803  17.471  0.00  0.00    +0.000 N 
ATOM     12  H   UNL     1       2.639   7.506  19.019  0.00  0.00    +0.000 HD
ENDROOT
BRANCH   3  13
ATOM     13  C   UNL     1       1.257   8.247  20.434  0.00  0.00    +0.000 C 
ATOM     14  C   UNL     1       1.069   9.379  19.411  0.00  0.00    +0.000 C 
ATOM     15  C   UNL     1      -0.021  10.402  19.733  0.00  0.00    +0.000 C 
ATOM     16  C   UNL     1       0.058  11.041  21.119  0.00  0.00    +0.000 C 
ATOM     17  N   UNL     1      -0.388  10.136  22.167  0.00  0.00    +0.000 NA
ATOM     18  C   UNL     1       0.622   9.240  22.708  0.00  0.00    +0.000 C 
ATOM     19  C   UNL     1       1.749   8.773  21.785  0.00  0.00    +0.000 C 
ATOM     20  H   UNL     1      -1.203   9.608  21.854  0.00  0.00    +0.000 HD
ENDBRANCH   3  13
BRANCH  11  21
ATOM     21  S   UNL     1       6.711   4.644  16.492  0.00  0.00    +0.000 S 
ATOM     22  O   UNL     1       6.666   5.715  15.522  0.00  0.00    +0.000 OA
ATOM     23  O   UNL     1       7.862   4.439  17.334  0.00  0.00    +0.000 OA
BRANCH  21  24
ATOM     24  O   UNL     1       6.432   3.286  15.682  0.00  0.00    +0.000 OA
ATOM     25  H   UNL     1       5.546   3.351  15.275  0.00  0.00    +0.000 HD
ENDBRANCH  21  24
ENDBRANCH  11  21
TORSDOF 3
ENDMDL
MODEL 3
REMARK VINA RESULT:      -6.9      3.894      7.795
REMARK  Name = 
REMARK  3 active torsions:
REMARK  status: ('A' for Active; 'I' for Inactive)
REMARK    1  A    between atoms: N_3  and  C_4
REMARK    2  A    between atoms: N_18  and  S_19
REMARK    3  A    between atoms: S_19  and  O_22
REMARK                            x       y       z     vdW  Elec       q    Type
REMARK                         _______ _______ _______ _____ _____    ______ ____
ROOT
ATOM      1  O   UNL     1       4.859   6.950  15.584  0.00  0.00    +0.000 OA
ATOM      2  C   UNL     1       4.810   5.869  16.163  0.00  0.00    +0.000 C 
ATOM      3  N   UNL     1       5.262   4.697  15.612  0.00  0.00    +0.000 N 
ATOM      4  N   UNL     1       4.312   5.739  17.436  0.00  0.00    +0.000 N 
ATOM      5  C   UNL     1       3.815   6.905  18.161  0.00  0.00    +0.000 C 
ATOM      6  C   UNL     1       3.135   6.322  19.392  0.00  0.00    +0.000 C 
ATOM      7  C   UNL     1       3.979   5.099  19.748  0.00  0.00    +0.000 C 
ATOM      8  C   UNL     1       4.632   4.663  18.407  0.00  0.00    +0.000 C 
ATOM      9  C   UNL     1       3.708   3.402  18.541  0.00  0.00    +0.000 C 
ATOM     10  O   UNL     1       3.522   2.349  17.977  0.00  0.00    +0.000 OA
ATOM     11  N   UNL     1       3.171   3.868  19.742  0.00  0.00    +0.000 N 
ATOM     12  H   UNL     1       4.762   3.868  15.897  0.00  0.00    +0.000 HD
ENDROOT
BRANCH   3  13
ATOM     13  C   UNL     1       5.804   4.673  14.245  0.00  0.00    +0.000 C 
ATOM     14  C   UNL     1       5.309   3.409  13.522  0.00  0.00    +0.000 C 
ATOM     15  C   UNL     1       5.671   3.296  12.041  0.00  0.00    +0.000 C 
ATOM     16  C   UNL     1       7.151   3.471  11.705  0.00  0.00    +0.000 C 
ATOM     17  N   UNL     1       7.570   4.863  11.770  0.00  0.00    +0.000 NA
ATOM     18  C   UNL     1       7.984   5.343  13.079  0.00  0.00    +0.000 C 
ATOM     19  C   UNL     1       7.333   4.728  14.319  0.00  0.00    +0.000 C 
ATOM     20  H   UNL     1       6.846   5.467  11.380  0.00  0.00    +0.000 HD
ENDBRANCH   3  13
BRANCH  11  21
ATOM     21  S   UNL     1       2.732   2.915  21.008  0.00  0.00    +0.000 S 
ATOM     22  O   UNL     1       3.854   2.061  21.324  0.00  0.00    +0.000 OA
ATOM     23  O   UNL     1       2.128   3.764  22.004  0.00  0.00    +0.000 OA
BRANCH  21  24
ATOM     24  O   UNL     1       1.591   1.961  20.402  0.00  0.00    +0.000 OA
ATOM     25  H   UNL     1       0.785   2.498  20.268  0.00  0.00    +0.000 HD
ENDBRANCH  21  24
ENDBRANCH  11  21
TORSDOF 3
ENDMDL
MODEL 4
REMARK VINA RESULT:      -6.8      2.651      3.715
REMARK  Name = 
REMARK  3 active torsions:
REMARK  status: ('A' for Active; 'I' for Inactive)
REMARK    1  A    between atoms: N_3  and  C_4
REMARK    2  A    between atoms: N_18  and  S_19
REMARK    3  A    between atoms: S_19  and  O_22
REMARK                            x       y       z     vdW  Elec       q    Type
REMARK                         _______ _______ _______ _____ _____    ______ ____
ROOT
ATOM      1  O   UNL     1       2.846   9.366  17.626  0.00  0.00    +0.000 OA
ATOM      2  C   UNL     1       2.512   8.367  18.256  0.00  0.00    +0.000 C 
ATOM      3  N   UNL     1       1.582   8.387  19.265  0.00  0.00    +0.000 N 
ATOM      4  N   UNL     1       3.029   7.123  17.990  0.00  0.00    +0.000 N 
ATOM      5  C   UNL     1       4.013   6.941  16.927  0.00  0.00    +0.000 C 
ATOM      6  C   UNL     1       4.512   5.515  17.115  0.00  0.00    +0.000 C 
ATOM      7  C   UNL     1       3.286   4.746  17.606  0.00  0.00    +0.000 C 
ATOM      8  C   UNL     1       2.395   5.816  18.296  0.00  0.00    +0.000 C 
ATOM      9  C   UNL     1       2.748   5.043  19.614  0.00  0.00    +0.000 C 
ATOM     10  O   UNL     1       2.447   5.059  20.785  0.00  0.00    +0.000 OA
ATOM     11  N   UNL     1       3.532   4.122  18.917  0.00  0.00    +0.000 N 
ATOM     12  H   UNL     1       1.734   7.715  20.002  0.00  0.00    +0.000 HD
ENDROOT
BRANCH   3  13
ATOM     13  C   UNL     1       0.955   9.652  19.679  0.00  0.00    +0.000 C 
ATOM     14  C   UNL     1       0.529   9.551  21.153  0.00  0.00    +0.000 C 
ATOM     15  C   UNL     1      -0.020  10.831  21.784  0.00  0.00    +0.000 C 
ATOM     16  C   UNL     1      -1.154  11.513  21.020  0.00  0.00    +0.000 C 
ATOM     17  N   UNL     1      -0.677  12.219  19.841  0.00  0.00    +0.000 NA
ATOM     18  C   UNL     1      -0.563  11.425  18.626  0.00  0.00    +0.000 C 
ATOM     19  C   UNL     1      -0.234   9.938  18.758  0.00  0.00    +0.000 C 
ATOM     20  H   UNL     1       0.205  12.689  20.044  0.00  0.00    +0.000 HD
ENDBRANCH   3  13
BRANCH  11  21
ATOM     21  S   UNL     1       3.667   2.527  19.292  0.00  0.00    +0.000 S 
ATOM     22  O   UNL     1       4.776   2.385  20.209  0.00  0.00    +0.000 OA
ATOM     23  O   UNL     1       2.350   2.044  19.624  0.00  0.00    +0.000 OA
BRANCH  21  24
ATOM     24  O   UNL     1       4.124   1.838  17.916  0.00  0.00    +0.000 OA
ATOM     25  H   UNL     1       3.723   0.947  17.874  0.00  0.00    +0.000 HD
ENDBRANCH  21  24
ENDBRANCH  11  21
TORSDOF 3
ENDMDL
MODEL 5
REMARK VINA RESULT:      -6.8      2.895      4.203
REMARK  Name = 
REMARK  3 active torsions:
REMARK  status: ('A' for Active; 'I' for Inactive)
REMARK    1  A    between atoms: N_3  and  C_4
REMARK    2  A    between atoms: N_18  and  S_19
REMARK    3  A    between atoms: S_19  and  O_22
REMARK                            x       y       z     vdW  Elec       q    Type
REMARK                         _______ _______ _______ _____ _____    ______ ____
ROOT
ATOM      1  O   UNL     1       2.587   9.815  17.460  0.00  0.00    +0.000 OA
ATOM      2  C   UNL     1       2.168   8.845  18.085  0.00  0.00    +0.000 C 
ATOM      3  N   UNL     1       1.038   8.880  18.864  0.00  0.00    +0.000 N 
ATOM      4  N   UNL     1       2.785   7.619  18.042  0.00  0.00    +0.000 N 
ATOM      5  C   UNL     1       3.986   7.422  17.235  0.00  0.00    +0.000 C 
ATOM      6  C   UNL     1       4.494   6.048  17.645  0.00  0.00    +0.000 C 
ATOM      7  C   UNL     1       3.226   5.241  17.922  0.00  0.00    +0.000 C 
ATOM      8  C   UNL     1       2.158   6.301  18.312  0.00  0.00    +0.000 C 
ATOM      9  C   UNL     1       2.247   5.648  19.735  0.00  0.00    +0.000 C 
ATOM     10  O   UNL     1       1.696   5.730  20.808  0.00  0.00    +0.000 OA
ATOM     11  N   UNL     1       3.205   4.729  19.303  0.00  0.00    +0.000 N 
ATOM     12  H   UNL     1       1.054   8.273  19.670  0.00  0.00    +0.000 HD
ENDROOT
BRANCH   3  13
ATOM     13  C   UNL     1       0.280  10.130  19.026  0.00  0.00    +0.000 C 
ATOM     14  C   UNL     1      -0.038  10.344  20.515  0.00  0.00    +0.000 C 
ATOM     15  C   UNL     1      -0.707  11.671  20.876  0.00  0.00    +0.000 C 
ATOM     16  C   UNL     1      -1.965  12.016  20.080  0.00  0.00    +0.000 C 
ATOM     17  N   UNL     1      -1.658  12.462  18.730  0.00  0.00    +0.000 NA
ATOM     18  C   UNL     1      -1.517  11.415  17.730  0.00  0.00    +0.000 C 
ATOM     19  C   UNL     1      -0.991  10.049  18.175  0.00  0.00    +0.000 C 
ATOM     20  H   UNL     1      -0.833  13.063  18.737  0.00  0.00    +0.000 HD
ENDBRANCH   3  13
BRANCH  11  21
ATOM     21  S   UNL     1       3.326   3.177  19.831  0.00  0.00    +0.000 S 
ATOM     22  O   UNL     1       2.396   2.379  19.062  0.00  0.00    +0.000 OA
ATOM     23  O   UNL     1       4.727   2.846  19.895  0.00  0.00    +0.000 OA
BRANCH  21  24
ATOM     24  O   UNL     1       2.751   3.227  21.329  0.00  0.00    +0.000 OA
ATOM     25  H   UNL     1       3.303   3.847  21.846  0.00  0.00    +0.000 HD
ENDBRANCH  21  24
ENDBRANCH  11  21
TORSDOF 3
ENDMDL
MODEL 6
REMARK VINA RESULT:      -6.6      4.338      7.669
REMARK  Name = 
REMARK  3 active torsions:
REMARK  status: ('A' for Active; 'I' for Inactive)
REMARK    1  A    between atoms: N_3  and  C_4
REMARK    2  A    between atoms: N_18  and  S_19
REMARK    3  A    between atoms: S_19  and  O_22
REMARK                            x       y       z     vdW  Elec       q    Type
REMARK                         _______ _______ _______ _____ _____    ______ ____
ROOT
ATOM      1  O   UNL     1       1.857   6.820  20.892  0.00  0.00    +0.000 OA
ATOM      2  C   UNL     1       1.788   7.712  20.051  0.00  0.00    +0.000 C 
ATOM      3  N   UNL     1       2.393   7.639  18.822  0.00  0.00    +0.000 N 
ATOM      4  N   UNL     1       1.072   8.865  20.260  0.00  0.00    +0.000 N 
ATOM      5  C   UNL     1       0.353   9.075  21.514  0.00  0.00    +0.000 C 
ATOM      6  C   UNL     1      -0.084  10.532  21.459  0.00  0.00    +0.000 C 
ATOM      7  C   UNL     1      -0.380  10.783  19.980  0.00  0.00    +0.000 C 
ATOM      8  C   UNL     1       0.503   9.756  19.218  0.00  0.00    +0.000 C 
ATOM      9  C   UNL     1       1.289  11.021  18.729  0.00  0.00    +0.000 C 
ATOM     10  O   UNL     1       2.187  11.294  17.966  0.00  0.00    +0.000 OA
ATOM     11  N   UNL     1       0.449  11.876  19.444  0.00  0.00    +0.000 N 
ATOM     12  H   UNL     1       2.700   8.522  18.442  0.00  0.00    +0.000 HD
ENDROOT
BRANCH   3  13
ATOM     13  C   UNL     1       3.213   6.473  18.460  0.00  0.00    +0.000 C 
ATOM     14  C   UNL     1       4.236   6.883  17.388  0.00  0.00    +0.000 C 
ATOM     15  C   UNL     1       5.262   5.819  16.996  0.00  0.00    +0.000 C 
ATOM     16  C   UNL     1       4.687   4.462  16.592  0.00  0.00    +0.000 C 
ATOM     17  N   UNL     1       4.230   3.694  17.740  0.00  0.00    +0.000 NA
ATOM     18  C   UNL     1       2.867   3.952  18.177  0.00  0.00    +0.000 C 
ATOM     19  C   UNL     1       2.290   5.353  17.972  0.00  0.00    +0.000 C 
ATOM     20  H   UNL     1       4.881   3.802  18.518  0.00  0.00    +0.000 HD
ENDBRANCH   3  13
BRANCH  11  21
ATOM     21  S   UNL     1      -0.012  13.374  18.949  0.00  0.00    +0.000 S 
ATOM     22  O   UNL     1      -0.976  13.874  19.903  0.00  0.00    +0.000 OA
ATOM     23  O   UNL     1       1.183  14.114  18.629  0.00  0.00    +0.000 OA
BRANCH  21  24
ATOM     24  O   UNL     1      -0.818  13.106  17.587  0.00  0.00    +0.000 OA
ATOM     25  H   UNL     1      -0.204  13.243  16.838  0.00  0.00    +0.000 HD
ENDBRANCH  21  24
ENDBRANCH  11  21
TORSDOF 3
ENDMDL
MODEL 7
REMARK VINA RESULT:      -6.6      3.895      7.884
REMARK  Name = 
REMARK  3 active torsions:
REMARK  status: ('A' for Active; 'I' for Inactive)
REMARK    1  A    between atoms: N_3  and  C_4
REMARK    2  A    between atoms: N_18  and  S_19
REMARK    3  A    between atoms: S_19  and  O_22
REMARK                            x       y       z     vdW  Elec       q    Type
REMARK                         _______ _______ _______ _____ _____    ______ ____
ROOT
ATOM      1  O   UNL     1       5.218   6.385  15.493  0.00  0.00    +0.000 OA
ATOM      2  C   UNL     1       5.128   5.363  16.166  0.00  0.00    +0.000 C 
ATOM      3  N   UNL     1       5.663   4.158  15.785  0.00  0.00    +0.000 N 
ATOM      4  N   UNL     1       4.497   5.339  17.386  0.00  0.00    +0.000 N 
ATOM      5  C   UNL     1       3.900   6.553  17.935  0.00  0.00    +0.000 C 
ATOM      6  C   UNL     1       3.102   6.069  19.138  0.00  0.00    +0.000 C 
ATOM      7  C   UNL     1       3.928   4.912  19.700  0.00  0.00    +0.000 C 
ATOM      8  C   UNL     1       4.732   4.371  18.486  0.00  0.00    +0.000 C 
ATOM      9  C   UNL     1       3.825   3.101  18.644  0.00  0.00    +0.000 C 
ATOM     10  O   UNL     1       3.723   1.993  18.170  0.00  0.00    +0.000 OA
ATOM     11  N   UNL     1       3.151   3.662  19.730  0.00  0.00    +0.000 N 
ATOM     12  H   UNL     1       5.151   3.345  16.094  0.00  0.00    +0.000 HD
ENDROOT
BRANCH   3  13
ATOM     13  C   UNL     1       6.351   4.021  14.492  0.00  0.00    +0.000 C 
ATOM     14  C   UNL     1       7.240   5.252  14.255  0.00  0.00    +0.000 C 
ATOM     15  C   UNL     1       8.134   5.208  13.015  0.00  0.00    +0.000 C 
ATOM     16  C   UNL     1       7.425   4.889  11.699  0.00  0.00    +0.000 C 
ATOM     17  N   UNL     1       7.083   3.480  11.585  0.00  0.00    +0.000 NA
ATOM     18  C   UNL     1       5.811   3.083  12.171  0.00  0.00    +0.000 C 
ATOM     19  C   UNL     1       5.301   3.852  13.390  0.00  0.00    +0.000 C 
ATOM     20  H   UNL     1       7.841   2.903  11.952  0.00  0.00    +0.000 HD
ENDBRANCH   3  13
BRANCH  11  21
ATOM     21  S   UNL     1       2.595   2.821  21.028  0.00  0.00    +0.000 S 
ATOM     22  O   UNL     1       1.340   2.211  20.651  0.00  0.00    +0.000 OA
ATOM     23  O   UNL     1       3.690   2.035  21.540  0.00  0.00    +0.000 OA
BRANCH  21  24
ATOM     24  O   UNL     1       2.243   3.955  22.108  0.00  0.00    +0.000 OA
ATOM     25  H   UNL     1       2.415   3.591  22.999  0.00  0.00    +0.000 HD
ENDBRANCH  21  24
ENDBRANCH  11  21
TORSDOF 3
ENDMDL
MODEL 8
REMARK VINA RESULT:      -6.6      4.033      7.476
REMARK  Name = 
REMARK  3 active torsions:
REMARK  status: ('A' for Active; 'I' for Inactive)
REMARK    1  A    between atoms: N_3  and  C_4
REMARK    2  A    between atoms: N_18  and  S_19
REMARK    3  A    between atoms: S_19  and  O_22
REMARK                            x       y       z     vdW  Elec       q    Type
REMARK                         _______ _______ _______ _____ _____    ______ ____
ROOT
ATOM      1  O   UNL     1       2.827   6.083  20.234  0.00  0.00    +0.000 OA
ATOM      2  C   UNL     1       2.610   7.014  19.464  0.00  0.00    +0.000 C 
ATOM      3  N   UNL     1       3.129   7.079  18.195  0.00  0.00    +0.000 N 
ATOM      4  N   UNL     1       1.803   8.073  19.799  0.00  0.00    +0.000 N 
ATOM      5  C   UNL     1       1.161   8.130  21.109  0.00  0.00    +0.000 C 
ATOM      6  C   UNL     1       0.581   9.536  21.183  0.00  0.00    +0.000 C 
ATOM      7  C   UNL     1       0.156   9.847  19.748  0.00  0.00    +0.000 C 
ATOM      8  C   UNL     1       1.076   8.964  18.861  0.00  0.00    +0.000 C 
ATOM      9  C   UNL     1       1.699  10.331  18.409  0.00  0.00    +0.000 C 
ATOM     10  O   UNL     1       2.508  10.741  17.609  0.00  0.00    +0.000 OA
ATOM     11  N   UNL     1       0.834  11.050  19.236  0.00  0.00    +0.000 N 
ATOM     12  H   UNL     1       3.321   8.011  17.858  0.00  0.00    +0.000 HD
ENDROOT
BRANCH   3  13
ATOM     13  C   UNL     1       4.030   6.027  17.700  0.00  0.00    +0.000 C 
ATOM     14  C   UNL     1       4.777   6.539  16.458  0.00  0.00    +0.000 C 
ATOM     15  C   UNL     1       5.858   5.616  15.895  0.00  0.00    +0.000 C 
ATOM     16  C   UNL     1       5.421   4.179  15.612  0.00  0.00    +0.000 C 
ATOM     17  N   UNL     1       5.290   3.394  16.830  0.00  0.00    +0.000 NA
ATOM     18  C   UNL     1       4.003   3.474  17.504  0.00  0.00    +0.000 C 
ATOM     19  C   UNL     1       3.204   4.774  17.396  0.00  0.00    +0.000 C 
ATOM     20  H   UNL     1       6.046   3.617  17.477  0.00  0.00    +0.000 HD
ENDBRANCH   3  13
BRANCH  11  21
ATOM     21  S   UNL     1       0.195  12.522  18.877  0.00  0.00    +0.000 S 
ATOM     22  O   UNL     1      -0.974  12.303  18.056  0.00  0.00    +0.000 OA
ATOM     23  O   UNL     1       0.124  13.277  20.103  0.00  0.00    +0.000 OA
BRANCH  21  24
ATOM     24  O   UNL     1       1.296  13.206  17.929  0.00  0.00    +0.000 OA
ATOM     25  H   UNL     1       2.098  12.648  17.943  0.00  0.00    +0.000 HD
ENDBRANCH  21  24
ENDBRANCH  11  21
TORSDOF 3
ENDMDL
MODEL 9
REMARK VINA RESULT:      -6.5      3.945      7.992
REMARK  Name = 
REMARK  3 active torsions:
REMARK  status: ('A' for Active; 'I' for Inactive)
REMARK    1  A    between atoms: N_3  and  C_4
REMARK    2  A    between atoms: N_18  and  S_19
REMARK    3  A    between atoms: S_19  and  O_22
REMARK                            x       y       z     vdW  Elec       q    Type
REMARK                         _______ _______ _______ _____ _____    ______ ____
ROOT
ATOM      1  O   UNL     1       2.677   8.294  17.096  0.00  0.00    +0.000 OA
ATOM      2  C   UNL     1       2.226   8.277  18.237  0.00  0.00    +0.000 C 
ATOM      3  N   UNL     1       2.299   7.183  19.062  0.00  0.00    +0.000 N 
ATOM      4  N   UNL     1       1.620   9.372  18.804  0.00  0.00    +0.000 N 
ATOM      5  C   UNL     1       1.490  10.618  18.055  0.00  0.00    +0.000 C 
ATOM      6  C   UNL     1       0.566  11.476  18.907  0.00  0.00    +0.000 C 
ATOM      7  C   UNL     1       0.923  11.103  20.346  0.00  0.00    +0.000 C 
ATOM      8  C   UNL     1       1.489   9.660  20.254  0.00  0.00    +0.000 C 
ATOM      9  C   UNL     1       0.189   9.261  21.036  0.00  0.00    +0.000 C 
ATOM     10  O   UNL     1      -0.297   8.281  21.550  0.00  0.00    +0.000 OA
ATOM     11  N   UNL     1      -0.248  10.586  21.074  0.00  0.00    +0.000 N 
ATOM     12  H   UNL     1       1.531   7.081  19.708  0.00  0.00    +0.000 HD
ENDROOT
BRANCH   3  13
ATOM     13  C   UNL     1       2.902   5.928  18.588  0.00  0.00    +0.000 C 
ATOM     14  C   UNL     1       1.788   4.954  18.169  0.00  0.00    +0.000 C 
ATOM     15  C   UNL     1       2.245   3.647  17.523  0.00  0.00    +0.000 C 
ATOM     16  C   UNL     1       3.287   2.849  18.306  0.00  0.00    +0.000 C 
ATOM     17  N   UNL     1       4.614   3.437  18.214  0.00  0.00    +0.000 NA
ATOM     18  C   UNL     1       4.921   4.472  19.189  0.00  0.00    +0.000 C 
ATOM     19  C   UNL     1       3.779   5.350  19.702  0.00  0.00    +0.000 C 
ATOM     20  H   UNL     1       4.785   3.775  17.267  0.00  0.00    +0.000 HD
ENDBRANCH   3  13
BRANCH  11  21
ATOM     21  S   UNL     1      -1.074  11.269  22.320  0.00  0.00    +0.000 S 
ATOM     22  O   UNL     1      -0.196  12.226  22.956  0.00  0.00    +0.000 OA
ATOM     23  O   UNL     1      -2.373  11.652  21.825  0.00  0.00    +0.000 OA
BRANCH  21  24
ATOM     24  O   UNL     1      -1.269  10.067  23.366  0.00  0.00    +0.000 OA
ATOM     25  H   UNL     1      -0.386   9.712  23.590  0.00  0.00    +0.000 HD
ENDBRANCH  21  24
ENDBRANCH  11  21
TORSDOF 3
ENDMDL
