MODEL 1
REMARK VINA RESULT:      -8.2      0.000      0.000
REMARK  Name = 
REMARK  4 active torsions:
REMARK  status: ('A' for Active; 'I' for Inactive)
REMARK    1  A    between atoms: C_2  and  C_3
REMARK    2  A    between atoms: C_8  and  C_10
REMARK    3  A    between atoms: C_10  and  N_11
REMARK    4  A    between atoms: N_11  and  C_12
REMARK                            x       y       z     vdW  Elec       q    Type
REMARK                         _______ _______ _______ _____ _____    ______ ____
ROOT
ATOM      1  C   UNL     1       1.609   5.750  20.428  0.00  0.00    +0.000 C 
ATOM      2  C   UNL     1       2.563   4.697  20.998  0.00  0.00    +0.000 C 
ATOM      3  C   UNL     1       2.476   3.510  20.029  0.00  0.00    +0.000 C 
ATOM      4  C   UNL     1       3.841   2.934  19.641  0.00  0.00    +0.000 C 
ATOM      5  N   UNL     1       4.148   3.541  18.353  0.00  0.00    +0.000 N 
ATOM      6  C   UNL     1       5.344   4.202  18.161  0.00  0.00    +0.000 C 
ATOM      7  O   UNL     1       6.148   4.323  19.090  0.00  0.00    +0.000 OA
ATOM      8  N   UNL     1       5.636   4.708  16.911  0.00  0.00    +0.000 N 
ATOM      9  C   UNL     1       4.964   4.403  15.648  0.00  0.00    +0.000 C 
ATOM     10  C   UNL     1       5.946   4.060  14.531  0.00  0.00    +0.000 C 
ATOM     11  O   UNL     1       6.956   5.061  14.390  0.00  0.00    +0.000 OA
ATOM     12  C   UNL     1       7.686   5.202  15.620  0.00  0.00    +0.000 C 
ATOM     13  C   UNL     1       6.761   5.640  16.760  0.00  0.00    +0.000 C 
ATOM     14  C   UNL     1       2.899   3.748  17.640  0.00  0.00    +0.000 C 
ATOM     15  C   UNL     1       1.894   4.080  18.725  0.00  0.00    +0.000 C 
ATOM     16  C   UNL     1       1.805   5.590  18.929  0.00  0.00    +0.000 C 
ENDROOT
BRANCH   1  17
ATOM     17  N   UNL     1       1.926   7.093  20.891  0.00  0.00    +0.000 NA
ATOM     18  H   UNL     1       2.505   7.082  21.731  0.00  0.00    +0.000 HD
BRANCH  17  19
ATOM     19  C   UNL     1       0.724   7.904  21.114  0.00  0.00    +0.000 C 
BRANCH  19  25
ATOM     20  C   UNL     1       0.318  10.149  19.230  0.00  0.00    +0.000 C 
ATOM     21  C   UNL     1       0.014  11.588  18.793  0.00  0.00    +0.000 C 
ATOM     22  C   UNL     1       1.095  12.402  19.499  0.00  0.00    +0.000 C 
ATOM     23  C   UNL     1       1.214  11.702  20.843  0.00  0.00    +0.000 C 
ATOM     24  N   UNL     1       0.922  10.314  20.556  0.00  0.00    +0.000 N 
ATOM     25  C   UNL     1       1.062   9.342  21.539  0.00  0.00    +0.000 C 
ATOM     26  O   UNL     1       1.416   9.636  22.682  0.00  0.00    +0.000 OA
BRANCH  20  28
ATOM     27  N   UNL     1       1.926   8.984  17.490  0.00  0.00    +0.000 NA
ATOM     28  C   UNL     1       1.222   9.487  18.267  0.00  0.00    +0.000 C 
ENDBRANCH  20  28
ENDBRANCH  19  25
ENDBRANCH  17  19
ENDBRANCH   1  17
TORSDOF 4
ENDMDL
MODEL 2
REMARK VINA RESULT:      -7.6      1.461      2.076
REMARK  Name = 
REMARK  4 active torsions:
REMARK  status: ('A' for Active; 'I' for Inactive)
REMARK    1  A    between atoms: C_2  and  C_3
REMARK    2  A    between atoms: C_8  and  C_10
REMARK    3  A    between atoms: C_10  and  N_11
REMARK    4  A    between atoms: N_11  and  C_12
REMARK                            x       y       z     vdW  Elec       q    Type
REMARK                         _______ _______ _______ _____ _____    ______ ____
ROOT
ATOM      1  C   UNL     1       1.215   4.575  20.359  0.00  0.00    +0.000 C 
ATOM      2  C   UNL     1       2.421   3.945  21.058  0.00  0.00    +0.000 C 
ATOM      3  C   UNL     1       2.780   2.716  20.210  0.00  0.00    +0.000 C 
ATOM      4  C   UNL     1       4.278   2.587  19.921  0.00  0.00    +0.000 C 
ATOM      5  N   UNL     1       4.450   3.150  18.588  0.00  0.00    +0.000 N 
ATOM      6  C   UNL     1       5.378   4.146  18.366  0.00  0.00    +0.000 C 
ATOM      7  O   UNL     1       6.043   4.602  19.301  0.00  0.00    +0.000 OA
ATOM      8  N   UNL     1       5.565   4.612  17.081  0.00  0.00    +0.000 N 
ATOM      9  C   UNL     1       5.104   3.998  15.836  0.00  0.00    +0.000 C 
ATOM     10  C   UNL     1       6.209   3.902  14.788  0.00  0.00    +0.000 C 
ATOM     11  O   UNL     1       6.849   5.162  14.576  0.00  0.00    +0.000 OA
ATOM     12  C   UNL     1       7.420   5.637  15.807  0.00  0.00    +0.000 C 
ATOM     13  C   UNL     1       6.336   5.844  16.870  0.00  0.00    +0.000 C 
ATOM     14  C   UNL     1       3.246   2.877  17.823  0.00  0.00    +0.000 C 
ATOM     15  C   UNL     1       2.124   2.952  18.839  0.00  0.00    +0.000 C 
ATOM     16  C   UNL     1       1.541   4.362  18.889  0.00  0.00    +0.000 C 
ENDROOT
BRANCH   1  17
ATOM     17  N   UNL     1       1.054   5.983  20.694  0.00  0.00    +0.000 NA
ATOM     18  H   UNL     1       0.219   6.385  20.269  0.00  0.00    +0.000 HD
BRANCH  17  19
ATOM     19  C   UNL     1       2.236   6.778  20.341  0.00  0.00    +0.000 C 
BRANCH  19  25
ATOM     20  C   UNL     1       1.193   9.471  20.987  0.00  0.00    +0.000 C 
ATOM     21  C   UNL     1       0.972  10.978  20.812  0.00  0.00    +0.000 C 
ATOM     22  C   UNL     1       0.320  11.078  19.435  0.00  0.00    +0.000 C 
ATOM     23  C   UNL     1       1.057  10.012  18.641  0.00  0.00    +0.000 C 
ATOM     24  N   UNL     1       1.375   8.989  19.614  0.00  0.00    +0.000 N 
ATOM     25  C   UNL     1       1.945   7.785  19.218  0.00  0.00    +0.000 C 
ATOM     26  O   UNL     1       2.216   7.566  18.036  0.00  0.00    +0.000 OA
BRANCH  20  28
ATOM     27  N   UNL     1      -0.853   8.341  22.215  0.00  0.00    +0.000 NA
ATOM     28  C   UNL     1       0.038   8.846  21.665  0.00  0.00    +0.000 C 
ENDBRANCH  20  28
ENDBRANCH  19  25
ENDBRANCH  17  19
ENDBRANCH   1  17
TORSDOF 4
ENDMDL
MODEL 3
REMARK VINA RESULT:      -7.5      1.130      1.321
REMARK  Name = 
REMARK  4 active torsions:
REMARK  status: ('A' for Active; 'I' for Inactive)
REMARK    1  A    between atoms: C_2  and  C_3
REMARK    2  A    between atoms: C_8  and  C_10
REMARK    3  A    between atoms: C_10  and  N_11
REMARK    4  A    between atoms: N_11  and  C_12
REMARK                            x       y       z     vdW  Elec       q    Type
REMARK                         _______ _______ _______ _____ _____    ______ ____
ROOT
ATOM      1  C   UNL     1       1.024   4.286  20.396  0.00  0.00    +0.000 C 
ATOM      2  C   UNL     1       2.227   3.722  21.157  0.00  0.00    +0.000 C 
ATOM      3  C   UNL     1       2.747   2.568  20.287  0.00  0.00    +0.000 C 
ATOM      4  C   UNL     1       4.267   2.574  20.106  0.00  0.00    +0.000 C 
ATOM      5  N   UNL     1       4.485   3.211  18.814  0.00  0.00    +0.000 N 
ATOM      6  C   UNL     1       5.340   4.288  18.704  0.00  0.00    +0.000 C 
ATOM      7  O   UNL     1       5.897   4.751  19.704  0.00  0.00    +0.000 OA
ATOM      8  N   UNL     1       5.578   4.828  17.456  0.00  0.00    +0.000 N 
ATOM      9  C   UNL     1       5.260   4.239  16.156  0.00  0.00    +0.000 C 
ATOM     10  C   UNL     1       6.440   4.282  15.190  0.00  0.00    +0.000 C 
ATOM     11  O   UNL     1       6.986   5.598  15.080  0.00  0.00    +0.000 OA
ATOM     12  C   UNL     1       7.427   6.059  16.369  0.00  0.00    +0.000 C 
ATOM     13  C   UNL     1       6.257   6.127  17.355  0.00  0.00    +0.000 C 
ATOM     14  C   UNL     1       3.365   2.879  17.951  0.00  0.00    +0.000 C 
ATOM     15  C   UNL     1       2.172   2.815  18.883  0.00  0.00    +0.000 C 
ATOM     16  C   UNL     1       1.471   4.169  18.948  0.00  0.00    +0.000 C 
ENDROOT
BRANCH   1  17
ATOM     17  N   UNL     1       0.723   5.658  20.777  0.00  0.00    +0.000 NA
ATOM     18  H   UNL     1      -0.162   5.979  20.385  0.00  0.00    +0.000 HD
BRANCH  17  19
ATOM     19  C   UNL     1       1.803   6.586  20.419  0.00  0.00    +0.000 C 
BRANCH  19  25
ATOM     20  C   UNL     1       1.095   8.660  18.430  0.00  0.00    +0.000 C 
ATOM     21  C   UNL     1       0.421   9.928  17.893  0.00  0.00    +0.000 C 
ATOM     22  C   UNL     1       0.951  11.023  18.816  0.00  0.00    +0.000 C 
ATOM     23  C   UNL     1       0.987  10.329  20.168  0.00  0.00    +0.000 C 
ATOM     24  N   UNL     1       1.274   8.945  19.858  0.00  0.00    +0.000 N 
ATOM     25  C   UNL     1       1.509   8.025  20.872  0.00  0.00    +0.000 C 
ATOM     26  O   UNL     1       1.457   8.355  22.059  0.00  0.00    +0.000 OA
BRANCH  20  28
ATOM     27  N   UNL     1       3.367   8.188  17.171  0.00  0.00    +0.000 NA
ATOM     28  C   UNL     1       2.373   8.408  17.733  0.00  0.00    +0.000 C 
ENDBRANCH  20  28
ENDBRANCH  19  25
ENDBRANCH  17  19
ENDBRANCH   1  17
TORSDOF 4
ENDMDL
MODEL 4
REMARK VINA RESULT:      -7.0      1.213      1.962
REMARK  Name = 
REMARK  4 active torsions:
REMARK  status: ('A' for Active; 'I' for Inactive)
REMARK    1  A    between atoms: C_2  and  C_3
REMARK    2  A    between atoms: C_8  and  C_10
REMARK    3  A    between atoms: C_10  and  N_11
REMARK    4  A    between atoms: N_11  and  C_12
REMARK                            x       y       z     vdW  Elec       q    Type
REMARK                         _______ _______ _______ _____ _____    ______ ____
ROOT
ATOM      1  C   UNL     1       1.714   6.180  20.216  0.00  0.00    +0.000 C 
ATOM      2  C   UNL     1       2.585   5.085  20.836  0.00  0.00    +0.000 C 
ATOM      3  C   UNL     1       2.405   3.863  19.922  0.00  0.00    +0.000 C 
ATOM      4  C   UNL     1       3.721   3.167  19.565  0.00  0.00    +0.000 C 
ATOM      5  N   UNL     1       4.073   3.688  18.251  0.00  0.00    +0.000 N 
ATOM      6  C   UNL     1       5.316   4.244  18.032  0.00  0.00    +0.000 C 
ATOM      7  O   UNL     1       6.128   4.345  18.956  0.00  0.00    +0.000 OA
ATOM      8  N   UNL     1       5.644   4.668  16.760  0.00  0.00    +0.000 N 
ATOM      9  C   UNL     1       4.949   4.358  15.511  0.00  0.00    +0.000 C 
ATOM     10  C   UNL     1       5.900   3.889  14.414  0.00  0.00    +0.000 C 
ATOM     11  O   UNL     1       6.985   4.801  14.228  0.00  0.00    +0.000 OA
ATOM     12  C   UNL     1       7.725   4.942  15.453  0.00  0.00    +0.000 C 
ATOM     13  C   UNL     1       6.838   5.503  16.569  0.00  0.00    +0.000 C 
ATOM     14  C   UNL     1       2.843   3.958  17.527  0.00  0.00    +0.000 C 
ATOM     15  C   UNL     1       1.867   4.416  18.592  0.00  0.00    +0.000 C 
ATOM     16  C   UNL     1       1.896   5.936  18.726  0.00  0.00    +0.000 C 
ENDROOT
BRANCH   1  17
ATOM     17  N   UNL     1       2.136   7.515  20.617  0.00  0.00    +0.000 NA
ATOM     18  H   UNL     1       2.651   7.505  21.497  0.00  0.00    +0.000 HD
BRANCH  17  19
ATOM     19  C   UNL     1       1.010   8.453  20.699  0.00  0.00    +0.000 C 
BRANCH  19  25
ATOM     20  C   UNL     1       0.937  11.368  21.201  0.00  0.00    +0.000 C 
ATOM     21  C   UNL     1       1.204  12.854  20.931  0.00  0.00    +0.000 C 
ATOM     22  C   UNL     1       0.532  13.090  19.581  0.00  0.00    +0.000 C 
ATOM     23  C   UNL     1       0.833  11.802  18.831  0.00  0.00    +0.000 C 
ATOM     24  N   UNL     1       0.864  10.783  19.858  0.00  0.00    +0.000 N 
ATOM     25  C   UNL     1       0.989   9.441  19.522  0.00  0.00    +0.000 C 
ATOM     26  O   UNL     1       1.097   9.084  18.347  0.00  0.00    +0.000 OA
BRANCH  20  28
ATOM     27  N   UNL     1      -1.292  11.023  22.575  0.00  0.00    +0.000 NA
ATOM     28  C   UNL     1      -0.312  11.191  21.971  0.00  0.00    +0.000 C 
ENDBRANCH  20  28
ENDBRANCH  19  25
ENDBRANCH  17  19
ENDBRANCH   1  17
TORSDOF 4
ENDMDL
MODEL 5
REMARK VINA RESULT:      -7.0      2.994      8.731
REMARK  Name = 
REMARK  4 active torsions:
REMARK  status: ('A' for Active; 'I' for Inactive)
REMARK    1  A    between atoms: C_2  and  C_3
REMARK    2  A    between atoms: C_8  and  C_10
REMARK    3  A    between atoms: C_10  and  N_11
REMARK    4  A    between atoms: N_11  and  C_12
REMARK                            x       y       z     vdW  Elec       q    Type
REMARK                         _______ _______ _______ _____ _____    ______ ____
ROOT
ATOM      1  C   UNL     1       0.644   8.778  20.752  0.00  0.00    +0.000 C 
ATOM      2  C   UNL     1       0.574   9.371  19.343  0.00  0.00    +0.000 C 
ATOM      3  C   UNL     1      -0.438  10.522  19.442  0.00  0.00    +0.000 C 
ATOM      4  C   UNL     1       0.032  11.812  18.765  0.00  0.00    +0.000 C 
ATOM      5  N   UNL     1       0.569  12.626  19.848  0.00  0.00    +0.000 N 
ATOM      6  C   UNL     1       1.844  13.145  19.764  0.00  0.00    +0.000 C 
ATOM      7  O   UNL     1       2.561  12.891  18.792  0.00  0.00    +0.000 OA
ATOM      8  N   UNL     1       2.300  13.968  20.774  0.00  0.00    +0.000 N 
ATOM      9  C   UNL     1       1.509  14.611  21.823  0.00  0.00    +0.000 C 
ATOM     10  C   UNL     1       1.824  16.097  21.964  0.00  0.00    +0.000 C 
ATOM     11  O   UNL     1       3.227  16.328  22.113  0.00  0.00    +0.000 OA
ATOM     12  C   UNL     1       3.935  15.812  20.973  0.00  0.00    +0.000 C 
ATOM     13  C   UNL     1       3.729  14.299  20.839  0.00  0.00    +0.000 C 
ATOM     14  C   UNL     1      -0.191  12.335  21.052  0.00  0.00    +0.000 C 
ATOM     15  C   UNL     1      -0.533  10.863  20.939  0.00  0.00    +0.000 C 
ATOM     16  C   UNL     1       0.526  10.012  21.632  0.00  0.00    +0.000 C 
ENDROOT
BRANCH   1  17
ATOM     17  N   UNL     1       1.881   8.045  20.983  0.00  0.00    +0.000 NA
ATOM     18  H   UNL     1       2.639   8.377  20.388  0.00  0.00    +0.000 HD
BRANCH  17  19
ATOM     19  C   UNL     1       1.708   6.596  20.825  0.00  0.00    +0.000 C 
BRANCH  19  25
ATOM     20  C   UNL     1       1.084   3.867  19.867  0.00  0.00    +0.000 C 
ATOM     21  C   UNL     1       0.851   2.750  18.842  0.00  0.00    +0.000 C 
ATOM     22  C   UNL     1       2.173   2.693  18.082  0.00  0.00    +0.000 C 
ATOM     23  C   UNL     1       2.564   4.158  17.986  0.00  0.00    +0.000 C 
ATOM     24  N   UNL     1       2.040   4.754  19.196  0.00  0.00    +0.000 N 
ATOM     25  C   UNL     1       2.321   6.077  19.515  0.00  0.00    +0.000 C 
ATOM     26  O   UNL     1       3.004   6.782  18.769  0.00  0.00    +0.000 OA
BRANCH  20  28
ATOM     27  N   UNL     1       2.034   2.906  22.135  0.00  0.00    +0.000 NA
ATOM     28  C   UNL     1       1.606   3.317  21.135  0.00  0.00    +0.000 C 
ENDBRANCH  20  28
ENDBRANCH  19  25
ENDBRANCH  17  19
ENDBRANCH   1  17
TORSDOF 4
ENDMDL
MODEL 6
REMARK VINA RESULT:      -6.7      5.239      7.139
REMARK  Name = 
REMARK  4 active torsions:
REMARK  status: ('A' for Active; 'I' for Inactive)
REMARK    1  A    between atoms: C_2  and  C_3
REMARK    2  A    between atoms: C_8  and  C_10
REMARK    3  A    between atoms: C_10  and  N_11
REMARK    4  A    between atoms: N_11  and  C_12
REMARK                            x       y       z     vdW  Elec       q    Type
REMARK                         _______ _______ _______ _____ _____    ______ ____
ROOT
ATOM      1  C   UNL     1       8.437   7.622  18.422  0.00  0.00    +0.000 C 
ATOM      2  C   UNL     1       7.438   7.950  17.310  0.00  0.00    +0.000 C 
ATOM      3  C   UNL     1       7.110   6.601  16.653  0.00  0.00    +0.000 C 
ATOM      4  C   UNL     1       5.614   6.382  16.416  0.00  0.00    +0.000 C 
ATOM      5  N   UNL     1       5.174   5.570  17.543  0.00  0.00    +0.000 N 
ATOM      6  C   UNL     1       4.105   5.973  18.317  0.00  0.00    +0.000 C 
ATOM      7  O   UNL     1       3.538   7.046  18.092  0.00  0.00    +0.000 OA
ATOM      8  N   UNL     1       3.669   5.149  19.335  0.00  0.00    +0.000 N 
ATOM      9  C   UNL     1       4.009   3.743  19.550  0.00  0.00    +0.000 C 
ATOM     10  C   UNL     1       2.779   2.877  19.805  0.00  0.00    +0.000 C 
ATOM     11  O   UNL     1       1.962   3.412  20.849  0.00  0.00    +0.000 OA
ATOM     12  C   UNL     1       1.530   4.739  20.505  0.00  0.00    +0.000 C 
ATOM     13  C   UNL     1       2.728   5.678  20.331  0.00  0.00    +0.000 C 
ATOM     14  C   UNL     1       6.272   4.703  17.932  0.00  0.00    +0.000 C 
ATOM     15  C   UNL     1       7.517   5.531  17.680  0.00  0.00    +0.000 C 
ATOM     16  C   UNL     1       7.920   6.289  18.941  0.00  0.00    +0.000 C 
ENDROOT
BRANCH   1  17
ATOM     17  N   UNL     1       8.470   8.646  19.456  0.00  0.00    +0.000 NA
ATOM     18  H   UNL     1       7.537   8.876  19.798  0.00  0.00    +0.000 HD
BRANCH  17  19
ATOM     19  C   UNL     1       9.161   9.863  19.013  0.00  0.00    +0.000 C 
BRANCH  19  25
ATOM     20  C   UNL     1       9.364  12.724  18.287  0.00  0.00    +0.000 C 
ATOM     21  C   UNL     1       9.155  14.236  18.437  0.00  0.00    +0.000 C 
ATOM     22  C   UNL     1       9.819  14.550  19.775  0.00  0.00    +0.000 C 
ATOM     23  C   UNL     1       9.456  13.338  20.618  0.00  0.00    +0.000 C 
ATOM     24  N   UNL     1       9.394  12.243  19.673  0.00  0.00    +0.000 N 
ATOM     25  C   UNL     1       9.209  10.938  20.110  0.00  0.00    +0.000 C 
ATOM     26  O   UNL     1       9.071  10.679  21.307  0.00  0.00    +0.000 OA
BRANCH  20  28
ATOM     27  N   UNL     1      11.610  12.229  16.990  0.00  0.00    +0.000 NA
ATOM     28  C   UNL     1      10.614  12.436  17.554  0.00  0.00    +0.000 C 
ENDBRANCH  20  28
ENDBRANCH  19  25
ENDBRANCH  17  19
ENDBRANCH   1  17
TORSDOF 4
ENDMDL
MODEL 7
REMARK VINA RESULT:      -6.6      5.383      7.694
REMARK  Name = 
REMARK  4 active torsions:
REMARK  status: ('A' for Active; 'I' for Inactive)
REMARK    1  A    between atoms: C_2  and  C_3
REMARK    2  A    between atoms: C_8  and  C_10
REMARK    3  A    between atoms: C_10  and  N_11
REMARK    4  A    between atoms: N_11  and  C_12
REMARK                            x       y       z     vdW  Elec       q    Type
REMARK                         _______ _______ _______ _____ _____    ______ ____
ROOT
ATOM      1  C   UNL     1       8.162   7.840  17.869  0.00  0.00    +0.000 C 
ATOM      2  C   UNL     1       7.201   7.702  16.686  0.00  0.00    +0.000 C 
ATOM      3  C   UNL     1       7.065   6.190  16.454  0.00  0.00    +0.000 C 
ATOM      4  C   UNL     1       5.618   5.729  16.257  0.00  0.00    +0.000 C 
ATOM      5  N   UNL     1       5.204   5.235  17.564  0.00  0.00    +0.000 N 
ATOM      6  C   UNL     1       4.054   5.712  18.157  0.00  0.00    +0.000 C 
ATOM      7  O   UNL     1       3.386   6.593  17.609  0.00  0.00    +0.000 OA
ATOM      8  N   UNL     1       3.652   5.175  19.364  0.00  0.00    +0.000 N 
ATOM      9  C   UNL     1       4.132   3.947  19.996  0.00  0.00    +0.000 C 
ATOM     10  C   UNL     1       2.993   3.049  20.468  0.00  0.00    +0.000 C 
ATOM     11  O   UNL     1       2.061   3.761  21.285  0.00  0.00    +0.000 OA
ATOM     12  C   UNL     1       1.506   4.866  20.551  0.00  0.00    +0.000 C 
ATOM     13  C   UNL     1       2.601   5.853  20.134  0.00  0.00    +0.000 C 
ATOM     14  C   UNL     1       6.367   4.663  18.220  0.00  0.00    +0.000 C 
ATOM     15  C   UNL     1       7.525   5.526  17.762  0.00  0.00    +0.000 C 
ATOM     16  C   UNL     1       7.767   6.665  18.749  0.00  0.00    +0.000 C 
ENDROOT
BRANCH   1  17
ATOM     17  N   UNL     1       8.020   9.119  18.551  0.00  0.00    +0.000 NA
ATOM     18  H   UNL     1       7.189   9.625  18.246  0.00  0.00    +0.000 HD
BRANCH  17  19
ATOM     19  C   UNL     1       9.211   9.964  18.403  0.00  0.00    +0.000 C 
BRANCH  19  25
ATOM     20  C   UNL     1      11.360  11.907  17.799  0.00  0.00    +0.000 C 
ATOM     21  C   UNL     1      12.028  13.102  17.109  0.00  0.00    +0.000 C 
ATOM     22  C   UNL     1      11.100  14.265  17.448  0.00  0.00    +0.000 C 
ATOM     23  C   UNL     1       9.723  13.625  17.367  0.00  0.00    +0.000 C 
ATOM     24  N   UNL     1       9.935  12.255  17.785  0.00  0.00    +0.000 N 
ATOM     25  C   UNL     1       8.860  11.392  17.958  0.00  0.00    +0.000 C 
ATOM     26  O   UNL     1       7.704  11.761  17.742  0.00  0.00    +0.000 OA
BRANCH  20  28
ATOM     27  N   UNL     1      12.333  11.585  20.233  0.00  0.00    +0.000 NA
ATOM     28  C   UNL     1      11.890  11.725  19.166  0.00  0.00    +0.000 C 
ENDBRANCH  20  28
ENDBRANCH  19  25
ENDBRANCH  17  19
ENDBRANCH   1  17
TORSDOF 4
ENDMDL
MODEL 8
REMARK VINA RESULT:      -6.6      6.118      9.807
REMARK  Name = 
REMARK  4 active torsions:
REMARK  status: ('A' for Active; 'I' for Inactive)
REMARK    1  A    between atoms: C_2  and  C_3
REMARK    2  A    between atoms: C_8  and  C_10
REMARK    3  A    between atoms: C_10  and  N_11
REMARK    4  A    between atoms: N_11  and  C_12
REMARK                            x       y       z     vdW  Elec       q    Type
REMARK                         _______ _______ _______ _____ _____    ______ ____
ROOT
ATOM      1  C   UNL     1       8.873   9.837  18.226  0.00  0.00    +0.000 C 
ATOM      2  C   UNL     1       9.327  10.178  19.647  0.00  0.00    +0.000 C 
ATOM      3  C   UNL     1      10.390  11.273  19.477  0.00  0.00    +0.000 C 
ATOM      4  C   UNL     1      10.214  12.453  20.437  0.00  0.00    +0.000 C 
ATOM      5  N   UNL     1       9.515  13.466  19.657  0.00  0.00    +0.000 N 
ATOM      6  C   UNL     1       8.349  14.030  20.132  0.00  0.00    +0.000 C 
ATOM      7  O   UNL     1       7.861  13.652  21.201  0.00  0.00    +0.000 OA
ATOM      8  N   UNL     1       7.748  15.035  19.402  0.00  0.00    +0.000 N 
ATOM      9  C   UNL     1       8.326  15.804  18.301  0.00  0.00    +0.000 C 
ATOM     10  C   UNL     1       8.125  17.308  18.470  0.00  0.00    +0.000 C 
ATOM     11  O   UNL     1       6.754  17.635  18.710  0.00  0.00    +0.000 OA
ATOM     12  C   UNL     1       6.290  16.970  19.897  0.00  0.00    +0.000 C 
ATOM     13  C   UNL     1       6.380  15.448  19.744  0.00  0.00    +0.000 C 
ATOM     14  C   UNL     1       9.940  13.344  18.273  0.00  0.00    +0.000 C 
ATOM     15  C   UNL     1      10.162  11.858  18.074  0.00  0.00    +0.000 C 
ATOM     16  C   UNL     1       8.895  11.194  17.542  0.00  0.00    +0.000 C 
ENDROOT
BRANCH   1  17
ATOM     17  N   UNL     1       7.554   9.221  18.200  0.00  0.00    +0.000 NA
ATOM     18  H   UNL     1       7.210   9.013  19.137  0.00  0.00    +0.000 HD
BRANCH  17  19
ATOM     19  C   UNL     1       7.521   8.012  17.367  0.00  0.00    +0.000 C 
BRANCH  19  25
ATOM     20  C   UNL     1       5.399   5.999  16.917  0.00  0.00    +0.000 C 
ATOM     21  C   UNL     1       4.765   4.604  16.872  0.00  0.00    +0.000 C 
ATOM     22  C   UNL     1       4.896   4.113  18.311  0.00  0.00    +0.000 C 
ATOM     23  C   UNL     1       6.258   4.649  18.721  0.00  0.00    +0.000 C 
ATOM     24  N   UNL     1       6.399   5.887  17.985  0.00  0.00    +0.000 N 
ATOM     25  C   UNL     1       7.482   6.727  18.209  0.00  0.00    +0.000 C 
ATOM     26  O   UNL     1       8.361   6.432  19.021  0.00  0.00    +0.000 OA
BRANCH  20  28
ATOM     27  N   UNL     1       3.566   7.829  17.431  0.00  0.00    +0.000 NA
ATOM     28  C   UNL     1       4.379   7.032  17.193  0.00  0.00    +0.000 C 
ENDBRANCH  20  28
ENDBRANCH  19  25
ENDBRANCH  17  19
ENDBRANCH   1  17
TORSDOF 4
ENDMDL
MODEL 9
REMARK VINA RESULT:      -6.4      1.335      1.846
REMARK  Name = 
REMARK  4 active torsions:
REMARK  status: ('A' for Active; 'I' for Inactive)
REMARK    1  A    between atoms: C_2  and  C_3
REMARK    2  A    between atoms: C_8  and  C_10
REMARK    3  A    between atoms: C_10  and  N_11
REMARK    4  A    between atoms: N_11  and  C_12
REMARK                            x       y       z     vdW  Elec       q    Type
REMARK                         _______ _______ _______ _____ _____    ______ ____
ROOT
ATOM      1  C   UNL     1       1.542   6.844  20.503  0.00  0.00    +0.000 C 
ATOM      2  C   UNL     1       1.927   5.470  21.059  0.00  0.00    +0.000 C 
ATOM      3  C   UNL     1       1.622   4.479  19.927  0.00  0.00    +0.000 C 
ATOM      4  C   UNL     1       2.743   3.465  19.681  0.00  0.00    +0.000 C 
ATOM      5  N   UNL     1       3.497   4.009  18.560  0.00  0.00    +0.000 N 
ATOM      6  C   UNL     1       4.861   4.186  18.657  0.00  0.00    +0.000 C 
ATOM      7  O   UNL     1       5.452   3.926  19.710  0.00  0.00    +0.000 OA
ATOM      8  N   UNL     1       5.558   4.639  17.556  0.00  0.00    +0.000 N 
ATOM      9  C   UNL     1       5.089   4.705  16.172  0.00  0.00    +0.000 C 
ATOM     10  C   UNL     1       6.089   4.106  15.187  0.00  0.00    +0.000 C 
ATOM     11  O   UNL     1       7.395   4.663  15.354  0.00  0.00    +0.000 OA
ATOM     12  C   UNL     1       7.865   4.426  16.692  0.00  0.00    +0.000 C 
ATOM     13  C   UNL     1       6.946   5.091  17.721  0.00  0.00    +0.000 C 
ATOM     14  C   UNL     1       2.572   4.723  17.696  0.00  0.00    +0.000 C 
ATOM     15  C   UNL     1       1.553   5.323  18.643  0.00  0.00    +0.000 C 
ATOM     16  C   UNL     1       1.965   6.736  19.047  0.00  0.00    +0.000 C 
ENDROOT
BRANCH   1  17
ATOM     17  N   UNL     1       2.215   7.930  21.200  0.00  0.00    +0.000 NA
ATOM     18  H   UNL     1       2.948   7.591  21.822  0.00  0.00    +0.000 HD
BRANCH  17  19
ATOM     19  C   UNL     1       1.276   8.783  21.940  0.00  0.00    +0.000 C 
BRANCH  19  25
ATOM     20  C   UNL     1       0.882  10.723  19.741  0.00  0.00    +0.000 C 
ATOM     21  C   UNL     1       0.289  11.282  18.442  0.00  0.00    +0.000 C 
ATOM     22  C   UNL     1      -1.207  11.348  18.741  0.00  0.00    +0.000 C 
ATOM     23  C   UNL     1      -1.438  10.088  19.559  0.00  0.00    +0.000 C 
ATOM     24  N   UNL     1      -0.199   9.892  20.282  0.00  0.00    +0.000 N 
ATOM     25  C   UNL     1      -0.087   8.892  21.240  0.00  0.00    +0.000 C 
ATOM     26  O   UNL     1      -1.028   8.133  21.483  0.00  0.00    +0.000 OA
BRANCH  20  28
ATOM     27  N   UNL     1       1.599  12.689  21.351  0.00  0.00    +0.000 NA
ATOM     28  C   UNL     1       1.275  11.817  20.653  0.00  0.00    +0.000 C 
ENDBRANCH  20  28
ENDBRANCH  19  25
ENDBRANCH  17  19
ENDBRANCH   1  17
TORSDOF 4
ENDMDL
