MODEL 1
REMARK VINA RESULT:      -8.7      0.000      0.000
REMARK  Name = 
REMARK  6 active torsions:
REMARK  status: ('A' for Active; 'I' for Inactive)
REMARK    1  A    between atoms: C_1  and  C_2
REMARK    2  A    between atoms: C_7  and  N_8
REMARK    3  A    between atoms: C_9  and  C_11
REMARK    4  A    between atoms: C_11  and  N_12
REMARK    5  A    between atoms: C_15  and  S_16
REMARK    6  A    between atoms: S_16  and  C_17
REMARK                            x       y       z     vdW  Elec       q    Type
REMARK                         _______ _______ _______ _____ _____    ______ ____
ROOT
ATOM      1  N   UNL     1       0.523   9.648  21.519  0.00  0.00    +0.000 N 
ATOM      2  N   UNL     1       0.093  10.260  20.348  0.00  0.00    +0.000 NA
ATOM      3  C   UNL     1      -0.839  11.074  20.766  0.00  0.00    +0.000 A 
ATOM      4  C   UNL     1      -1.725  12.040  20.034  0.00  0.00    +0.000 A 
ATOM      5  N   UNL     1      -2.520  12.878  20.629  0.00  0.00    +0.000 NA
ATOM      6  C   UNL     1      -2.536  12.840  22.008  0.00  0.00    +0.000 A 
ATOM      7  C   UNL     1      -1.844  11.963  22.751  0.00  0.00    +0.000 A 
ATOM      8  N   UNL     1      -1.024  11.082  22.114  0.00  0.00    +0.000 N 
ATOM      9  C   UNL     1      -0.166  10.152  22.633  0.00  0.00    +0.000 A 
ATOM     10  O   UNL     1      -0.003   9.849  23.805  0.00  0.00    +0.000 OA
ENDROOT
BRANCH   1  11
ATOM     11  C   UNL     1       1.591   8.680  21.586  0.00  0.00    +0.000 C 
BRANCH  11  13
ATOM     12  N   UNL     1       2.229   6.618  20.410  0.00  0.00    +0.000 N 
ATOM     13  C   UNL     1       1.795   7.930  20.271  0.00  0.00    +0.000 C 
ATOM     14  O   UNL     1       1.662   8.538  19.209  0.00  0.00    +0.000 OA
ATOM     15  H   UNL     1       2.244   6.265  21.362  0.00  0.00    +0.000 HD
BRANCH  12  22
ATOM     16  C   UNL     1       0.873   4.004  20.272  0.00  0.00    +0.000 C 
ATOM     17  C   UNL     1       1.913   4.462  19.287  0.00  0.00    +0.000 A 
ATOM     18  C   UNL     1       2.248   3.586  18.234  0.00  0.00    +0.000 A 
ATOM     19  C   UNL     1       3.195   3.938  17.275  0.00  0.00    +0.000 A 
ATOM     20  C   UNL     1       3.843   5.158  17.370  0.00  0.00    +0.000 A 
ATOM     21  C   UNL     1       3.522   6.040  18.405  0.00  0.00    +0.000 A 
ATOM     22  C   UNL     1       2.557   5.717  19.368  0.00  0.00    +0.000 A 
ENDBRANCH  12  22
ENDBRANCH  11  13
ENDBRANCH   1  11
BRANCH   4  23
ATOM     23  S   UNL     1      -1.546  11.832  18.328  0.00  0.00    +0.000 S 
BRANCH  23  24
ATOM     24  C   UNL     1      -2.620  10.364  18.032  0.00  0.00    +0.000 C 
ATOM     25  C   UNL     1      -4.110  10.727  17.988  0.00  0.00    +0.000 C 
ATOM     26  C   UNL     1      -4.490  11.567  16.769  0.00  0.00    +0.000 C 
ATOM     27  C   UNL     1      -4.061  10.922  15.456  0.00  0.00    +0.000 C 
ATOM     28  C   UNL     1      -2.617  10.419  15.457  0.00  0.00    +0.000 C 
ATOM     29  C   UNL     1      -2.246   9.646  16.722  0.00  0.00    +0.000 C 
ENDBRANCH  23  24
ENDBRANCH   4  23
TORSDOF 5
ENDMDL
MODEL 2
REMARK VINA RESULT:      -8.3      0.894      1.660
REMARK  Name = 
REMARK  6 active torsions:
REMARK  status: ('A' for Active; 'I' for Inactive)
REMARK    1  A    between atoms: C_1  and  C_2
REMARK    2  A    between atoms: C_7  and  N_8
REMARK    3  A    between atoms: C_9  and  C_11
REMARK    4  A    between atoms: C_11  and  N_12
REMARK    5  A    between atoms: C_15  and  S_16
REMARK    6  A    between atoms: S_16  and  C_17
REMARK                            x       y       z     vdW  Elec       q    Type
REMARK                         _______ _______ _______ _____ _____    ______ ____
ROOT
ATOM      1  N   UNL     1       0.337  10.073  21.518  0.00  0.00    +0.000 N 
ATOM      2  N   UNL     1      -0.191  10.719  20.406  0.00  0.00    +0.000 NA
ATOM      3  C   UNL     1      -1.162  11.431  20.911  0.00  0.00    +0.000 A 
ATOM      4  C   UNL     1      -2.151  12.366  20.278  0.00  0.00    +0.000 A 
ATOM      5  N   UNL     1      -2.979  13.102  20.955  0.00  0.00    +0.000 NA
ATOM      6  C   UNL     1      -2.930  12.982  22.329  0.00  0.00    +0.000 A 
ATOM      7  C   UNL     1      -2.141  12.118  22.986  0.00  0.00    +0.000 A 
ATOM      8  N   UNL     1      -1.286  11.344  22.263  0.00  0.00    +0.000 N 
ATOM      9  C   UNL     1      -0.338  10.455  22.688  0.00  0.00    +0.000 A 
ATOM     10  O   UNL     1      -0.100  10.096  23.831  0.00  0.00    +0.000 OA
ENDROOT
BRANCH   1  11
ATOM     11  C   UNL     1       1.476   9.190  21.481  0.00  0.00    +0.000 C 
BRANCH  11  13
ATOM     12  N   UNL     1       2.160   7.042  20.499  0.00  0.00    +0.000 N 
ATOM     13  C   UNL     1       1.112   7.770  21.050  0.00  0.00    +0.000 C 
ATOM     14  O   UNL     1      -0.061   7.404  21.126  0.00  0.00    +0.000 OA
ATOM     15  H   UNL     1       3.072   7.484  20.554  0.00  0.00    +0.000 HD
BRANCH  12  22
ATOM     16  C   UNL     1       3.229   6.526  17.800  0.00  0.00    +0.000 C 
ATOM     17  C   UNL     1       2.605   5.471  18.671  0.00  0.00    +0.000 A 
ATOM     18  C   UNL     1       2.538   4.158  18.161  0.00  0.00    +0.000 A 
ATOM     19  C   UNL     1       1.983   3.120  18.906  0.00  0.00    +0.000 A 
ATOM     20  C   UNL     1       1.459   3.385  20.161  0.00  0.00    +0.000 A 
ATOM     21  C   UNL     1       1.520   4.679  20.684  0.00  0.00    +0.000 A 
ATOM     22  C   UNL     1       2.093   5.733  19.961  0.00  0.00    +0.000 A 
ENDBRANCH  12  22
ENDBRANCH  11  13
ENDBRANCH   1  11
BRANCH   4  23
ATOM     23  S   UNL     1      -2.033  12.275  18.556  0.00  0.00    +0.000 S 
BRANCH  23  24
ATOM     24  C   UNL     1      -3.386  11.085  18.167  0.00  0.00    +0.000 C 
ATOM     25  C   UNL     1      -4.220  11.521  16.956  0.00  0.00    +0.000 C 
ATOM     26  C   UNL     1      -3.447  11.462  15.640  0.00  0.00    +0.000 C 
ATOM     27  C   UNL     1      -2.820  10.096  15.388  0.00  0.00    +0.000 C 
ATOM     28  C   UNL     1      -2.069   9.529  16.594  0.00  0.00    +0.000 C 
ATOM     29  C   UNL     1      -2.837   9.671  17.908  0.00  0.00    +0.000 C 
ENDBRANCH  23  24
ENDBRANCH   4  23
TORSDOF 5
ENDMDL
MODEL 3
REMARK VINA RESULT:      -8.0      1.327      2.098
REMARK  Name = 
REMARK  6 active torsions:
REMARK  status: ('A' for Active; 'I' for Inactive)
REMARK    1  A    between atoms: C_1  and  C_2
REMARK    2  A    between atoms: C_7  and  N_8
REMARK    3  A    between atoms: C_9  and  C_11
REMARK    4  A    between atoms: C_11  and  N_12
REMARK    5  A    between atoms: C_15  and  S_16
REMARK    6  A    between atoms: S_16  and  C_17
REMARK                            x       y       z     vdW  Elec       q    Type
REMARK                         _______ _______ _______ _____ _____    ______ ____
ROOT
ATOM      1  N   UNL     1       1.223   9.649  19.634  0.00  0.00    +0.000 N 
ATOM      2  N   UNL     1       0.330  10.495  18.987  0.00  0.00    +0.000 NA
ATOM      3  C   UNL     1      -0.452  10.892  19.953  0.00  0.00    +0.000 A 
ATOM      4  C   UNL     1      -1.636  11.816  19.966  0.00  0.00    +0.000 A 
ATOM      5  N   UNL     1      -2.229  12.209  21.052  0.00  0.00    +0.000 NA
ATOM      6  C   UNL     1      -1.727  11.721  22.241  0.00  0.00    +0.000 A 
ATOM      7  C   UNL     1      -0.727  10.831  22.332  0.00  0.00    +0.000 A 
ATOM      8  N   UNL     1      -0.122  10.418  21.185  0.00  0.00    +0.000 N 
ATOM      9  C   UNL     1       0.953   9.591  21.010  0.00  0.00    +0.000 A 
ATOM     10  O   UNL     1       1.570   8.966  21.861  0.00  0.00    +0.000 OA
ENDROOT
BRANCH   1  11
ATOM     11  C   UNL     1       2.327   8.982  18.987  0.00  0.00    +0.000 C 
BRANCH  11  13
ATOM     12  N   UNL     1       2.454   6.736  19.978  0.00  0.00    +0.000 N 
ATOM     13  C   UNL     1       2.113   7.475  18.853  0.00  0.00    +0.000 C 
ATOM     14  O   UNL     1       1.758   7.016  17.767  0.00  0.00    +0.000 OA
ATOM     15  H   UNL     1       2.688   7.282  20.802  0.00  0.00    +0.000 HD
BRANCH  12  22
ATOM     16  C   UNL     1       4.832   5.149  19.261  0.00  0.00    +0.000 C 
ATOM     17  C   UNL     1       3.550   4.553  19.774  0.00  0.00    +0.000 A 
ATOM     18  C   UNL     1       3.494   3.152  19.925  0.00  0.00    +0.000 A 
ATOM     19  C   UNL     1       2.347   2.522  20.402  0.00  0.00    +0.000 A 
ATOM     20  C   UNL     1       1.229   3.280  20.708  0.00  0.00    +0.000 A 
ATOM     21  C   UNL     1       1.268   4.669  20.568  0.00  0.00    +0.000 A 
ATOM     22  C   UNL     1       2.417   5.326  20.111  0.00  0.00    +0.000 A 
ENDBRANCH  12  22
ENDBRANCH  11  13
ENDBRANCH   1  11
BRANCH   4  23
ATOM     23  S   UNL     1      -2.087  12.223  18.348  0.00  0.00    +0.000 S 
BRANCH  23  24
ATOM     24  C   UNL     1      -3.504  11.078  18.072  0.00  0.00    +0.000 C 
ATOM     25  C   UNL     1      -4.392  11.517  16.900  0.00  0.00    +0.000 C 
ATOM     26  C   UNL     1      -3.702  11.395  15.543  0.00  0.00    +0.000 C 
ATOM     27  C   UNL     1      -3.144   9.999  15.292  0.00  0.00    +0.000 C 
ATOM     28  C   UNL     1      -2.343   9.433  16.466  0.00  0.00    +0.000 C 
ATOM     29  C   UNL     1      -3.025   9.638  17.818  0.00  0.00    +0.000 C 
ENDBRANCH  23  24
ENDBRANCH   4  23
TORSDOF 5
ENDMDL
MODEL 4
REMARK VINA RESULT:      -7.9      1.615      2.525
REMARK  Name = 
REMARK  6 active torsions:
REMARK  status: ('A' for Active; 'I' for Inactive)
REMARK    1  A    between atoms: C_1  and  C_2
REMARK    2  A    between atoms: C_7  and  N_8
REMARK    3  A    between atoms: C_9  and  C_11
REMARK    4  A    between atoms: C_11  and  N_12
REMARK    5  A    between atoms: C_15  and  S_16
REMARK    6  A    between atoms: S_16  and  C_17
REMARK                            x       y       z     vdW  Elec       q    Type
REMARK                         _______ _______ _______ _____ _____    ______ ____
ROOT
ATOM      1  N   UNL     1       1.780   8.680  18.612  0.00  0.00    +0.000 N 
ATOM      2  N   UNL     1       0.829   9.648  18.310  0.00  0.00    +0.000 NA
ATOM      3  C   UNL     1       0.273   9.886  19.468  0.00  0.00    +0.000 A 
ATOM      4  C   UNL     1      -0.830  10.820  19.874  0.00  0.00    +0.000 A 
ATOM      5  N   UNL     1      -1.177  11.028  21.108  0.00  0.00    +0.000 NA
ATOM      6  C   UNL     1      -0.482  10.325  22.072  0.00  0.00    +0.000 A 
ATOM      7  C   UNL     1       0.463   9.410  21.808  0.00  0.00    +0.000 A 
ATOM      8  N   UNL     1       0.809   9.193  20.509  0.00  0.00    +0.000 N 
ATOM      9  C   UNL     1       1.779   8.385  19.984  0.00  0.00    +0.000 A 
ATOM     10  O   UNL     1       2.512   7.606  20.576  0.00  0.00    +0.000 OA
ENDROOT
BRANCH   1  11
ATOM     11  C   UNL     1       2.696   8.113  17.654  0.00  0.00    +0.000 C 
BRANCH  11  13
ATOM     12  N   UNL     1       1.998   5.774  17.947  0.00  0.00    +0.000 N 
ATOM     13  C   UNL     1       3.065   6.664  17.970  0.00  0.00    +0.000 C 
ATOM     14  O   UNL     1       4.219   6.400  18.306  0.00  0.00    +0.000 OA
ATOM     15  H   UNL     1       1.122   6.156  17.606  0.00  0.00    +0.000 HD
BRANCH  12  22
ATOM     16  C   UNL     1       1.006   4.851  20.565  0.00  0.00    +0.000 C 
ATOM     17  C   UNL     1       1.563   3.936  19.510  0.00  0.00    +0.000 A 
ATOM     18  C   UNL     1       1.603   2.556  19.795  0.00  0.00    +0.000 A 
ATOM     19  C   UNL     1       2.096   1.640  18.868  0.00  0.00    +0.000 A 
ATOM     20  C   UNL     1       2.584   2.094  17.654  0.00  0.00    +0.000 A 
ATOM     21  C   UNL     1       2.549   3.457  17.353  0.00  0.00    +0.000 A 
ATOM     22  C   UNL     1       2.038   4.393  18.260  0.00  0.00    +0.000 A 
ENDBRANCH  12  22
ENDBRANCH  11  13
ENDBRANCH   1  11
BRANCH   4  23
ATOM     23  S   UNL     1      -1.561  11.518  18.473  0.00  0.00    +0.000 S 
BRANCH  23  24
ATOM     24  C   UNL     1      -2.697  10.164  17.950  0.00  0.00    +0.000 C 
ATOM     25  C   UNL     1      -4.170  10.592  17.974  0.00  0.00    +0.000 C 
ATOM     26  C   UNL     1      -4.512  11.633  16.909  0.00  0.00    +0.000 C 
ATOM     27  C   UNL     1      -4.111  11.191  15.507  0.00  0.00    +0.000 C 
ATOM     28  C   UNL     1      -2.689  10.633  15.417  0.00  0.00    +0.000 C 
ATOM     29  C   UNL     1      -2.353   9.652  16.539  0.00  0.00    +0.000 C 
ENDBRANCH  23  24
ENDBRANCH   4  23
TORSDOF 5
ENDMDL
MODEL 5
REMARK VINA RESULT:      -7.9      2.548      8.173
REMARK  Name = 
REMARK  6 active torsions:
REMARK  status: ('A' for Active; 'I' for Inactive)
REMARK    1  A    between atoms: C_1  and  C_2
REMARK    2  A    between atoms: C_7  and  N_8
REMARK    3  A    between atoms: C_9  and  C_11
REMARK    4  A    between atoms: C_11  and  N_12
REMARK    5  A    between atoms: C_15  and  S_16
REMARK    6  A    between atoms: S_16  and  C_17
REMARK                            x       y       z     vdW  Elec       q    Type
REMARK                         _______ _______ _______ _____ _____    ______ ____
ROOT
ATOM      1  N   UNL     1       1.611   8.446  19.968  0.00  0.00    +0.000 N 
ATOM      2  N   UNL     1       2.490   7.883  19.049  0.00  0.00    +0.000 NA
ATOM      3  C   UNL     1       2.522   6.627  19.403  0.00  0.00    +0.000 A 
ATOM      4  C   UNL     1       3.270   5.450  18.846  0.00  0.00    +0.000 A 
ATOM      5  N   UNL     1       3.085   4.228  19.245  0.00  0.00    +0.000 NA
ATOM      6  C   UNL     1       2.154   4.039  20.247  0.00  0.00    +0.000 A 
ATOM      7  C   UNL     1       1.494   5.031  20.864  0.00  0.00    +0.000 A 
ATOM      8  N   UNL     1       1.706   6.308  20.445  0.00  0.00    +0.000 N 
ATOM      9  C   UNL     1       1.112   7.473  20.847  0.00  0.00    +0.000 A 
ATOM     10  O   UNL     1       0.299   7.632  21.746  0.00  0.00    +0.000 OA
ENDROOT
BRANCH   1  11
ATOM     11  C   UNL     1       1.208   9.831  19.965  0.00  0.00    +0.000 C 
BRANCH  11  13
ATOM     12  N   UNL     1      -1.007  10.175  18.955  0.00  0.00    +0.000 N 
ATOM     13  C   UNL     1       0.366  10.201  18.745  0.00  0.00    +0.000 C 
ATOM     14  O   UNL     1       0.928  10.399  17.668  0.00  0.00    +0.000 OA
ATOM     15  H   UNL     1      -1.296  10.034  19.918  0.00  0.00    +0.000 HD
BRANCH  12  22
ATOM     16  C   UNL     1      -3.075  12.207  19.492  0.00  0.00    +0.000 C 
ATOM     17  C   UNL     1      -3.014  11.384  18.234  0.00  0.00    +0.000 A 
ATOM     18  C   UNL     1      -4.004  11.610  17.256  0.00  0.00    +0.000 A 
ATOM     19  C   UNL     1      -4.014  10.897  16.059  0.00  0.00    +0.000 A 
ATOM     20  C   UNL     1      -3.052   9.926  15.835  0.00  0.00    +0.000 A 
ATOM     21  C   UNL     1      -2.061   9.691  16.792  0.00  0.00    +0.000 A 
ATOM     22  C   UNL     1      -2.018  10.411  17.992  0.00  0.00    +0.000 A 
ENDBRANCH  12  22
ENDBRANCH  11  13
ENDBRANCH   1  11
BRANCH   4  23
ATOM     23  S   UNL     1       4.404   5.978  17.656  0.00  0.00    +0.000 S 
BRANCH  23  24
ATOM     24  C   UNL     1       5.421   4.458  17.429  0.00  0.00    +0.000 C 
ATOM     25  C   UNL     1       5.047   3.688  16.155  0.00  0.00    +0.000 C 
ATOM     26  C   UNL     1       5.416   4.431  14.872  0.00  0.00    +0.000 C 
ATOM     27  C   UNL     1       6.883   4.841  14.833  0.00  0.00    +0.000 C 
ATOM     28  C   UNL     1       7.373   5.510  16.119  0.00  0.00    +0.000 C 
ATOM     29  C   UNL     1       6.924   4.785  17.387  0.00  0.00    +0.000 C 
ENDBRANCH  23  24
ENDBRANCH   4  23
TORSDOF 5
ENDMDL
MODEL 6
REMARK VINA RESULT:      -7.9      7.042      9.912
REMARK  Name = 
REMARK  6 active torsions:
REMARK  status: ('A' for Active; 'I' for Inactive)
REMARK    1  A    between atoms: C_1  and  C_2
REMARK    2  A    between atoms: C_7  and  N_8
REMARK    3  A    between atoms: C_9  and  C_11
REMARK    4  A    between atoms: C_11  and  N_12
REMARK    5  A    between atoms: C_15  and  S_16
REMARK    6  A    between atoms: S_16  and  C_17
REMARK                            x       y       z     vdW  Elec       q    Type
REMARK                         _______ _______ _______ _____ _____    ______ ____
ROOT
ATOM      1  N   UNL     1       7.522   6.466  18.348  0.00  0.00    +0.000 N 
ATOM      2  N   UNL     1       6.633   5.614  18.993  0.00  0.00    +0.000 NA
ATOM      3  C   UNL     1       5.994   5.050  18.004  0.00  0.00    +0.000 A 
ATOM      4  C   UNL     1       4.895   4.028  17.977  0.00  0.00    +0.000 A 
ATOM      5  N   UNL     1       4.457   3.473  16.888  0.00  0.00    +0.000 NA
ATOM      6  C   UNL     1       5.045   3.880  15.707  0.00  0.00    +0.000 A 
ATOM      7  C   UNL     1       5.976   4.842  15.618  0.00  0.00    +0.000 A 
ATOM      8  N   UNL     1       6.418   5.423  16.766  0.00  0.00    +0.000 N 
ATOM      9  C   UNL     1       7.400   6.357  16.954  0.00  0.00    +0.000 A 
ATOM     10  O   UNL     1       8.054   6.943  16.104  0.00  0.00    +0.000 OA
ENDROOT
BRANCH   1  11
ATOM     11  C   UNL     1       8.493   7.292  19.022  0.00  0.00    +0.000 C 
BRANCH  11  13
ATOM     12  N   UNL     1       9.369   9.583  19.192  0.00  0.00    +0.000 N 
ATOM     13  C   UNL     1       8.417   8.759  18.603  0.00  0.00    +0.000 C 
ATOM     14  O   UNL     1       7.496   9.126  17.873  0.00  0.00    +0.000 OA
ATOM     15  H   UNL     1      10.080   9.105  19.735  0.00  0.00    +0.000 HD
BRANCH  12  22
ATOM     16  C   UNL     1       8.958  11.346  21.519  0.00  0.00    +0.000 C 
ATOM     17  C   UNL     1       9.301  11.842  20.141  0.00  0.00    +0.000 A 
ATOM     18  C   UNL     1       9.439  13.234  19.963  0.00  0.00    +0.000 A 
ATOM     19  C   UNL     1       9.763  13.775  18.721  0.00  0.00    +0.000 A 
ATOM     20  C   UNL     1       9.925  12.935  17.631  0.00  0.00    +0.000 A 
ATOM     21  C   UNL     1       9.795  11.553  17.790  0.00  0.00    +0.000 A 
ATOM     22  C   UNL     1       9.492  10.985  19.034  0.00  0.00    +0.000 A 
ENDBRANCH  12  22
ENDBRANCH  11  13
ENDBRANCH   1  11
BRANCH   4  23
ATOM     23  S   UNL     1       4.305   3.751  19.577  0.00  0.00    +0.000 S 
BRANCH  23  24
ATOM     24  C   UNL     1       2.805   4.821  19.596  0.00  0.00    +0.000 C 
ATOM     25  C   UNL     1       1.873   4.547  18.408  0.00  0.00    +0.000 C 
ATOM     26  C   UNL     1       1.204   3.176  18.472  0.00  0.00    +0.000 C 
ATOM     27  C   UNL     1       0.470   2.942  19.787  0.00  0.00    +0.000 C 
ATOM     28  C   UNL     1       1.289   3.308  21.026  0.00  0.00    +0.000 C 
ATOM     29  C   UNL     1       2.007   4.651  20.902  0.00  0.00    +0.000 C 
ENDBRANCH  23  24
ENDBRANCH   4  23
TORSDOF 5
ENDMDL
MODEL 7
REMARK VINA RESULT:      -7.8      3.156      4.355
REMARK  Name = 
REMARK  6 active torsions:
REMARK  status: ('A' for Active; 'I' for Inactive)
REMARK    1  A    between atoms: C_1  and  C_2
REMARK    2  A    between atoms: C_7  and  N_8
REMARK    3  A    between atoms: C_9  and  C_11
REMARK    4  A    between atoms: C_11  and  N_12
REMARK    5  A    between atoms: C_15  and  S_16
REMARK    6  A    between atoms: S_16  and  C_17
REMARK                            x       y       z     vdW  Elec       q    Type
REMARK                         _______ _______ _______ _____ _____    ______ ____
ROOT
ATOM      1  N   UNL     1       0.693  10.510  21.811  0.00  0.00    +0.000 N 
ATOM      2  N   UNL     1       1.075  11.371  20.788  0.00  0.00    +0.000 NA
ATOM      3  C   UNL     1       0.168  12.308  20.837  0.00  0.00    +0.000 A 
ATOM      4  C   UNL     1      -0.033  13.550  20.017  0.00  0.00    +0.000 A 
ATOM      5  N   UNL     1      -0.926  14.453  20.288  0.00  0.00    +0.000 NA
ATOM      6  C   UNL     1      -1.727  14.220  21.387  0.00  0.00    +0.000 A 
ATOM      7  C   UNL     1      -1.681  13.106  22.135  0.00  0.00    +0.000 A 
ATOM      8  N   UNL     1      -0.748  12.162  21.833  0.00  0.00    +0.000 N 
ATOM      9  C   UNL     1      -0.445  10.993  22.475  0.00  0.00    +0.000 A 
ATOM     10  O   UNL     1      -1.012  10.492  23.434  0.00  0.00    +0.000 OA
ENDROOT
BRANCH   1  11
ATOM     11  C   UNL     1       1.419   9.322  22.188  0.00  0.00    +0.000 C 
BRANCH  11  13
ATOM     12  N   UNL     1       2.036   7.324  20.895  0.00  0.00    +0.000 N 
ATOM     13  C   UNL     1       0.989   8.088  21.396  0.00  0.00    +0.000 C 
ATOM     14  O   UNL     1      -0.209   7.906  21.176  0.00  0.00    +0.000 OA
ATOM     15  H   UNL     1       2.961   7.597  21.210  0.00  0.00    +0.000 HD
BRANCH  12  22
ATOM     16  C   UNL     1       2.831   7.476  18.060  0.00  0.00    +0.000 C 
ATOM     17  C   UNL     1       2.311   6.229  18.720  0.00  0.00    +0.000 A 
ATOM     18  C   UNL     1       2.208   5.066  17.929  0.00  0.00    +0.000 A 
ATOM     19  C   UNL     1       1.744   3.866  18.465  0.00  0.00    +0.000 A 
ATOM     20  C   UNL     1       1.348   3.819  19.791  0.00  0.00    +0.000 A 
ATOM     21  C   UNL     1       1.446   4.961  20.590  0.00  0.00    +0.000 A 
ATOM     22  C   UNL     1       1.931   6.172  20.079  0.00  0.00    +0.000 A 
ENDBRANCH  12  22
ENDBRANCH  11  13
ENDBRANCH   1  11
BRANCH   4  23
ATOM     23  S   UNL     1       1.059  13.558  18.678  0.00  0.00    +0.000 S 
BRANCH  23  24
ATOM     24  C   UNL     1       2.540  14.359  19.427  0.00  0.00    +0.000 C 
ATOM     25  C   UNL     1       3.735  14.397  18.466  0.00  0.00    +0.000 C 
ATOM     26  C   UNL     1       3.520  15.329  17.274  0.00  0.00    +0.000 C 
ATOM     27  C   UNL     1       3.134  16.742  17.697  0.00  0.00    +0.000 C 
ATOM     28  C   UNL     1       2.026  16.791  18.751  0.00  0.00    +0.000 C 
ATOM     29  C   UNL     1       2.231  15.794  19.891  0.00  0.00    +0.000 C 
ENDBRANCH  23  24
ENDBRANCH   4  23
TORSDOF 5
ENDMDL
MODEL 8
REMARK VINA RESULT:      -7.8      2.445      7.994
REMARK  Name = 
REMARK  6 active torsions:
REMARK  status: ('A' for Active; 'I' for Inactive)
REMARK    1  A    between atoms: C_1  and  C_2
REMARK    2  A    between atoms: C_7  and  N_8
REMARK    3  A    between atoms: C_9  and  C_11
REMARK    4  A    between atoms: C_11  and  N_12
REMARK    5  A    between atoms: C_15  and  S_16
REMARK    6  A    between atoms: S_16  and  C_17
REMARK                            x       y       z     vdW  Elec       q    Type
REMARK                         _______ _______ _______ _____ _____    ______ ____
ROOT
ATOM      1  N   UNL     1       1.350   9.049  20.227  0.00  0.00    +0.000 N 
ATOM      2  N   UNL     1       2.171   8.580  19.208  0.00  0.00    +0.000 NA
ATOM      3  C   UNL     1       2.251   7.302  19.458  0.00  0.00    +0.000 A 
ATOM      4  C   UNL     1       2.977   6.189  18.758  0.00  0.00    +0.000 A 
ATOM      5  N   UNL     1       2.843   4.936  19.070  0.00  0.00    +0.000 NA
ATOM      6  C   UNL     1       1.989   4.647  20.116  0.00  0.00    +0.000 A 
ATOM      7  C   UNL     1       1.358   5.572  20.855  0.00  0.00    +0.000 A 
ATOM      8  N   UNL     1       1.517   6.883  20.525  0.00  0.00    +0.000 N 
ATOM      9  C   UNL     1       0.932   7.999  21.059  0.00  0.00    +0.000 A 
ATOM     10  O   UNL     1       0.184   8.068  22.022  0.00  0.00    +0.000 OA
ENDROOT
BRANCH   1  11
ATOM     11  C   UNL     1       0.924  10.420  20.363  0.00  0.00    +0.000 C 
BRANCH  11  13
ATOM     12  N   UNL     1      -1.148  10.272  19.047  0.00  0.00    +0.000 N 
ATOM     13  C   UNL     1       0.084  10.900  19.180  0.00  0.00    +0.000 C 
ATOM     14  O   UNL     1       0.570  11.712  18.392  0.00  0.00    +0.000 OA
ATOM     15  H   UNL     1      -1.406   9.657  19.812  0.00  0.00    +0.000 HD
BRANCH  12  22
ATOM     16  C   UNL     1      -3.392  12.134  19.480  0.00  0.00    +0.000 C 
ATOM     17  C   UNL     1      -3.174  11.364  18.206  0.00  0.00    +0.000 A 
ATOM     18  C   UNL     1      -4.100  11.557  17.160  0.00  0.00    +0.000 A 
ATOM     19  C   UNL     1      -3.966  10.889  15.944  0.00  0.00    +0.000 A 
ATOM     20  C   UNL     1      -2.922   9.997  15.767  0.00  0.00    +0.000 A 
ATOM     21  C   UNL     1      -1.994   9.796  16.792  0.00  0.00    +0.000 A 
ATOM     22  C   UNL     1      -2.096  10.473  18.014  0.00  0.00    +0.000 A 
ENDBRANCH  12  22
ENDBRANCH  11  13
ENDBRANCH   1  11
BRANCH   4  23
ATOM     23  S   UNL     1       4.015   6.835  17.537  0.00  0.00    +0.000 S 
BRANCH  23  24
ATOM     24  C   UNL     1       5.125   5.400  17.213  0.00  0.00    +0.000 C 
ATOM     25  C   UNL     1       6.370   5.793  16.407  0.00  0.00    +0.000 C 
ATOM     26  C   UNL     1       7.334   6.687  17.184  0.00  0.00    +0.000 C 
ATOM     27  C   UNL     1       7.738   6.087  18.525  0.00  0.00    +0.000 C 
ATOM     28  C   UNL     1       6.561   5.557  19.346  0.00  0.00    +0.000 C 
ATOM     29  C   UNL     1       5.575   4.728  18.523  0.00  0.00    +0.000 C 
ENDBRANCH  23  24
ENDBRANCH   4  23
TORSDOF 5
ENDMDL
MODEL 9
REMARK VINA RESULT:      -7.8      2.952      8.510
REMARK  Name = 
REMARK  6 active torsions:
REMARK  status: ('A' for Active; 'I' for Inactive)
REMARK    1  A    between atoms: C_1  and  C_2
REMARK    2  A    between atoms: C_7  and  N_8
REMARK    3  A    between atoms: C_9  and  C_11
REMARK    4  A    between atoms: C_11  and  N_12
REMARK    5  A    between atoms: C_15  and  S_16
REMARK    6  A    between atoms: S_16  and  C_17
REMARK                            x       y       z     vdW  Elec       q    Type
REMARK                         _______ _______ _______ _____ _____    ______ ____
ROOT
ATOM      1  N   UNL     1       2.190   6.510  20.268  0.00  0.00    +0.000 N 
ATOM      2  N   UNL     1       2.978   6.782  19.156  0.00  0.00    +0.000 NA
ATOM      3  C   UNL     1       3.028   5.631  18.542  0.00  0.00    +0.000 A 
ATOM      4  C   UNL     1       3.710   5.202  17.275  0.00  0.00    +0.000 A 
ATOM      5  N   UNL     1       3.547   4.033  16.732  0.00  0.00    +0.000 NA
ATOM      6  C   UNL     1       2.707   3.158  17.389  0.00  0.00    +0.000 A 
ATOM      7  C   UNL     1       2.115   3.416  18.566  0.00  0.00    +0.000 A 
ATOM      8  N   UNL     1       2.303   4.640  19.130  0.00  0.00    +0.000 N 
ATOM      9  C   UNL     1       1.759   5.174  20.266  0.00  0.00    +0.000 A 
ATOM     10  O   UNL     1       1.031   4.628  21.081  0.00  0.00    +0.000 OA
ENDROOT
BRANCH   1  11
ATOM     11  C   UNL     1       1.803   7.493  21.251  0.00  0.00    +0.000 C 
BRANCH  11  13
ATOM     12  N   UNL     1       0.962   9.232  19.731  0.00  0.00    +0.000 N 
ATOM     13  C   UNL     1       0.650   8.379  20.782  0.00  0.00    +0.000 C 
ATOM     14  O   UNL     1      -0.414   8.354  21.400  0.00  0.00    +0.000 OA
ATOM     15  H   UNL     1       1.876   9.089  19.312  0.00  0.00    +0.000 HD
BRANCH  12  22
ATOM     16  C   UNL     1       1.166  12.049  20.576  0.00  0.00    +0.000 C 
ATOM     17  C   UNL     1       0.200  11.554  19.534  0.00  0.00    +0.000 A 
ATOM     18  C   UNL     1      -0.649  12.501  18.926  0.00  0.00    +0.000 A 
ATOM     19  C   UNL     1      -1.566  12.126  17.946  0.00  0.00    +0.000 A 
ATOM     20  C   UNL     1      -1.668  10.794  17.581  0.00  0.00    +0.000 A 
ATOM     21  C   UNL     1      -0.832   9.843  18.170  0.00  0.00    +0.000 A 
ATOM     22  C   UNL     1       0.112  10.200  19.141  0.00  0.00    +0.000 A 
ENDBRANCH  12  22
ENDBRANCH  11  13
ENDBRANCH   1  11
BRANCH   4  23
ATOM     23  S   UNL     1       4.741   6.464  16.701  0.00  0.00    +0.000 S 
BRANCH  23  24
ATOM     24  C   UNL     1       6.361   5.590  16.610  0.00  0.00    +0.000 C 
ATOM     25  C   UNL     1       7.542   6.558  16.465  0.00  0.00    +0.000 C 
ATOM     26  C   UNL     1       7.783   7.405  17.714  0.00  0.00    +0.000 C 
ATOM     27  C   UNL     1       7.940   6.561  18.973  0.00  0.00    +0.000 C 
ATOM     28  C   UNL     1       6.866   5.483  19.133  0.00  0.00    +0.000 C 
ATOM     29  C   UNL     1       6.595   4.704  17.847  0.00  0.00    +0.000 C 
ENDBRANCH  23  24
ENDBRANCH   4  23
TORSDOF 5
ENDMDL
