MODEL 1
REMARK VINA RESULT:      -6.5      0.000      0.000
REMARK  Name = 
REMARK  3 active torsions:
REMARK  status: ('A' for Active; 'I' for Inactive)
REMARK    1  A    between atoms: C_2  and  OXT_3
REMARK    2  A    between atoms: C_2  and  CA_4
REMARK    3  A    between atoms: C_13  and  S_14
REMARK                            x       y       z     vdW  Elec       q    Type
REMARK                         _______ _______ _______ _____ _____    ______ ____
ROOT
ATOM      1  CA  UNL     1       2.630   4.032  19.977  0.00  0.00    +0.000 A 
ATOM      2  N   UNL     1       2.440   5.368  20.231  0.00  0.00    +0.000 NA
ATOM      3  C   UNL     1       2.969   6.232  19.343  0.00  0.00    +0.000 A 
ATOM      4  C   UNL     1       3.700   5.865  18.216  0.00  0.00    +0.000 A 
ATOM      5  C   UNL     1       4.249   6.854  17.384  0.00  0.00    +0.000 A 
ATOM      6  C   UNL     1       4.995   6.512  16.262  0.00  0.00    +0.000 A 
ATOM      7  C   UNL     1       5.180   5.175  15.953  0.00  0.00    +0.000 A 
ATOM      8  C   UNL     1       4.626   4.182  16.770  0.00  0.00    +0.000 A 
ATOM      9  C   UNL     1       3.879   4.484  17.945  0.00  0.00    +0.000 A 
ATOM     10  C   UNL     1       3.312   3.525  18.852  0.00  0.00    +0.000 A 
ENDROOT
BRANCH   1  12
ATOM     11  O   UNL     1       2.593   2.706  22.052  0.00  0.00    +0.000 OA
ATOM     12  C   UNL     1       2.036   3.182  21.082  0.00  0.00    +0.000 C 
BRANCH  12  13
ATOM     13  OXT UNL     1       0.702   3.021  20.862  0.00  0.00    +0.000 OA
ATOM     14  HXT UNL     1       0.578   2.652  19.956  0.00  0.00    +0.000 HD
ENDBRANCH  12  13
ENDBRANCH   1  12
BRANCH  10  15
ATOM     15  S   UNL     1       3.410   1.756  18.552  0.00  0.00    +0.000 S 
ATOM     16  H   UNL     1       4.173   1.738  17.457  0.00  0.00    +0.000 HD
ENDBRANCH  10  15
TORSDOF 3
ENDMDL
MODEL 2
REMARK VINA RESULT:      -6.2      1.726      2.363
REMARK  Name = 
REMARK  3 active torsions:
REMARK  status: ('A' for Active; 'I' for Inactive)
REMARK    1  A    between atoms: C_2  and  OXT_3
REMARK    2  A    between atoms: C_2  and  CA_4
REMARK    3  A    between atoms: C_13  and  S_14
REMARK                            x       y       z     vdW  Elec       q    Type
REMARK                         _______ _______ _______ _____ _____    ______ ____
ROOT
ATOM      1  CA  UNL     1       2.525   3.582  19.670  0.00  0.00    +0.000 A 
ATOM      2  N   UNL     1       3.038   2.467  19.054  0.00  0.00    +0.000 NA
ATOM      3  C   UNL     1       3.849   2.680  17.999  0.00  0.00    +0.000 A 
ATOM      4  C   UNL     1       4.178   3.934  17.491  0.00  0.00    +0.000 A 
ATOM      5  C   UNL     1       4.996   4.036  16.354  0.00  0.00    +0.000 A 
ATOM      6  C   UNL     1       5.325   5.277  15.819  0.00  0.00    +0.000 A 
ATOM      7  C   UNL     1       4.855   6.426  16.432  0.00  0.00    +0.000 A 
ATOM      8  C   UNL     1       4.050   6.334  17.575  0.00  0.00    +0.000 A 
ATOM      9  C   UNL     1       3.663   5.086  18.141  0.00  0.00    +0.000 A 
ATOM     10  C   UNL     1       2.812   4.907  19.285  0.00  0.00    +0.000 A 
ENDROOT
BRANCH   1  12
ATOM     11  O   UNL     1       1.861   2.964  21.960  0.00  0.00    +0.000 OA
ATOM     12  C   UNL     1       1.589   3.194  20.797  0.00  0.00    +0.000 C 
BRANCH  12  13
ATOM     13  OXT UNL     1       0.311   3.154  20.331  0.00  0.00    +0.000 OA
ATOM     14  HXT UNL     1       0.269   3.672  19.493  0.00  0.00    +0.000 HD
ENDBRANCH  12  13
ENDBRANCH   1  12
BRANCH  10  15
ATOM     15  S   UNL     1       2.178   6.300  20.227  0.00  0.00    +0.000 S 
ATOM     16  H   UNL     1       0.888   6.254  19.889  0.00  0.00    +0.000 HD
ENDBRANCH  10  15
TORSDOF 3
ENDMDL
MODEL 3
REMARK VINA RESULT:      -6.0      3.756      5.243
REMARK  Name = 
REMARK  3 active torsions:
REMARK  status: ('A' for Active; 'I' for Inactive)
REMARK    1  A    between atoms: C_2  and  OXT_3
REMARK    2  A    between atoms: C_2  and  CA_4
REMARK    3  A    between atoms: C_13  and  S_14
REMARK                            x       y       z     vdW  Elec       q    Type
REMARK                         _______ _______ _______ _____ _____    ______ ____
ROOT
ATOM      1  CA  UNL     1       4.543   5.531  17.004  0.00  0.00    +0.000 A 
ATOM      2  N   UNL     1       5.003   4.294  16.623  0.00  0.00    +0.000 NA
ATOM      3  C   UNL     1       4.326   3.228  17.093  0.00  0.00    +0.000 A 
ATOM      4  C   UNL     1       3.224   3.297  17.940  0.00  0.00    +0.000 A 
ATOM      5  C   UNL     1       2.625   2.116  18.409  0.00  0.00    +0.000 A 
ATOM      6  C   UNL     1       1.533   2.160  19.268  0.00  0.00    +0.000 A 
ATOM      7  C   UNL     1       1.019   3.388  19.648  0.00  0.00    +0.000 A 
ATOM      8  C   UNL     1       1.601   4.571  19.176  0.00  0.00    +0.000 A 
ATOM      9  C   UNL     1       2.738   4.576  18.317  0.00  0.00    +0.000 A 
ATOM     10  C   UNL     1       3.414   5.743  17.822  0.00  0.00    +0.000 A 
ENDROOT
BRANCH   1  12
ATOM     11  O   UNL     1       6.334   7.222  17.011  0.00  0.00    +0.000 OA
ATOM     12  C   UNL     1       5.429   6.630  16.454  0.00  0.00    +0.000 C 
BRANCH  12  13
ATOM     13  OXT UNL     1       5.087   6.882  15.160  0.00  0.00    +0.000 OA
ATOM     14  HXT UNL     1       4.420   7.608  15.150  0.00  0.00    +0.000 HD
ENDBRANCH  12  13
ENDBRANCH   1  12
BRANCH  10  15
ATOM     15  S   UNL     1       2.827   7.404  18.173  0.00  0.00    +0.000 S 
ATOM     16  H   UNL     1       1.708   7.129  18.845  0.00  0.00    +0.000 HD
ENDBRANCH  10  15
TORSDOF 3
ENDMDL
MODEL 4
REMARK VINA RESULT:      -5.9      2.269      3.314
REMARK  Name = 
REMARK  3 active torsions:
REMARK  status: ('A' for Active; 'I' for Inactive)
REMARK    1  A    between atoms: C_2  and  OXT_3
REMARK    2  A    between atoms: C_2  and  CA_4
REMARK    3  A    between atoms: C_13  and  S_14
REMARK                            x       y       z     vdW  Elec       q    Type
REMARK                         _______ _______ _______ _____ _____    ______ ____
ROOT
ATOM      1  CA  UNL     1       3.387   3.406  19.435  0.00  0.00    +0.000 A 
ATOM      2  N   UNL     1       2.717   3.494  20.630  0.00  0.00    +0.000 NA
ATOM      3  C   UNL     1       2.156   4.684  20.922  0.00  0.00    +0.000 A 
ATOM      4  C   UNL     1       2.226   5.815  20.113  0.00  0.00    +0.000 A 
ATOM      5  C   UNL     1       1.644   7.019  20.540  0.00  0.00    +0.000 A 
ATOM      6  C   UNL     1       1.715   8.166  19.756  0.00  0.00    +0.000 A 
ATOM      7  C   UNL     1       2.353   8.109  18.528  0.00  0.00    +0.000 A 
ATOM      8  C   UNL     1       2.925   6.909  18.088  0.00  0.00    +0.000 A 
ATOM      9  C   UNL     1       2.902   5.717  18.868  0.00  0.00    +0.000 A 
ATOM     10  C   UNL     1       3.497   4.461  18.505  0.00  0.00    +0.000 A 
ENDROOT
BRANCH   1  12
ATOM     11  O   UNL     1       3.655   1.125  18.545  0.00  0.00    +0.000 OA
ATOM     12  C   UNL     1       4.014   2.038  19.266  0.00  0.00    +0.000 C 
BRANCH  12  13
ATOM     13  OXT UNL     1       5.122   1.947  20.051  0.00  0.00    +0.000 OA
ATOM     14  HXT UNL     1       5.907   1.813  19.468  0.00  0.00    +0.000 HD
ENDBRANCH  12  13
ENDBRANCH   1  12
BRANCH  10  15
ATOM     15  S   UNL     1       4.300   4.211  16.917  0.00  0.00    +0.000 S 
ATOM     16  H   UNL     1       4.921   5.384  16.773  0.00  0.00    +0.000 HD
ENDBRANCH  10  15
TORSDOF 3
ENDMDL
MODEL 5
REMARK VINA RESULT:      -5.8      1.190      1.588
REMARK  Name = 
REMARK  3 active torsions:
REMARK  status: ('A' for Active; 'I' for Inactive)
REMARK    1  A    between atoms: C_2  and  OXT_3
REMARK    2  A    between atoms: C_2  and  CA_4
REMARK    3  A    between atoms: C_13  and  S_14
REMARK                            x       y       z     vdW  Elec       q    Type
REMARK                         _______ _______ _______ _____ _____    ______ ____
ROOT
ATOM      1  CA  UNL     1       2.660   4.942  19.122  0.00  0.00    +0.000 A 
ATOM      2  N   UNL     1       2.741   6.299  18.929  0.00  0.00    +0.000 NA
ATOM      3  C   UNL     1       3.527   6.719  17.918  0.00  0.00    +0.000 A 
ATOM      4  C   UNL     1       4.265   5.882  17.086  0.00  0.00    +0.000 A 
ATOM      5  C   UNL     1       5.092   6.433  16.094  0.00  0.00    +0.000 A 
ATOM      6  C   UNL     1       5.850   5.618  15.260  0.00  0.00    +0.000 A 
ATOM      7  C   UNL     1       5.770   4.243  15.401  0.00  0.00    +0.000 A 
ATOM      8  C   UNL     1       4.938   3.684  16.380  0.00  0.00    +0.000 A 
ATOM      9  C   UNL     1       4.165   4.479  17.274  0.00  0.00    +0.000 A 
ATOM     10  C   UNL     1       3.320   3.984  18.325  0.00  0.00    +0.000 A 
ENDROOT
BRANCH   1  12
ATOM     11  O   UNL     1       0.674   4.139  20.338  0.00  0.00    +0.000 OA
ATOM     12  C   UNL     1       1.793   4.617  20.321  0.00  0.00    +0.000 C 
BRANCH  12  13
ATOM     13  OXT UNL     1       2.467   4.920  21.464  0.00  0.00    +0.000 OA
ATOM     14  HXT UNL     1       3.425   4.731  21.319  0.00  0.00    +0.000 HD
ENDBRANCH  12  13
ENDBRANCH   1  12
BRANCH  10  15
ATOM     15  S   UNL     1       3.061   2.226  18.590  0.00  0.00    +0.000 S 
ATOM     16  H   UNL     1       3.123   2.170  19.922  0.00  0.00    +0.000 HD
ENDBRANCH  10  15
TORSDOF 3
ENDMDL
MODEL 6
REMARK VINA RESULT:      -5.8      3.603      4.785
REMARK  Name = 
REMARK  3 active torsions:
REMARK  status: ('A' for Active; 'I' for Inactive)
REMARK    1  A    between atoms: C_2  and  OXT_3
REMARK    2  A    between atoms: C_2  and  CA_4
REMARK    3  A    between atoms: C_13  and  S_14
REMARK                            x       y       z     vdW  Elec       q    Type
REMARK                         _______ _______ _______ _____ _____    ______ ____
ROOT
ATOM      1  CA  UNL     1       5.967   4.956  17.705  0.00  0.00    +0.000 A 
ATOM      2  N   UNL     1       5.922   5.392  19.006  0.00  0.00    +0.000 NA
ATOM      3  C   UNL     1       4.762   5.205  19.666  0.00  0.00    +0.000 A 
ATOM      4  C   UNL     1       3.621   4.627  19.117  0.00  0.00    +0.000 A 
ATOM      5  C   UNL     1       2.448   4.527  19.884  0.00  0.00    +0.000 A 
ATOM      6  C   UNL     1       1.292   3.967  19.352  0.00  0.00    +0.000 A 
ATOM      7  C   UNL     1       1.307   3.484  18.054  0.00  0.00    +0.000 A 
ATOM      8  C   UNL     1       2.475   3.568  17.287  0.00  0.00    +0.000 A 
ATOM      9  C   UNL     1       3.675   4.158  17.779  0.00  0.00    +0.000 A 
ATOM     10  C   UNL     1       4.899   4.316  17.043  0.00  0.00    +0.000 A 
ENDROOT
BRANCH   1  12
ATOM     11  O   UNL     1       7.645   6.307  16.511  0.00  0.00    +0.000 OA
ATOM     12  C   UNL     1       7.304   5.282  17.071  0.00  0.00    +0.000 C 
BRANCH  12  13
ATOM     13  OXT UNL     1       8.151   4.229  17.234  0.00  0.00    +0.000 OA
ATOM     14  HXT UNL     1       8.302   3.812  16.353  0.00  0.00    +0.000 HD
ENDBRANCH  12  13
ENDBRANCH   1  12
BRANCH  10  15
ATOM     15  S   UNL     1       5.095   3.682  15.373  0.00  0.00    +0.000 S 
ATOM     16  H   UNL     1       3.819   3.473  15.043  0.00  0.00    +0.000 HD
ENDBRANCH  10  15
TORSDOF 3
ENDMDL
MODEL 7
REMARK VINA RESULT:      -5.8      3.480      5.191
REMARK  Name = 
REMARK  3 active torsions:
REMARK  status: ('A' for Active; 'I' for Inactive)
REMARK    1  A    between atoms: C_2  and  OXT_3
REMARK    2  A    between atoms: C_2  and  CA_4
REMARK    3  A    between atoms: C_13  and  S_14
REMARK                            x       y       z     vdW  Elec       q    Type
REMARK                         _______ _______ _______ _____ _____    ______ ____
ROOT
ATOM      1  CA  UNL     1       4.475   3.859  17.027  0.00  0.00    +0.000 A 
ATOM      2  N   UNL     1       4.184   2.521  17.135  0.00  0.00    +0.000 NA
ATOM      3  C   UNL     1       3.263   2.177  18.057  0.00  0.00    +0.000 A 
ATOM      4  C   UNL     1       2.615   3.071  18.904  0.00  0.00    +0.000 A 
ATOM      5  C   UNL     1       1.707   2.594  19.863  0.00  0.00    +0.000 A 
ATOM      6  C   UNL     1       1.058   3.466  20.731  0.00  0.00    +0.000 A 
ATOM      7  C   UNL     1       1.300   4.826  20.631  0.00  0.00    +0.000 A 
ATOM      8  C   UNL     1       2.194   5.312  19.669  0.00  0.00    +0.000 A 
ATOM      9  C   UNL     1       2.902   4.455  18.778  0.00  0.00    +0.000 A 
ATOM     10  C   UNL     1       3.861   4.871  17.793  0.00  0.00    +0.000 A 
ENDROOT
BRANCH   1  12
ATOM     11  O   UNL     1       5.443   4.357  14.818  0.00  0.00    +0.000 OA
ATOM     12  C   UNL     1       5.563   4.094  15.999  0.00  0.00    +0.000 C 
BRANCH  12  13
ATOM     13  OXT UNL     1       6.782   3.994  16.598  0.00  0.00    +0.000 OA
ATOM     14  HXT UNL     1       6.795   4.595  17.379  0.00  0.00    +0.000 HD
ENDBRANCH  12  13
ENDBRANCH   1  12
BRANCH  10  15
ATOM     15  S   UNL     1       4.232   6.605  17.498  0.00  0.00    +0.000 S 
ATOM     16  H   UNL     1       3.057   7.026  17.024  0.00  0.00    +0.000 HD
ENDBRANCH  10  15
TORSDOF 3
ENDMDL
MODEL 8
REMARK VINA RESULT:      -5.8      2.236      3.133
REMARK  Name = 
REMARK  3 active torsions:
REMARK  status: ('A' for Active; 'I' for Inactive)
REMARK    1  A    between atoms: C_2  and  OXT_3
REMARK    2  A    between atoms: C_2  and  CA_4
REMARK    3  A    between atoms: C_13  and  S_14
REMARK                            x       y       z     vdW  Elec       q    Type
REMARK                         _______ _______ _______ _____ _____    ______ ____
ROOT
ATOM      1  CA  UNL     1       4.208   3.585  19.234  0.00  0.00    +0.000 A 
ATOM      2  N   UNL     1       5.004   3.932  18.170  0.00  0.00    +0.000 NA
ATOM      3  C   UNL     1       4.824   5.165  17.658  0.00  0.00    +0.000 A 
ATOM      4  C   UNL     1       3.887   6.086  18.117  0.00  0.00    +0.000 A 
ATOM      5  C   UNL     1       3.752   7.328  17.475  0.00  0.00    +0.000 A 
ATOM      6  C   UNL     1       2.812   8.258  17.906  0.00  0.00    +0.000 A 
ATOM      7  C   UNL     1       2.014   7.959  18.998  0.00  0.00    +0.000 A 
ATOM      8  C   UNL     1       2.150   6.728  19.652  0.00  0.00    +0.000 A 
ATOM      9  C   UNL     1       3.078   5.734  19.229  0.00  0.00    +0.000 A 
ATOM     10  C   UNL     1       3.251   4.437  19.822  0.00  0.00    +0.000 A 
ENDROOT
BRANCH   1  12
ATOM     11  O   UNL     1       5.032   1.766  20.675  0.00  0.00    +0.000 OA
ATOM     12  C   UNL     1       4.476   2.158  19.667  0.00  0.00    +0.000 C 
BRANCH  12  13
ATOM     13  OXT UNL     1       3.964   1.300  18.743  0.00  0.00    +0.000 OA
ATOM     14  HXT UNL     1       4.548   0.506  18.697  0.00  0.00    +0.000 HD
ENDBRANCH  12  13
ENDBRANCH   1  12
BRANCH  10  15
ATOM     15  S   UNL     1       2.337   3.928  21.283  0.00  0.00    +0.000 S 
ATOM     16  H   UNL     1       3.309   3.341  21.985  0.00  0.00    +0.000 HD
ENDBRANCH  10  15
TORSDOF 3
ENDMDL
MODEL 9
REMARK VINA RESULT:      -5.8      3.507      4.740
REMARK  Name = 
REMARK  3 active torsions:
REMARK  status: ('A' for Active; 'I' for Inactive)
REMARK    1  A    between atoms: C_2  and  OXT_3
REMARK    2  A    between atoms: C_2  and  CA_4
REMARK    3  A    between atoms: C_13  and  S_14
REMARK                            x       y       z     vdW  Elec       q    Type
REMARK                         _______ _______ _______ _____ _____    ______ ____
ROOT
ATOM      1  CA  UNL     1       4.478   5.966  17.192  0.00  0.00    +0.000 A 
ATOM      2  N   UNL     1       3.676   6.742  17.993  0.00  0.00    +0.000 NA
ATOM      3  C   UNL     1       2.690   6.107  18.655  0.00  0.00    +0.000 A 
ATOM      4  C   UNL     1       2.423   4.743  18.566  0.00  0.00    +0.000 A 
ATOM      5  C   UNL     1       1.336   4.194  19.264  0.00  0.00    +0.000 A 
ATOM      6  C   UNL     1       1.041   2.838  19.179  0.00  0.00    +0.000 A 
ATOM      7  C   UNL     1       1.847   2.017  18.409  0.00  0.00    +0.000 A 
ATOM      8  C   UNL     1       2.942   2.553  17.719  0.00  0.00    +0.000 A 
ATOM      9  C   UNL     1       3.266   3.939  17.754  0.00  0.00    +0.000 A 
ATOM     10  C   UNL     1       4.346   4.571  17.047  0.00  0.00    +0.000 A 
ENDROOT
BRANCH   1  12
ATOM     11  O   UNL     1       6.543   7.277  16.898  0.00  0.00    +0.000 OA
ATOM     12  C   UNL     1       5.502   6.816  16.468  0.00  0.00    +0.000 C 
BRANCH  12  13
ATOM     13  OXT UNL     1       5.108   6.998  15.177  0.00  0.00    +0.000 OA
ATOM     14  HXT UNL     1       5.845   6.717  14.585  0.00  0.00    +0.000 HD
ENDBRANCH  12  13
ENDBRANCH   1  12
BRANCH  10  15
ATOM     15  S   UNL     1       5.517   3.629  16.061  0.00  0.00    +0.000 S 
ATOM     16  H   UNL     1       4.980   3.770  14.848  0.00  0.00    +0.000 HD
ENDBRANCH  10  15
TORSDOF 3
ENDMDL
