MODEL 1
REMARK VINA RESULT:      -8.4      0.000      0.000
REMARK  Name = 
REMARK  8 active torsions:
REMARK  status: ('A' for Active; 'I' for Inactive)
REMARK    1  A    between atoms: C_1  and  O_2
REMARK    2  A    between atoms: O_2  and  C_3
REMARK    3  A    between atoms: C_3  and  C_5
REMARK    4  A    between atoms: C_11  and  O_12
REMARK    5  A    between atoms: O_12  and  C_13
REMARK    6  A    between atoms: C_13  and  C_15
REMARK    7  A    between atoms: C_18  and  N_19
REMARK    8  A    between atoms: N_25  and  C_26
REMARK                            x       y       z     vdW  Elec       q    Type
REMARK                         _______ _______ _______ _____ _____    ______ ____
ROOT
ATOM      1  C   UNL     1       5.171   4.752  18.678  0.00  0.00    +0.000 C 
ATOM      2  C   UNL     1       6.675   4.735  18.266  0.00  0.00    +0.000 C 
ATOM      3  C   UNL     1       7.472   5.942  18.838  0.00  0.00    +0.000 C 
ATOM      4  C   UNL     1       7.551   6.960  17.680  0.00  0.00    +0.000 C 
ATOM      5  C   UNL     1       6.484   6.449  16.707  0.00  0.00    +0.000 C 
ATOM      6  C   UNL     1       5.078   6.813  17.265  0.00  0.00    +0.000 C 
ATOM      7  C   UNL     1       4.318   5.547  17.668  0.00  0.00    +0.000 C 
ATOM      8  N   UNL     1       6.870   5.045  16.850  0.00  0.00    +0.000 NA
ATOM      9  C   UNL     1       6.490   4.063  15.865  0.00  0.00    +0.000 C 
ENDROOT
BRANCH   1  10
ATOM     10  C   UNL     1       4.613   3.351  18.790  0.00  0.00    +0.000 C 
ATOM     11  O   UNL     1       4.798   2.583  19.724  0.00  0.00    +0.000 OA
BRANCH  10  13
ATOM     12  C   UNL     1       2.807   2.146  17.885  0.00  0.00    +0.000 C 
ATOM     13  O   UNL     1       3.896   3.045  17.670  0.00  0.00    +0.000 OA
ENDBRANCH  10  13
ENDBRANCH   1  10
BRANCH   7  14
ATOM     14  O   UNL     1       2.939   5.752  18.047  0.00  0.00    +0.000 OA
BRANCH  14  15
ATOM     15  C   UNL     1       2.650   6.182  19.287  0.00  0.00    +0.000 C 
ATOM     16  O   UNL     1       2.785   5.541  20.320  0.00  0.00    +0.000 OA
BRANCH  15  17
ATOM     17  C   UNL     1       2.131   7.567  19.258  0.00  0.00    +0.000 A 
ATOM     18  C   UNL     1       2.074   8.356  18.108  0.00  0.00    +0.000 A 
ATOM     19  C   UNL     1       1.404   9.589  18.152  0.00  0.00    +0.000 A 
ATOM     20  C   UNL     1       0.777  10.055  19.326  0.00  0.00    +0.000 A 
ATOM     21  C   UNL     1       0.888   9.261  20.484  0.00  0.00    +0.000 A 
ATOM     22  I   UNL     1      -0.034   9.681  22.329  0.00  0.00    +0.000 I 
ATOM     23  C   UNL     1       1.576   8.042  20.448  0.00  0.00    +0.000 A 
BRANCH  20  24
ATOM     24  N   UNL     1      -0.032  11.201  19.172  0.00  0.00    +0.000 NA
ATOM     25  N   UNL     1      -1.033  11.079  18.443  0.00  0.00    +0.000 NA
ATOM     26  N   UNL     1      -1.954  11.014  17.773  0.00  0.00    +0.000 NA
ENDBRANCH  20  24
ENDBRANCH  15  17
ENDBRANCH  14  15
ENDBRANCH   7  14
TORSDOF 6
ENDMDL
MODEL 2
REMARK VINA RESULT:      -8.1      0.700      1.139
REMARK  Name = 
REMARK  8 active torsions:
REMARK  status: ('A' for Active; 'I' for Inactive)
REMARK    1  A    between atoms: C_1  and  O_2
REMARK    2  A    between atoms: O_2  and  C_3
REMARK    3  A    between atoms: C_3  and  C_5
REMARK    4  A    between atoms: C_11  and  O_12
REMARK    5  A    between atoms: O_12  and  C_13
REMARK    6  A    between atoms: C_13  and  C_15
REMARK    7  A    between atoms: C_18  and  N_19
REMARK    8  A    between atoms: N_25  and  C_26
REMARK                            x       y       z     vdW  Elec       q    Type
REMARK                         _______ _______ _______ _____ _____    ______ ____
ROOT
ATOM      1  C   UNL     1       5.212   4.683  18.480  0.00  0.00    +0.000 C 
ATOM      2  C   UNL     1       6.740   4.637  18.173  0.00  0.00    +0.000 C 
ATOM      3  C   UNL     1       7.555   5.666  19.009  0.00  0.00    +0.000 C 
ATOM      4  C   UNL     1       7.779   6.866  18.065  0.00  0.00    +0.000 C 
ATOM      5  C   UNL     1       6.766   6.611  16.946  0.00  0.00    +0.000 C 
ATOM      6  C   UNL     1       5.342   6.964  17.465  0.00  0.00    +0.000 C 
ATOM      7  C   UNL     1       4.485   5.701  17.578  0.00  0.00    +0.000 C 
ATOM      8  N   UNL     1       7.062   5.181  16.854  0.00  0.00    +0.000 NA
ATOM      9  C   UNL     1       6.708   4.419  15.683  0.00  0.00    +0.000 C 
ENDROOT
BRANCH   1  10
ATOM     10  C   UNL     1       4.572   3.325  18.296  0.00  0.00    +0.000 C 
ATOM     11  O   UNL     1       4.213   2.845  17.230  0.00  0.00    +0.000 OA
BRANCH  10  13
ATOM     12  C   UNL     1       3.078   2.298  19.797  0.00  0.00    +0.000 C 
ATOM     13  O   UNL     1       4.413   2.717  19.508  0.00  0.00    +0.000 OA
ENDBRANCH  10  13
ENDBRANCH   1  10
BRANCH   7  14
ATOM     14  O   UNL     1       3.094   5.928  17.894  0.00  0.00    +0.000 OA
BRANCH  14  15
ATOM     15  C   UNL     1       2.753   6.333  19.129  0.00  0.00    +0.000 C 
ATOM     16  O   UNL     1       2.906   5.697  20.162  0.00  0.00    +0.000 OA
BRANCH  15  17
ATOM     17  C   UNL     1       2.151   7.684  19.095  0.00  0.00    +0.000 A 
ATOM     18  C   UNL     1       2.015   8.449  17.935  0.00  0.00    +0.000 A 
ATOM     19  C   UNL     1       1.273   9.640  17.980  0.00  0.00    +0.000 A 
ATOM     20  C   UNL     1       0.652  10.087  19.164  0.00  0.00    +0.000 A 
ATOM     21  C   UNL     1       0.843   9.320  20.330  0.00  0.00    +0.000 A 
ATOM     22  I   UNL     1      -0.051   9.715  22.195  0.00  0.00    +0.000 I 
ATOM     23  C   UNL     1       1.602   8.145  20.293  0.00  0.00    +0.000 A 
BRANCH  20  24
ATOM     24  N   UNL     1      -0.228  11.179  19.017  0.00  0.00    +0.000 NA
ATOM     25  N   UNL     1       0.289  12.312  19.008  0.00  0.00    +0.000 NA
ATOM     26  N   UNL     1       0.722  13.367  19.006  0.00  0.00    +0.000 NA
ENDBRANCH  20  24
ENDBRANCH  15  17
ENDBRANCH  14  15
ENDBRANCH   7  14
TORSDOF 6
ENDMDL
MODEL 3
REMARK VINA RESULT:      -7.9      2.468      4.073
REMARK  Name = 
REMARK  8 active torsions:
REMARK  status: ('A' for Active; 'I' for Inactive)
REMARK    1  A    between atoms: C_1  and  O_2
REMARK    2  A    between atoms: O_2  and  C_3
REMARK    3  A    between atoms: C_3  and  C_5
REMARK    4  A    between atoms: C_11  and  O_12
REMARK    5  A    between atoms: O_12  and  C_13
REMARK    6  A    between atoms: C_13  and  C_15
REMARK    7  A    between atoms: C_18  and  N_19
REMARK    8  A    between atoms: N_25  and  C_26
REMARK                            x       y       z     vdW  Elec       q    Type
REMARK                         _______ _______ _______ _____ _____    ______ ____
ROOT
ATOM      1  C   UNL     1       3.659   4.776  18.551  0.00  0.00    +0.000 C 
ATOM      2  C   UNL     1       3.446   3.248  18.328  0.00  0.00    +0.000 C 
ATOM      3  C   UNL     1       2.129   2.927  17.565  0.00  0.00    +0.000 C 
ATOM      4  C   UNL     1       1.114   2.531  18.658  0.00  0.00    +0.000 C 
ATOM      5  C   UNL     1       1.785   3.031  19.941  0.00  0.00    +0.000 C 
ATOM      6  C   UNL     1       1.642   4.578  20.014  0.00  0.00    +0.000 C 
ATOM      7  C   UNL     1       3.009   5.251  19.866  0.00  0.00    +0.000 C 
ATOM      8  N   UNL     1       3.113   2.543  19.566  0.00  0.00    +0.000 NA
ATOM      9  C   UNL     1       4.144   2.351  20.555  0.00  0.00    +0.000 C 
ENDROOT
BRANCH   1  10
ATOM     10  C   UNL     1       5.130   5.129  18.580  0.00  0.00    +0.000 C 
ATOM     11  O   UNL     1       5.987   4.557  19.239  0.00  0.00    +0.000 OA
BRANCH  10  13
ATOM     12  C   UNL     1       5.082   6.013  16.400  0.00  0.00    +0.000 C 
ATOM     13  O   UNL     1       5.363   6.215  17.786  0.00  0.00    +0.000 OA
ENDBRANCH  10  13
ENDBRANCH   1  10
BRANCH   7  14
ATOM     14  O   UNL     1       3.018   6.679  20.082  0.00  0.00    +0.000 OA
BRANCH  14  15
ATOM     15  C   UNL     1       2.245   7.470  19.318  0.00  0.00    +0.000 C 
ATOM     16  O   UNL     1       2.164   7.433  18.098  0.00  0.00    +0.000 OA
BRANCH  15  17
ATOM     17  C   UNL     1       1.477   8.422  20.150  0.00  0.00    +0.000 A 
ATOM     18  C   UNL     1       1.318   8.300  21.532  0.00  0.00    +0.000 A 
ATOM     19  C   UNL     1       0.722   9.347  22.251  0.00  0.00    +0.000 A 
ATOM     20  C   UNL     1       0.283  10.530  21.620  0.00  0.00    +0.000 A 
ATOM     21  C   UNL     1       0.414  10.609  20.220  0.00  0.00    +0.000 A 
ATOM     22  I   UNL     1      -0.072  12.293  19.055  0.00  0.00    +0.000 I 
ATOM     23  C   UNL     1       0.987   9.555  19.498  0.00  0.00    +0.000 A 
BRANCH  20  24
ATOM     24  N   UNL     1      -0.102  11.576  22.484  0.00  0.00    +0.000 NA
ATOM     25  N   UNL     1      -1.278  11.555  22.891  0.00  0.00    +0.000 NA
ATOM     26  N   UNL     1      -2.351  11.580  23.278  0.00  0.00    +0.000 NA
ENDBRANCH  20  24
ENDBRANCH  15  17
ENDBRANCH  14  15
ENDBRANCH   7  14
TORSDOF 6
ENDMDL
MODEL 4
REMARK VINA RESULT:      -7.7      2.678      3.618
REMARK  Name = 
REMARK  8 active torsions:
REMARK  status: ('A' for Active; 'I' for Inactive)
REMARK    1  A    between atoms: C_1  and  O_2
REMARK    2  A    between atoms: O_2  and  C_3
REMARK    3  A    between atoms: C_3  and  C_5
REMARK    4  A    between atoms: C_11  and  O_12
REMARK    5  A    between atoms: O_12  and  C_13
REMARK    6  A    between atoms: C_13  and  C_15
REMARK    7  A    between atoms: C_18  and  N_19
REMARK    8  A    between atoms: N_25  and  C_26
REMARK                            x       y       z     vdW  Elec       q    Type
REMARK                         _______ _______ _______ _____ _____    ______ ____
ROOT
ATOM      1  C   UNL     1       3.178   5.096  19.956  0.00  0.00    +0.000 C 
ATOM      2  C   UNL     1       3.763   3.944  19.083  0.00  0.00    +0.000 C 
ATOM      3  C   UNL     1       5.304   4.050  18.896  0.00  0.00    +0.000 C 
ATOM      4  C   UNL     1       5.499   4.698  17.509  0.00  0.00    +0.000 C 
ATOM      5  C   UNL     1       4.109   5.264  17.201  0.00  0.00    +0.000 C 
ATOM      6  C   UNL     1       3.888   6.548  18.049  0.00  0.00    +0.000 C 
ATOM      7  C   UNL     1       2.796   6.317  19.097  0.00  0.00    +0.000 C 
ATOM      8  N   UNL     1       3.401   4.073  17.672  0.00  0.00    +0.000 NA
ATOM      9  C   UNL     1       2.039   3.809  17.277  0.00  0.00    +0.000 C 
ENDROOT
BRANCH   1  10
ATOM     10  C   UNL     1       1.958   4.640  20.726  0.00  0.00    +0.000 C 
ATOM     11  O   UNL     1       0.805   4.978  20.497  0.00  0.00    +0.000 OA
BRANCH  10  13
ATOM     12  C   UNL     1       1.678   2.549  21.766  0.00  0.00    +0.000 C 
ATOM     13  O   UNL     1       2.334   3.818  21.749  0.00  0.00    +0.000 OA
ENDBRANCH  10  13
ENDBRANCH   1  10
BRANCH   7  14
ATOM     14  O   UNL     1       2.392   7.493  19.833  0.00  0.00    +0.000 OA
BRANCH  14  15
ATOM     15  C   UNL     1       1.647   8.432  19.226  0.00  0.00    +0.000 C 
ATOM     16  O   UNL     1       1.623   8.664  18.025  0.00  0.00    +0.000 OA
BRANCH  15  17
ATOM     17  C   UNL     1       0.831   9.178  20.209  0.00  0.00    +0.000 A 
ATOM     18  C   UNL     1       0.506   8.697  21.479  0.00  0.00    +0.000 A 
ATOM     19  C   UNL     1      -0.121   9.552  22.398  0.00  0.00    +0.000 A 
ATOM     20  C   UNL     1      -0.430  10.891  22.081  0.00  0.00    +0.000 A 
ATOM     21  C   UNL     1      -0.132  11.337  20.778  0.00  0.00    +0.000 A 
ATOM     22  I   UNL     1      -0.402  13.307  20.085  0.00  0.00    +0.000 I 
ATOM     23  C   UNL     1       0.472  10.479  19.852  0.00  0.00    +0.000 A 
BRANCH  20  24
ATOM     24  N   UNL     1      -0.865  11.689  23.159  0.00  0.00    +0.000 NA
ATOM     25  N   UNL     1      -2.096  11.809  23.300  0.00  0.00    +0.000 NA
ATOM     26  N   UNL     1      -3.216  11.954  23.458  0.00  0.00    +0.000 NA
ENDBRANCH  20  24
ENDBRANCH  15  17
ENDBRANCH  14  15
ENDBRANCH   7  14
TORSDOF 6
ENDMDL
MODEL 5
REMARK VINA RESULT:      -7.7      1.872      3.593
REMARK  Name = 
REMARK  8 active torsions:
REMARK  status: ('A' for Active; 'I' for Inactive)
REMARK    1  A    between atoms: C_1  and  O_2
REMARK    2  A    between atoms: O_2  and  C_3
REMARK    3  A    between atoms: C_3  and  C_5
REMARK    4  A    between atoms: C_11  and  O_12
REMARK    5  A    between atoms: O_12  and  C_13
REMARK    6  A    between atoms: C_13  and  C_15
REMARK    7  A    between atoms: C_18  and  N_19
REMARK    8  A    between atoms: N_25  and  C_26
REMARK                            x       y       z     vdW  Elec       q    Type
REMARK                         _______ _______ _______ _____ _____    ______ ____
ROOT
ATOM      1  C   UNL     1       3.813   4.492  18.520  0.00  0.00    +0.000 C 
ATOM      2  C   UNL     1       3.573   2.952  18.484  0.00  0.00    +0.000 C 
ATOM      3  C   UNL     1       2.367   2.550  17.587  0.00  0.00    +0.000 C 
ATOM      4  C   UNL     1       1.191   2.335  18.563  0.00  0.00    +0.000 C 
ATOM      5  C   UNL     1       1.691   3.002  19.848  0.00  0.00    +0.000 C 
ATOM      6  C   UNL     1       1.600   4.546  19.682  0.00  0.00    +0.000 C 
ATOM      7  C   UNL     1       3.000   5.164  19.645  0.00  0.00    +0.000 C 
ATOM      8  N   UNL     1       3.038   2.440  19.745  0.00  0.00    +0.000 NA
ATOM      9  C   UNL     1       3.908   2.373  20.893  0.00  0.00    +0.000 C 
ENDROOT
BRANCH   1  10
ATOM     10  C   UNL     1       5.277   4.818  18.717  0.00  0.00    +0.000 C 
ATOM     11  O   UNL     1       5.787   5.203  19.759  0.00  0.00    +0.000 OA
BRANCH  10  13
ATOM     12  C   UNL     1       7.374   4.621  17.668  0.00  0.00    +0.000 C 
ATOM     13  O   UNL     1       5.951   4.656  17.541  0.00  0.00    +0.000 OA
ENDBRANCH  10  13
ENDBRANCH   1  10
BRANCH   7  14
ATOM     14  O   UNL     1       3.035   6.608  19.659  0.00  0.00    +0.000 OA
BRANCH  14  15
ATOM     15  C   UNL     1       2.693   7.289  18.552  0.00  0.00    +0.000 C 
ATOM     16  O   UNL     1       3.036   7.022  17.409  0.00  0.00    +0.000 OA
BRANCH  15  17
ATOM     17  C   UNL     1       1.823   8.439  18.886  0.00  0.00    +0.000 A 
ATOM     18  C   UNL     1       1.281   9.310  17.939  0.00  0.00    +0.000 A 
ATOM     19  C   UNL     1       0.331  10.260  18.343  0.00  0.00    +0.000 A 
ATOM     20  C   UNL     1      -0.103  10.359  19.682  0.00  0.00    +0.000 A 
ATOM     21  C   UNL     1       0.493   9.499  20.625  0.00  0.00    +0.000 A 
ATOM     22  I   UNL     1      -0.044   9.378  22.657  0.00  0.00    +0.000 I 
ATOM     23  C   UNL     1       1.459   8.567  20.228  0.00  0.00    +0.000 A 
BRANCH  20  24
ATOM     24  N   UNL     1      -1.206  11.209  19.905  0.00  0.00    +0.000 NA
ATOM     25  N   UNL     1      -1.052  12.407  19.606  0.00  0.00    +0.000 NA
ATOM     26  N   UNL     1      -0.949  13.516  19.356  0.00  0.00    +0.000 NA
ENDBRANCH  20  24
ENDBRANCH  15  17
ENDBRANCH  14  15
ENDBRANCH   7  14
TORSDOF 6
ENDMDL
MODEL 6
REMARK VINA RESULT:      -7.7      0.977      1.462
REMARK  Name = 
REMARK  8 active torsions:
REMARK  status: ('A' for Active; 'I' for Inactive)
REMARK    1  A    between atoms: C_1  and  O_2
REMARK    2  A    between atoms: O_2  and  C_3
REMARK    3  A    between atoms: C_3  and  C_5
REMARK    4  A    between atoms: C_11  and  O_12
REMARK    5  A    between atoms: O_12  and  C_13
REMARK    6  A    between atoms: C_13  and  C_15
REMARK    7  A    between atoms: C_18  and  N_19
REMARK    8  A    between atoms: N_25  and  C_26
REMARK                            x       y       z     vdW  Elec       q    Type
REMARK                         _______ _______ _______ _____ _____    ______ ____
ROOT
ATOM      1  C   UNL     1       5.468   4.723  19.025  0.00  0.00    +0.000 C 
ATOM      2  C   UNL     1       6.804   4.627  18.227  0.00  0.00    +0.000 C 
ATOM      3  C   UNL     1       7.837   5.712  18.648  0.00  0.00    +0.000 C 
ATOM      4  C   UNL     1       7.713   6.822  17.582  0.00  0.00    +0.000 C 
ATOM      5  C   UNL     1       6.386   6.486  16.895  0.00  0.00    +0.000 C 
ATOM      6  C   UNL     1       5.215   6.904  17.830  0.00  0.00    +0.000 C 
ATOM      7  C   UNL     1       4.465   5.669  18.334  0.00  0.00    +0.000 C 
ATOM      8  N   UNL     1       6.656   5.049  16.835  0.00  0.00    +0.000 NA
ATOM      9  C   UNL     1       5.940   4.193  15.922  0.00  0.00    +0.000 C 
ENDROOT
BRANCH   1  10
ATOM     10  C   UNL     1       4.823   3.364  19.186  0.00  0.00    +0.000 C 
ATOM     11  O   UNL     1       5.046   2.572  20.091  0.00  0.00    +0.000 OA
BRANCH  10  13
ATOM     12  C   UNL     1       3.342   1.845  18.169  0.00  0.00    +0.000 C 
ATOM     13  O   UNL     1       3.973   3.126  18.144  0.00  0.00    +0.000 OA
ENDBRANCH  10  13
ENDBRANCH   1  10
BRANCH   7  14
ATOM     14  O   UNL     1       3.258   5.944  19.079  0.00  0.00    +0.000 OA
BRANCH  14  15
ATOM     15  C   UNL     1       2.174   6.410  18.435  0.00  0.00    +0.000 C 
ATOM     16  O   UNL     1       1.477   5.779  17.653  0.00  0.00    +0.000 OA
BRANCH  15  17
ATOM     17  C   UNL     1       1.912   7.822  18.792  0.00  0.00    +0.000 A 
ATOM     18  C   UNL     1       2.003   8.885  17.892  0.00  0.00    +0.000 A 
ATOM     19  C   UNL     1       1.566  10.159  18.286  0.00  0.00    +0.000 A 
ATOM     20  C   UNL     1       1.027  10.399  19.567  0.00  0.00    +0.000 A 
ATOM     21  C   UNL     1       0.988   9.319  20.471  0.00  0.00    +0.000 A 
ATOM     22  I   UNL     1       0.148   9.389  22.400  0.00  0.00    +0.000 I 
ATOM     23  C   UNL     1       1.446   8.054  20.088  0.00  0.00    +0.000 A 
BRANCH  20  24
ATOM     24  N   UNL     1       0.438  11.667  19.754  0.00  0.00    +0.000 NA
ATOM     25  N   UNL     1       1.058  12.465  20.482  0.00  0.00    +0.000 NA
ATOM     26  N   UNL     1       1.587  13.221  21.152  0.00  0.00    +0.000 NA
ENDBRANCH  20  24
ENDBRANCH  15  17
ENDBRANCH  14  15
ENDBRANCH   7  14
TORSDOF 6
ENDMDL
MODEL 7
REMARK VINA RESULT:      -7.6      2.074      2.639
REMARK  Name = 
REMARK  8 active torsions:
REMARK  status: ('A' for Active; 'I' for Inactive)
REMARK    1  A    between atoms: C_1  and  O_2
REMARK    2  A    between atoms: O_2  and  C_3
REMARK    3  A    between atoms: C_3  and  C_5
REMARK    4  A    between atoms: C_11  and  O_12
REMARK    5  A    between atoms: O_12  and  C_13
REMARK    6  A    between atoms: C_13  and  C_15
REMARK    7  A    between atoms: C_18  and  N_19
REMARK    8  A    between atoms: N_25  and  C_26
REMARK                            x       y       z     vdW  Elec       q    Type
REMARK                         _______ _______ _______ _____ _____    ______ ____
ROOT
ATOM      1  C   UNL     1       4.146   5.202  19.073  0.00  0.00    +0.000 C 
ATOM      2  C   UNL     1       5.580   4.676  18.761  0.00  0.00    +0.000 C 
ATOM      3  C   UNL     1       6.694   5.682  19.170  0.00  0.00    +0.000 C 
ATOM      4  C   UNL     1       7.080   6.411  17.864  0.00  0.00    +0.000 C 
ATOM      5  C   UNL     1       5.917   6.067  16.928  0.00  0.00    +0.000 C 
ATOM      6  C   UNL     1       4.677   6.915  17.332  0.00  0.00    +0.000 C 
ATOM      7  C   UNL     1       3.574   6.017  17.895  0.00  0.00    +0.000 C 
ATOM      8  N   UNL     1       5.869   4.659  17.327  0.00  0.00    +0.000 NA
ATOM      9  C   UNL     1       5.224   3.671  16.500  0.00  0.00    +0.000 C 
ENDROOT
BRANCH   1  10
ATOM     10  C   UNL     1       3.197   4.065  19.385  0.00  0.00    +0.000 C 
ATOM     11  O   UNL     1       3.064   3.046  18.722  0.00  0.00    +0.000 OA
BRANCH  10  13
ATOM     12  C   UNL     1       2.208   3.239  21.354  0.00  0.00    +0.000 C 
ATOM     13  O   UNL     1       2.473   4.358  20.505  0.00  0.00    +0.000 OA
ENDBRANCH  10  13
ENDBRANCH   1  10
BRANCH   7  14
ATOM     14  O   UNL     1       2.314   6.676  18.151  0.00  0.00    +0.000 OA
BRANCH  14  15
ATOM     15  C   UNL     1       2.248   8.018  18.108  0.00  0.00    +0.000 C 
ATOM     16  O   UNL     1       2.659   8.729  17.202  0.00  0.00    +0.000 OA
BRANCH  15  17
ATOM     17  C   UNL     1       1.600   8.555  19.325  0.00  0.00    +0.000 A 
ATOM     18  C   UNL     1       1.583   7.896  20.556  0.00  0.00    +0.000 A 
ATOM     19  C   UNL     1       1.097   8.567  21.688  0.00  0.00    +0.000 A 
ATOM     20  C   UNL     1       0.629   9.896  21.624  0.00  0.00    +0.000 A 
ATOM     21  C   UNL     1       0.616  10.522  20.362  0.00  0.00    +0.000 A 
ATOM     22  I   UNL     1       0.061  12.522  20.012  0.00  0.00    +0.000 I 
ATOM     23  C   UNL     1       1.078   9.846  19.227  0.00  0.00    +0.000 A 
BRANCH  20  24
ATOM     24  N   UNL     1       0.368  10.512  22.865  0.00  0.00    +0.000 NA
ATOM     25  N   UNL     1      -0.809  10.856  23.078  0.00  0.00    +0.000 NA
ATOM     26  N   UNL     1      -1.873  11.198  23.307  0.00  0.00    +0.000 NA
ENDBRANCH  20  24
ENDBRANCH  15  17
ENDBRANCH  14  15
ENDBRANCH   7  14
TORSDOF 6
ENDMDL
MODEL 8
REMARK VINA RESULT:      -7.6      1.937      2.324
REMARK  Name = 
REMARK  8 active torsions:
REMARK  status: ('A' for Active; 'I' for Inactive)
REMARK    1  A    between atoms: C_1  and  O_2
REMARK    2  A    between atoms: O_2  and  C_3
REMARK    3  A    between atoms: C_3  and  C_5
REMARK    4  A    between atoms: C_11  and  O_12
REMARK    5  A    between atoms: O_12  and  C_13
REMARK    6  A    between atoms: C_13  and  C_15
REMARK    7  A    between atoms: C_18  and  N_19
REMARK    8  A    between atoms: N_25  and  C_26
REMARK                            x       y       z     vdW  Elec       q    Type
REMARK                         _______ _______ _______ _____ _____    ______ ____
ROOT
ATOM      1  C   UNL     1       4.627   5.029  18.897  0.00  0.00    +0.000 C 
ATOM      2  C   UNL     1       6.079   4.685  18.445  0.00  0.00    +0.000 C 
ATOM      3  C   UNL     1       7.135   5.687  18.993  0.00  0.00    +0.000 C 
ATOM      4  C   UNL     1       7.403   6.667  17.830  0.00  0.00    +0.000 C 
ATOM      5  C   UNL     1       6.225   6.404  16.887  0.00  0.00    +0.000 C 
ATOM      6  C   UNL     1       4.947   7.064  17.480  0.00  0.00    +0.000 C 
ATOM      7  C   UNL     1       3.941   5.993  17.907  0.00  0.00    +0.000 C 
ATOM      8  N   UNL     1       6.299   4.949  17.023  0.00  0.00    +0.000 NA
ATOM      9  C   UNL     1       5.689   4.076  16.052  0.00  0.00    +0.000 C 
ENDROOT
BRANCH   1  10
ATOM     10  C   UNL     1       3.780   3.782  19.028  0.00  0.00    +0.000 C 
ATOM     11  O   UNL     1       3.763   3.030  19.992  0.00  0.00    +0.000 OA
BRANCH  10  13
ATOM     12  C   UNL     1       2.461   2.296  17.766  0.00  0.00    +0.000 C 
ATOM     13  O   UNL     1       3.056   3.590  17.886  0.00  0.00    +0.000 OA
ENDBRANCH  10  13
ENDBRANCH   1  10
BRANCH   7  14
ATOM     14  O   UNL     1       2.650   6.492  18.322  0.00  0.00    +0.000 OA
BRANCH  14  15
ATOM     15  C   UNL     1       2.347   7.787  18.125  0.00  0.00    +0.000 C 
ATOM     16  O   UNL     1       2.565   8.429  17.108  0.00  0.00    +0.000 OA
BRANCH  15  17
ATOM     17  C   UNL     1       1.697   8.365  19.322  0.00  0.00    +0.000 A 
ATOM     18  C   UNL     1       1.615   7.717  20.556  0.00  0.00    +0.000 A 
ATOM     19  C   UNL     1       1.136   8.421  21.672  0.00  0.00    +0.000 A 
ATOM     20  C   UNL     1       0.738   9.772  21.587  0.00  0.00    +0.000 A 
ATOM     21  C   UNL     1       0.788  10.388  20.321  0.00  0.00    +0.000 A 
ATOM     22  I   UNL     1       0.345  12.411  19.945  0.00  0.00    +0.000 I 
ATOM     23  C   UNL     1       1.244   9.680  19.203  0.00  0.00    +0.000 A 
BRANCH  20  24
ATOM     24  N   UNL     1       0.479  10.410  22.818  0.00  0.00    +0.000 NA
ATOM     25  N   UNL     1      -0.698  10.763  23.022  0.00  0.00    +0.000 NA
ATOM     26  N   UNL     1      -1.760  11.113  23.244  0.00  0.00    +0.000 NA
ENDBRANCH  20  24
ENDBRANCH  15  17
ENDBRANCH  14  15
ENDBRANCH   7  14
TORSDOF 6
ENDMDL
MODEL 9
REMARK VINA RESULT:      -7.5      0.945      1.242
REMARK  Name = 
REMARK  8 active torsions:
REMARK  status: ('A' for Active; 'I' for Inactive)
REMARK    1  A    between atoms: C_1  and  O_2
REMARK    2  A    between atoms: O_2  and  C_3
REMARK    3  A    between atoms: C_3  and  C_5
REMARK    4  A    between atoms: C_11  and  O_12
REMARK    5  A    between atoms: O_12  and  C_13
REMARK    6  A    between atoms: C_13  and  C_15
REMARK    7  A    between atoms: C_18  and  N_19
REMARK    8  A    between atoms: N_25  and  C_26
REMARK                            x       y       z     vdW  Elec       q    Type
REMARK                         _______ _______ _______ _____ _____    ______ ____
ROOT
ATOM      1  C   UNL     1       5.398   4.300  18.775  0.00  0.00    +0.000 C 
ATOM      2  C   UNL     1       6.378   4.185  17.568  0.00  0.00    +0.000 C 
ATOM      3  C   UNL     1       7.712   4.952  17.797  0.00  0.00    +0.000 C 
ATOM      4  C   UNL     1       7.540   6.292  17.051  0.00  0.00    +0.000 C 
ATOM      5  C   UNL     1       6.029   6.354  16.808  0.00  0.00    +0.000 C 
ATOM      6  C   UNL     1       5.318   6.718  18.143  0.00  0.00    +0.000 C 
ATOM      7  C   UNL     1       4.485   5.536  18.645  0.00  0.00    +0.000 C 
ATOM      8  N   UNL     1       5.926   4.950  16.406  0.00  0.00    +0.000 NA
ATOM      9  C   UNL     1       4.794   4.471  15.655  0.00  0.00    +0.000 C 
ENDROOT
BRANCH   1  10
ATOM     10  C   UNL     1       4.532   3.067  18.903  0.00  0.00    +0.000 C 
ATOM     11  O   UNL     1       3.758   2.649  18.054  0.00  0.00    +0.000 OA
BRANCH  10  13
ATOM     12  C   UNL     1       3.531   2.433  20.936  0.00  0.00    +0.000 C 
ATOM     13  O   UNL     1       4.710   2.499  20.132  0.00  0.00    +0.000 OA
ENDBRANCH  10  13
ENDBRANCH   1  10
BRANCH   7  14
ATOM     14  O   UNL     1       3.651   5.815  19.792  0.00  0.00    +0.000 OA
BRANCH  14  15
ATOM     15  C   UNL     1       2.324   5.954  19.628  0.00  0.00    +0.000 C 
ATOM     16  O   UNL     1       1.517   5.045  19.503  0.00  0.00    +0.000 OA
BRANCH  15  17
ATOM     17  C   UNL     1       1.940   7.383  19.615  0.00  0.00    +0.000 A 
ATOM     18  C   UNL     1       2.003   8.199  18.483  0.00  0.00    +0.000 A 
ATOM     19  C   UNL     1       1.452   9.488  18.534  0.00  0.00    +0.000 A 
ATOM     20  C   UNL     1       0.825   9.986  19.695  0.00  0.00    +0.000 A 
ATOM     21  C   UNL     1       0.815   9.160  20.836  0.00  0.00    +0.000 A 
ATOM     22  I   UNL     1      -0.135   9.626  22.655  0.00  0.00    +0.000 I 
ATOM     23  C   UNL     1       1.386   7.883  20.795  0.00  0.00    +0.000 A 
BRANCH  20  24
ATOM     24  N   UNL     1       0.136  11.207  19.540  0.00  0.00    +0.000 NA
ATOM     25  N   UNL     1      -1.022  11.136  19.088  0.00  0.00    +0.000 NA
ATOM     26  N   UNL     1      -2.082  11.117  18.666  0.00  0.00    +0.000 NA
ENDBRANCH  20  24
ENDBRANCH  15  17
ENDBRANCH  14  15
ENDBRANCH   7  14
TORSDOF 6
ENDMDL
