MODEL 1
REMARK VINA RESULT:      -8.5      0.000      0.000
REMARK  Name = 
REMARK  15 active torsions:
REMARK  status: ('A' for Active; 'I' for Inactive)
REMARK    1  A    between atoms: N_1  and  C_2
REMARK    2  A    between atoms: C_2  and  C_3
REMARK    3  A    between atoms: C_3  and  C_4
REMARK    4  A    between atoms: C_4  and  C_5
REMARK    5  A    between atoms: C_5  and  C_6
REMARK    6  A    between atoms: C_6  and  N_7
REMARK    7  A    between atoms: N_7  and  C_8
REMARK    8  A    between atoms: C_8  and  C_9
REMARK    9  A    between atoms: C_15  and  C_17
REMARK   10  A    between atoms: C_17  and  C_18
REMARK   11  A    between atoms: C_18  and  C_19
REMARK   12  A    between atoms: C_19  and  C_20
REMARK   13  A    between atoms: C_21  and  C_22
REMARK   14  A    between atoms: C_22  and  C_23
REMARK   15  A    between atoms: C_26  and  O_27
REMARK                            x       y       z     vdW  Elec       q    Type
REMARK                         _______ _______ _______ _____ _____    ______ ____
ROOT
ATOM      1  C   UNL     1       2.779   8.367  18.166  0.00  0.00    +0.000 C 
ENDROOT
BRANCH   1   2
ATOM      2  C   UNL     1       1.313   8.445  18.633  0.00  0.00    +0.000 C 
BRANCH   2   4
ATOM      3  N   UNL     1       0.494  10.381  20.077  0.00  0.00    +0.000 N 
ATOM      4  C   UNL     1       1.117   9.117  20.032  0.00  0.00    +0.000 C 
ATOM      5  O   UNL     1       1.490   8.552  21.066  0.00  0.00    +0.000 OA
BRANCH   3   6
ATOM      6  C   UNL     1       0.451  11.143  21.365  0.00  0.00    +0.000 C 
BRANCH   6   7
ATOM      7  C   UNL     1      -0.835  10.989  22.192  0.00  0.00    +0.000 C 
BRANCH   7   8
ATOM      8  C   UNL     1      -1.606  12.305  22.502  0.00  0.00    +0.000 C 
BRANCH   8   9
ATOM      9  C   UNL     1      -2.948  12.117  23.227  0.00  0.00    +0.000 C 
BRANCH   9  10
ATOM     10  C   UNL     1      -3.291  13.291  24.160  0.00  0.00    +0.000 C 
BRANCH  10  11
ATOM     11  N   UNL     1      -4.707  13.254  24.522  0.00  0.00    +0.000 NA
ATOM     12  H   UNL     1      -4.884  12.458  25.138  0.00  0.00    +0.000 HD
ATOM     13  H   UNL     1      -5.275  13.099  23.690  0.00  0.00    +0.000 HD
ENDBRANCH  10  11
ENDBRANCH   9  10
ENDBRANCH   8   9
ENDBRANCH   7   8
ENDBRANCH   6   7
ENDBRANCH   3   6
BRANCH   3  14
ATOM     14  C   UNL     1       0.113  11.103  18.864  0.00  0.00    +0.000 C 
BRANCH  14  15
ATOM     15  C   UNL     1      -1.304  10.930  18.349  0.00  0.00    +0.000 A 
ATOM     16  C   UNL     1      -1.691   9.971  17.408  0.00  0.00    +0.000 A 
ATOM     17  C   UNL     1      -3.035   9.818  17.048  0.00  0.00    +0.000 A 
ATOM     18  C   UNL     1      -4.007  10.659  17.595  0.00  0.00    +0.000 A 
ATOM     19  C   UNL     1      -3.633  11.652  18.494  0.00  0.00    +0.000 A 
ATOM     20  C   UNL     1      -2.288  11.789  18.855  0.00  0.00    +0.000 A 
ENDBRANCH  14  15
ENDBRANCH   3  14
ENDBRANCH   2   4
ENDBRANCH   1   2
BRANCH   1  21
ATOM     21  C   UNL     1       3.293   6.996  17.664  0.00  0.00    +0.000 C 
BRANCH  21  22
ATOM     22  C   UNL     1       2.599   5.696  18.034  0.00  0.00    +0.000 A 
ATOM     23  C   UNL     1       2.925   4.509  17.333  0.00  0.00    +0.000 A 
ATOM     24  N   UNL     1       1.687   3.899  17.469  0.00  0.00    +0.000 N 
ATOM     25  C   UNL     1       1.491   3.864  18.826  0.00  0.00    +0.000 A 
ATOM     26  C   UNL     1       0.911   2.892  19.645  0.00  0.00    +0.000 A 
ATOM     27  C   UNL     1       1.264   2.955  20.990  0.00  0.00    +0.000 A 
ATOM     28  C   UNL     1       2.068   3.995  21.470  0.00  0.00    +0.000 A 
ATOM     29  C   UNL     1       2.487   5.065  20.641  0.00  0.00    +0.000 A 
ATOM     30  C   UNL     1       2.198   5.006  19.263  0.00  0.00    +0.000 A 
ATOM     31  H   UNL     1       1.063   3.578  16.738  0.00  0.00    +0.000 HD
BRANCH  23  32
ATOM     32  C   UNL     1       4.220   3.736  17.672  0.00  0.00    +0.000 C 
BRANCH  32  33
ATOM     33  C   UNL     1       5.450   4.546  17.931  0.00  0.00    +0.000 A 
ATOM     34  C   UNL     1       6.087   5.221  16.876  0.00  0.00    +0.000 A 
ATOM     35  C   UNL     1       7.122   6.116  17.135  0.00  0.00    +0.000 A 
ATOM     36  C   UNL     1       7.522   6.327  18.449  0.00  0.00    +0.000 A 
ATOM     37  C   UNL     1       6.914   5.649  19.502  0.00  0.00    +0.000 A 
ATOM     38  C   UNL     1       5.877   4.759  19.243  0.00  0.00    +0.000 A 
BRANCH  36  39
ATOM     39  O   UNL     1       8.509   7.217  18.754  0.00  0.00    +0.000 OA
ATOM     40  H   UNL     1       9.153   7.220  18.027  0.00  0.00    +0.000 HD
ENDBRANCH  36  39
ENDBRANCH  32  33
ENDBRANCH  23  32
ENDBRANCH  21  22
ENDBRANCH   1  21
TORSDOF 15
ENDMDL
MODEL 2
REMARK VINA RESULT:      -8.4      2.404      3.164
REMARK  Name = 
REMARK  15 active torsions:
REMARK  status: ('A' for Active; 'I' for Inactive)
REMARK    1  A    between atoms: N_1  and  C_2
REMARK    2  A    between atoms: C_2  and  C_3
REMARK    3  A    between atoms: C_3  and  C_4
REMARK    4  A    between atoms: C_4  and  C_5
REMARK    5  A    between atoms: C_5  and  C_6
REMARK    6  A    between atoms: C_6  and  N_7
REMARK    7  A    between atoms: N_7  and  C_8
REMARK    8  A    between atoms: C_8  and  C_9
REMARK    9  A    between atoms: C_15  and  C_17
REMARK   10  A    between atoms: C_17  and  C_18
REMARK   11  A    between atoms: C_18  and  C_19
REMARK   12  A    between atoms: C_19  and  C_20
REMARK   13  A    between atoms: C_21  and  C_22
REMARK   14  A    between atoms: C_22  and  C_23
REMARK   15  A    between atoms: C_26  and  O_27
REMARK                            x       y       z     vdW  Elec       q    Type
REMARK                         _______ _______ _______ _____ _____    ______ ____
ROOT
ATOM      1  C   UNL     1       2.136   8.290  18.805  0.00  0.00    +0.000 C 
ENDROOT
BRANCH   1   2
ATOM      2  C   UNL     1       1.362   9.309  17.946  0.00  0.00    +0.000 C 
BRANCH   2   4
ATOM      3  N   UNL     1       0.038  11.126  19.149  0.00  0.00    +0.000 N 
ATOM      4  C   UNL     1       1.265  10.738  18.573  0.00  0.00    +0.000 C 
ATOM      5  O   UNL     1       2.238  11.501  18.571  0.00  0.00    +0.000 OA
BRANCH   3   6
ATOM      6  C   UNL     1      -0.159  12.542  19.594  0.00  0.00    +0.000 C 
BRANCH   6   7
ATOM      7  C   UNL     1      -0.252  13.590  18.475  0.00  0.00    +0.000 C 
BRANCH   7   8
ATOM      8  C   UNL     1       0.025  15.063  18.897  0.00  0.00    +0.000 C 
BRANCH   8   9
ATOM      9  C   UNL     1       1.471  15.539  18.688  0.00  0.00    +0.000 C 
BRANCH   9  10
ATOM     10  C   UNL     1       2.350  15.339  19.934  0.00  0.00    +0.000 C 
BRANCH  10  11
ATOM     11  N   UNL     1       3.108  14.093  19.826  0.00  0.00    +0.000 NA
ATOM     12  H   UNL     1       2.983  13.541  20.675  0.00  0.00    +0.000 HD
ATOM     13  H   UNL     1       4.105  14.297  19.765  0.00  0.00    +0.000 HD
ENDBRANCH  10  11
ENDBRANCH   9  10
ENDBRANCH   8   9
ENDBRANCH   7   8
ENDBRANCH   6   7
ENDBRANCH   3   6
BRANCH   3  14
ATOM     14  C   UNL     1      -1.148  10.274  19.097  0.00  0.00    +0.000 C 
BRANCH  14  15
ATOM     15  C   UNL     1      -2.099  10.448  17.926  0.00  0.00    +0.000 A 
ATOM     16  C   UNL     1      -1.943   9.827  16.683  0.00  0.00    +0.000 A 
ATOM     17  C   UNL     1      -2.911   9.969  15.681  0.00  0.00    +0.000 A 
ATOM     18  C   UNL     1      -4.029  10.775  15.899  0.00  0.00    +0.000 A 
ATOM     19  C   UNL     1      -4.176  11.442  17.110  0.00  0.00    +0.000 A 
ATOM     20  C   UNL     1      -3.208  11.284  18.109  0.00  0.00    +0.000 A 
ENDBRANCH  14  15
ENDBRANCH   3  14
ENDBRANCH   2   4
ENDBRANCH   1   2
BRANCH   1  21
ATOM     21  C   UNL     1       2.664   7.018  18.098  0.00  0.00    +0.000 C 
BRANCH  21  22
ATOM     22  C   UNL     1       2.131   5.636  18.434  0.00  0.00    +0.000 A 
ATOM     23  C   UNL     1       2.457   4.542  17.596  0.00  0.00    +0.000 A 
ATOM     24  N   UNL     1       1.300   3.813  17.829  0.00  0.00    +0.000 N 
ATOM     25  C   UNL     1       1.287   3.655  19.192  0.00  0.00    +0.000 A 
ATOM     26  C   UNL     1       0.899   2.574  19.987  0.00  0.00    +0.000 A 
ATOM     27  C   UNL     1       1.419   2.564  21.279  0.00  0.00    +0.000 A 
ATOM     28  C   UNL     1       2.192   3.634  21.745  0.00  0.00    +0.000 A 
ATOM     29  C   UNL     1       2.411   4.798  20.969  0.00  0.00    +0.000 A 
ATOM     30  C   UNL     1       1.950   4.819  19.637  0.00  0.00    +0.000 A 
ATOM     31  H   UNL     1       0.614   3.493  17.156  0.00  0.00    +0.000 HD
BRANCH  23  32
ATOM     32  C   UNL     1       3.843   3.866  17.703  0.00  0.00    +0.000 C 
BRANCH  32  33
ATOM     33  C   UNL     1       4.931   4.399  16.827  0.00  0.00    +0.000 A 
ATOM     34  C   UNL     1       6.194   4.697  17.369  0.00  0.00    +0.000 A 
ATOM     35  C   UNL     1       7.260   5.023  16.534  0.00  0.00    +0.000 A 
ATOM     36  C   UNL     1       7.058   5.056  15.159  0.00  0.00    +0.000 A 
ATOM     37  C   UNL     1       5.808   4.783  14.611  0.00  0.00    +0.000 A 
ATOM     38  C   UNL     1       4.745   4.453  15.445  0.00  0.00    +0.000 A 
BRANCH  36  39
ATOM     39  O   UNL     1       8.079   5.338  14.301  0.00  0.00    +0.000 OA
ATOM     40  H   UNL     1       7.939   4.834  13.483  0.00  0.00    +0.000 HD
ENDBRANCH  36  39
ENDBRANCH  32  33
ENDBRANCH  23  32
ENDBRANCH  21  22
ENDBRANCH   1  21
TORSDOF 15
ENDMDL
MODEL 3
REMARK VINA RESULT:      -8.4      1.220      1.628
REMARK  Name = 
REMARK  15 active torsions:
REMARK  status: ('A' for Active; 'I' for Inactive)
REMARK    1  A    between atoms: N_1  and  C_2
REMARK    2  A    between atoms: C_2  and  C_3
REMARK    3  A    between atoms: C_3  and  C_4
REMARK    4  A    between atoms: C_4  and  C_5
REMARK    5  A    between atoms: C_5  and  C_6
REMARK    6  A    between atoms: C_6  and  N_7
REMARK    7  A    between atoms: N_7  and  C_8
REMARK    8  A    between atoms: C_8  and  C_9
REMARK    9  A    between atoms: C_15  and  C_17
REMARK   10  A    between atoms: C_17  and  C_18
REMARK   11  A    between atoms: C_18  and  C_19
REMARK   12  A    between atoms: C_19  and  C_20
REMARK   13  A    between atoms: C_21  and  C_22
REMARK   14  A    between atoms: C_22  and  C_23
REMARK   15  A    between atoms: C_26  and  O_27
REMARK                            x       y       z     vdW  Elec       q    Type
REMARK                         _______ _______ _______ _____ _____    ______ ____
ROOT
ATOM      1  C   UNL     1       2.739   7.633  18.161  0.00  0.00    +0.000 C 
ENDROOT
BRANCH   1   2
ATOM      2  C   UNL     1       1.688   8.748  18.317  0.00  0.00    +0.000 C 
BRANCH   2   4
ATOM      3  N   UNL     1       0.569  10.265  20.035  0.00  0.00    +0.000 N 
ATOM      4  C   UNL     1       1.358   9.120  19.800  0.00  0.00    +0.000 C 
ATOM      5  O   UNL     1       1.771   8.427  20.736  0.00  0.00    +0.000 OA
BRANCH   3   6
ATOM      6  C   UNL     1       0.382  10.764  21.434  0.00  0.00    +0.000 C 
BRANCH   6   7
ATOM      7  C   UNL     1      -0.835  10.207  22.188  0.00  0.00    +0.000 C 
BRANCH   7   8
ATOM      8  C   UNL     1      -1.495  11.168  23.219  0.00  0.00    +0.000 C 
BRANCH   8   9
ATOM      9  C   UNL     1      -2.373  12.272  22.612  0.00  0.00    +0.000 C 
BRANCH   9  10
ATOM     10  C   UNL     1      -3.546  12.672  23.523  0.00  0.00    +0.000 C 
BRANCH  10  11
ATOM     11  N   UNL     1      -4.820  12.413  22.853  0.00  0.00    +0.000 NA
ATOM     12  H   UNL     1      -5.173  13.277  22.440  0.00  0.00    +0.000 HD
ATOM     13  H   UNL     1      -5.519  12.121  23.536  0.00  0.00    +0.000 HD
ENDBRANCH  10  11
ENDBRANCH   9  10
ENDBRANCH   8   9
ENDBRANCH   7   8
ENDBRANCH   6   7
ENDBRANCH   3   6
BRANCH   3  14
ATOM     14  C   UNL     1       0.133  11.143  18.951  0.00  0.00    +0.000 C 
BRANCH  14  15
ATOM     15  C   UNL     1      -1.277  10.968  18.417  0.00  0.00    +0.000 A 
ATOM     16  C   UNL     1      -1.644  10.027  17.450  0.00  0.00    +0.000 A 
ATOM     17  C   UNL     1      -2.982   9.868  17.072  0.00  0.00    +0.000 A 
ATOM     18  C   UNL     1      -3.968  10.685  17.628  0.00  0.00    +0.000 A 
ATOM     19  C   UNL     1      -3.616  11.661  18.553  0.00  0.00    +0.000 A 
ATOM     20  C   UNL     1      -2.276  11.803  18.933  0.00  0.00    +0.000 A 
ENDBRANCH  14  15
ENDBRANCH   3  14
ENDBRANCH   2   4
ENDBRANCH   1   2
BRANCH   1  21
ATOM     21  C   UNL     1       2.321   6.365  17.378  0.00  0.00    +0.000 C 
BRANCH  21  22
ATOM     22  C   UNL     1       1.960   5.070  18.085  0.00  0.00    +0.000 A 
ATOM     23  C   UNL     1       2.355   3.834  17.519  0.00  0.00    +0.000 A 
ATOM     24  N   UNL     1       1.299   3.085  18.016  0.00  0.00    +0.000 N 
ATOM     25  C   UNL     1       1.377   3.276  19.372  0.00  0.00    +0.000 A 
ATOM     26  C   UNL     1       1.151   2.401  20.437  0.00  0.00    +0.000 A 
ATOM     27  C   UNL     1       1.738   2.765  21.646  0.00  0.00    +0.000 A 
ATOM     28  C   UNL     1       2.416   3.983  21.772  0.00  0.00    +0.000 A 
ATOM     29  C   UNL     1       2.466   4.928  20.718  0.00  0.00    +0.000 A 
ATOM     30  C   UNL     1       1.934   4.571  19.463  0.00  0.00    +0.000 A 
ATOM     31  H   UNL     1       0.616   2.545  17.499  0.00  0.00    +0.000 HD
BRANCH  23  32
ATOM     32  C   UNL     1       3.811   3.335  17.679  0.00  0.00    +0.000 C 
BRANCH  32  33
ATOM     33  C   UNL     1       4.861   4.025  16.868  0.00  0.00    +0.000 A 
ATOM     34  C   UNL     1       6.061   4.440  17.471  0.00  0.00    +0.000 A 
ATOM     35  C   UNL     1       7.111   4.920  16.692  0.00  0.00    +0.000 A 
ATOM     36  C   UNL     1       6.955   4.990  15.313  0.00  0.00    +0.000 A 
ATOM     37  C   UNL     1       5.764   4.604  14.705  0.00  0.00    +0.000 A 
ATOM     38  C   UNL     1       4.717   4.119  15.483  0.00  0.00    +0.000 A 
BRANCH  36  39
ATOM     39  O   UNL     1       7.966   5.424  14.508  0.00  0.00    +0.000 OA
ATOM     40  H   UNL     1       8.776   5.481  15.039  0.00  0.00    +0.000 HD
ENDBRANCH  36  39
ENDBRANCH  32  33
ENDBRANCH  23  32
ENDBRANCH  21  22
ENDBRANCH   1  21
TORSDOF 15
ENDMDL
MODEL 4
REMARK VINA RESULT:      -8.3      1.418      1.870
REMARK  Name = 
REMARK  15 active torsions:
REMARK  status: ('A' for Active; 'I' for Inactive)
REMARK    1  A    between atoms: N_1  and  C_2
REMARK    2  A    between atoms: C_2  and  C_3
REMARK    3  A    between atoms: C_3  and  C_4
REMARK    4  A    between atoms: C_4  and  C_5
REMARK    5  A    between atoms: C_5  and  C_6
REMARK    6  A    between atoms: C_6  and  N_7
REMARK    7  A    between atoms: N_7  and  C_8
REMARK    8  A    between atoms: C_8  and  C_9
REMARK    9  A    between atoms: C_15  and  C_17
REMARK   10  A    between atoms: C_17  and  C_18
REMARK   11  A    between atoms: C_18  and  C_19
REMARK   12  A    between atoms: C_19  and  C_20
REMARK   13  A    between atoms: C_21  and  C_22
REMARK   14  A    between atoms: C_22  and  C_23
REMARK   15  A    between atoms: C_26  and  O_27
REMARK                            x       y       z     vdW  Elec       q    Type
REMARK                         _______ _______ _______ _____ _____    ______ ____
ROOT
ATOM      1  C   UNL     1       2.083   8.476  17.808  0.00  0.00    +0.000 C 
ENDROOT
BRANCH   1   2
ATOM      2  C   UNL     1       1.465   9.250  18.988  0.00  0.00    +0.000 C 
BRANCH   2   4
ATOM      3  N   UNL     1       0.073  11.382  18.842  0.00  0.00    +0.000 N 
ATOM      4  C   UNL     1       1.351  10.793  18.758  0.00  0.00    +0.000 C 
ATOM      5  O   UNL     1       2.354  11.475  18.518  0.00  0.00    +0.000 OA
BRANCH   3   6
ATOM      6  C   UNL     1      -0.112  12.815  18.450  0.00  0.00    +0.000 C 
BRANCH   6   7
ATOM      7  C   UNL     1      -0.068  13.835  19.598  0.00  0.00    +0.000 C 
BRANCH   7   8
ATOM      8  C   UNL     1      -1.120  13.636  20.727  0.00  0.00    +0.000 C 
BRANCH   8   9
ATOM      9  C   UNL     1      -0.576  13.013  22.022  0.00  0.00    +0.000 C 
BRANCH   9  10
ATOM     10  C   UNL     1      -1.318  13.502  23.277  0.00  0.00    +0.000 C 
BRANCH  10  11
ATOM     11  N   UNL     1      -0.730  14.750  23.761  0.00  0.00    +0.000 NA
ATOM     12  H   UNL     1       0.240  14.589  24.035  0.00  0.00    +0.000 HD
ATOM     13  H   UNL     1      -1.214  15.059  24.603  0.00  0.00    +0.000 HD
ENDBRANCH  10  11
ENDBRANCH   9  10
ENDBRANCH   8   9
ENDBRANCH   7   8
ENDBRANCH   6   7
ENDBRANCH   3   6
BRANCH   3  14
ATOM     14  C   UNL     1      -1.136  10.587  19.049  0.00  0.00    +0.000 C 
BRANCH  14  15
ATOM     15  C   UNL     1      -2.206  10.624  17.973  0.00  0.00    +0.000 A 
ATOM     16  C   UNL     1      -3.404  11.337  18.075  0.00  0.00    +0.000 A 
ATOM     17  C   UNL     1      -4.302  11.392  17.003  0.00  0.00    +0.000 A 
ATOM     18  C   UNL     1      -4.029  10.693  15.825  0.00  0.00    +0.000 A 
ATOM     19  C   UNL     1      -2.866   9.938  15.724  0.00  0.00    +0.000 A 
ATOM     20  C   UNL     1      -1.970   9.899  16.798  0.00  0.00    +0.000 A 
ENDBRANCH  14  15
ENDBRANCH   3  14
ENDBRANCH   2   4
ENDBRANCH   1   2
BRANCH   1  21
ATOM     21  C   UNL     1       2.935   7.228  18.144  0.00  0.00    +0.000 C 
BRANCH  21  22
ATOM     22  C   UNL     1       2.302   5.868  18.385  0.00  0.00    +0.000 A 
ATOM     23  C   UNL     1       2.575   4.805  17.490  0.00  0.00    +0.000 A 
ATOM     24  N   UNL     1       1.367   4.144  17.654  0.00  0.00    +0.000 N 
ATOM     25  C   UNL     1       1.309   3.908  19.004  0.00  0.00    +0.000 A 
ATOM     26  C   UNL     1       0.829   2.811  19.724  0.00  0.00    +0.000 A 
ATOM     27  C   UNL     1       1.315   2.690  21.023  0.00  0.00    +0.000 A 
ATOM     28  C   UNL     1       2.146   3.675  21.570  0.00  0.00    +0.000 A 
ATOM     29  C   UNL     1       2.462   4.865  20.870  0.00  0.00    +0.000 A 
ATOM     30  C   UNL     1       2.037   4.996  19.533  0.00  0.00    +0.000 A 
ATOM     31  H   UNL     1       0.678   3.913  16.948  0.00  0.00    +0.000 HD
BRANCH  23  32
ATOM     32  C   UNL     1       3.911   4.031  17.585  0.00  0.00    +0.000 C 
BRANCH  32  33
ATOM     33  C   UNL     1       5.158   4.840  17.744  0.00  0.00    +0.000 A 
ATOM     34  C   UNL     1       5.580   5.698  16.714  0.00  0.00    +0.000 A 
ATOM     35  C   UNL     1       6.635   6.583  16.922  0.00  0.00    +0.000 A 
ATOM     36  C   UNL     1       7.270   6.601  18.158  0.00  0.00    +0.000 A 
ATOM     37  C   UNL     1       6.877   5.741  19.179  0.00  0.00    +0.000 A 
ATOM     38  C   UNL     1       5.819   4.862  18.973  0.00  0.00    +0.000 A 
BRANCH  36  39
ATOM     39  O   UNL     1       8.287   7.471  18.419  0.00  0.00    +0.000 OA
ATOM     40  H   UNL     1       8.037   8.013  19.184  0.00  0.00    +0.000 HD
ENDBRANCH  36  39
ENDBRANCH  32  33
ENDBRANCH  23  32
ENDBRANCH  21  22
ENDBRANCH   1  21
TORSDOF 15
ENDMDL
MODEL 5
REMARK VINA RESULT:      -8.3      2.149      2.912
REMARK  Name = 
REMARK  15 active torsions:
REMARK  status: ('A' for Active; 'I' for Inactive)
REMARK    1  A    between atoms: N_1  and  C_2
REMARK    2  A    between atoms: C_2  and  C_3
REMARK    3  A    between atoms: C_3  and  C_4
REMARK    4  A    between atoms: C_4  and  C_5
REMARK    5  A    between atoms: C_5  and  C_6
REMARK    6  A    between atoms: C_6  and  N_7
REMARK    7  A    between atoms: N_7  and  C_8
REMARK    8  A    between atoms: C_8  and  C_9
REMARK    9  A    between atoms: C_15  and  C_17
REMARK   10  A    between atoms: C_17  and  C_18
REMARK   11  A    between atoms: C_18  and  C_19
REMARK   12  A    between atoms: C_19  and  C_20
REMARK   13  A    between atoms: C_21  and  C_22
REMARK   14  A    between atoms: C_22  and  C_23
REMARK   15  A    between atoms: C_26  and  O_27
REMARK                            x       y       z     vdW  Elec       q    Type
REMARK                         _______ _______ _______ _____ _____    ______ ____
ROOT
ATOM      1  C   UNL     1       1.931   8.449  18.885  0.00  0.00    +0.000 C 
ENDROOT
BRANCH   1   2
ATOM      2  C   UNL     1       1.422   9.541  17.925  0.00  0.00    +0.000 C 
BRANCH   2   4
ATOM      3  N   UNL     1       0.057  11.290  19.185  0.00  0.00    +0.000 N 
ATOM      4  C   UNL     1       1.285  10.958  18.575  0.00  0.00    +0.000 C 
ATOM      5  O   UNL     1       2.227  11.757  18.561  0.00  0.00    +0.000 OA
BRANCH   3   6
ATOM      6  C   UNL     1      -0.183  12.691  19.655  0.00  0.00    +0.000 C 
BRANCH   6   7
ATOM      7  C   UNL     1      -0.383  13.743  18.553  0.00  0.00    +0.000 C 
BRANCH   7   8
ATOM      8  C   UNL     1       0.123  15.177  18.882  0.00  0.00    +0.000 C 
BRANCH   8   9
ATOM      9  C   UNL     1       1.640  15.380  18.747  0.00  0.00    +0.000 C 
BRANCH   9  10
ATOM     10  C   UNL     1       2.376  15.292  20.095  0.00  0.00    +0.000 C 
BRANCH  10  11
ATOM     11  N   UNL     1       3.282  14.145  20.104  0.00  0.00    +0.000 NA
ATOM     12  H   UNL     1       4.052  14.320  20.751  0.00  0.00    +0.000 HD
ATOM     13  H   UNL     1       3.707  14.029  19.185  0.00  0.00    +0.000 HD
ENDBRANCH  10  11
ENDBRANCH   9  10
ENDBRANCH   8   9
ENDBRANCH   7   8
ENDBRANCH   6   7
ENDBRANCH   3   6
BRANCH   3  14
ATOM     14  C   UNL     1      -1.096  10.393  19.148  0.00  0.00    +0.000 C 
BRANCH  14  15
ATOM     15  C   UNL     1      -2.080  10.545  18.002  0.00  0.00    +0.000 A 
ATOM     16  C   UNL     1      -1.938   9.934  16.753  0.00  0.00    +0.000 A 
ATOM     17  C   UNL     1      -2.934  10.053  15.776  0.00  0.00    +0.000 A 
ATOM     18  C   UNL     1      -4.069  10.827  16.025  0.00  0.00    +0.000 A 
ATOM     19  C   UNL     1      -4.203  11.485  17.243  0.00  0.00    +0.000 A 
ATOM     20  C   UNL     1      -3.207  11.349  18.217  0.00  0.00    +0.000 A 
ENDBRANCH  14  15
ENDBRANCH   3  14
ENDBRANCH   2   4
ENDBRANCH   1   2
BRANCH   1  21
ATOM     21  C   UNL     1       2.646   7.228  18.258  0.00  0.00    +0.000 C 
BRANCH  21  22
ATOM     22  C   UNL     1       2.145   5.810  18.472  0.00  0.00    +0.000 A 
ATOM     23  C   UNL     1       2.526   4.793  17.563  0.00  0.00    +0.000 A 
ATOM     24  N   UNL     1       1.385   4.017  17.705  0.00  0.00    +0.000 N 
ATOM     25  C   UNL     1       1.338   3.754  19.050  0.00  0.00    +0.000 A 
ATOM     26  C   UNL     1       0.960   2.605  19.748  0.00  0.00    +0.000 A 
ATOM     27  C   UNL     1       1.443   2.509  21.051  0.00  0.00    +0.000 A 
ATOM     28  C   UNL     1       2.171   3.560  21.621  0.00  0.00    +0.000 A 
ATOM     29  C   UNL     1       2.378   4.786  20.943  0.00  0.00    +0.000 A 
ATOM     30  C   UNL     1       1.954   4.898  19.603  0.00  0.00    +0.000 A 
ATOM     31  H   UNL     1       0.728   3.732  16.989  0.00  0.00    +0.000 HD
BRANCH  23  32
ATOM     32  C   UNL     1       3.928   4.148  17.660  0.00  0.00    +0.000 C 
BRANCH  32  33
ATOM     33  C   UNL     1       5.070   5.049  18.004  0.00  0.00    +0.000 A 
ATOM     34  C   UNL     1       5.732   4.914  19.236  0.00  0.00    +0.000 A 
ATOM     35  C   UNL     1       6.903   5.625  19.489  0.00  0.00    +0.000 A 
ATOM     36  C   UNL     1       7.404   6.475  18.511  0.00  0.00    +0.000 A 
ATOM     37  C   UNL     1       6.747   6.635  17.295  0.00  0.00    +0.000 A 
ATOM     38  C   UNL     1       5.581   5.921  17.040  0.00  0.00    +0.000 A 
BRANCH  36  39
ATOM     39  O   UNL     1       8.563   7.167  18.701  0.00  0.00    +0.000 OA
ATOM     40  H   UNL     1       8.903   7.438  17.833  0.00  0.00    +0.000 HD
ENDBRANCH  36  39
ENDBRANCH  32  33
ENDBRANCH  23  32
ENDBRANCH  21  22
ENDBRANCH   1  21
TORSDOF 15
ENDMDL
MODEL 6
REMARK VINA RESULT:      -8.3      2.098      2.576
REMARK  Name = 
REMARK  15 active torsions:
REMARK  status: ('A' for Active; 'I' for Inactive)
REMARK    1  A    between atoms: N_1  and  C_2
REMARK    2  A    between atoms: C_2  and  C_3
REMARK    3  A    between atoms: C_3  and  C_4
REMARK    4  A    between atoms: C_4  and  C_5
REMARK    5  A    between atoms: C_5  and  C_6
REMARK    6  A    between atoms: C_6  and  N_7
REMARK    7  A    between atoms: N_7  and  C_8
REMARK    8  A    between atoms: C_8  and  C_9
REMARK    9  A    between atoms: C_15  and  C_17
REMARK   10  A    between atoms: C_17  and  C_18
REMARK   11  A    between atoms: C_18  and  C_19
REMARK   12  A    between atoms: C_19  and  C_20
REMARK   13  A    between atoms: C_21  and  C_22
REMARK   14  A    between atoms: C_22  and  C_23
REMARK   15  A    between atoms: C_26  and  O_27
REMARK                            x       y       z     vdW  Elec       q    Type
REMARK                         _______ _______ _______ _____ _____    ______ ____
ROOT
ATOM      1  C   UNL     1       2.510   8.539  17.904  0.00  0.00    +0.000 C 
ENDROOT
BRANCH   1   2
ATOM      2  C   UNL     1       1.294   9.440  17.615  0.00  0.00    +0.000 C 
BRANCH   2   4
ATOM      3  N   UNL     1      -0.122  10.759  19.275  0.00  0.00    +0.000 N 
ATOM      4  C   UNL     1       1.119  10.627  18.618  0.00  0.00    +0.000 C 
ATOM      5  O   UNL     1       2.043  11.419  18.834  0.00  0.00    +0.000 OA
BRANCH   3   6
ATOM      6  C   UNL     1      -0.399  11.978  20.100  0.00  0.00    +0.000 C 
BRANCH   6   7
ATOM      7  C   UNL     1       0.174  11.967  21.526  0.00  0.00    +0.000 C 
BRANCH   7   8
ATOM      8  C   UNL     1      -0.667  11.206  22.591  0.00  0.00    +0.000 C 
BRANCH   8   9
ATOM      9  C   UNL     1      -0.424   9.689  22.651  0.00  0.00    +0.000 C 
BRANCH   9  10
ATOM     10  C   UNL     1       0.953   9.284  22.099  0.00  0.00    +0.000 C 
BRANCH  10  11
ATOM     11  N   UNL     1       1.960   9.336  23.158  0.00  0.00    +0.000 NA
ATOM     12  H   UNL     1       2.699   9.990  22.898  0.00  0.00    +0.000 HD
ATOM     13  H   UNL     1       2.409   8.426  23.256  0.00  0.00    +0.000 HD
ENDBRANCH  10  11
ENDBRANCH   9  10
ENDBRANCH   8   9
ENDBRANCH   7   8
ENDBRANCH   6   7
ENDBRANCH   3   6
BRANCH   3  14
ATOM     14  C   UNL     1      -1.254   9.883  18.982  0.00  0.00    +0.000 C 
BRANCH  14  15
ATOM     15  C   UNL     1      -2.214  10.304  17.885  0.00  0.00    +0.000 A 
ATOM     16  C   UNL     1      -2.125   9.885  16.554  0.00  0.00    +0.000 A 
ATOM     17  C   UNL     1      -3.101  10.248  15.618  0.00  0.00    +0.000 A 
ATOM     18  C   UNL     1      -4.159  11.076  15.997  0.00  0.00    +0.000 A 
ATOM     19  C   UNL     1      -4.237  11.545  17.304  0.00  0.00    +0.000 A 
ATOM     20  C   UNL     1      -3.262  11.166  18.234  0.00  0.00    +0.000 A 
ENDBRANCH  14  15
ENDBRANCH   3  14
ENDBRANCH   2   4
ENDBRANCH   1   2
BRANCH   1  21
ATOM     21  C   UNL     1       2.409   7.572  19.109  0.00  0.00    +0.000 C 
BRANCH  21  22
ATOM     22  C   UNL     1       2.105   6.095  18.927  0.00  0.00    +0.000 A 
ATOM     23  C   UNL     1       2.841   5.345  17.978  0.00  0.00    +0.000 A 
ATOM     24  N   UNL     1       1.837   4.436  17.680  0.00  0.00    +0.000 N 
ATOM     25  C   UNL     1       1.528   3.887  18.899  0.00  0.00    +0.000 A 
ATOM     26  C   UNL     1       1.189   2.579  19.257  0.00  0.00    +0.000 A 
ATOM     27  C   UNL     1       1.371   2.261  20.600  0.00  0.00    +0.000 A 
ATOM     28  C   UNL     1       1.772   3.239  21.518  0.00  0.00    +0.000 A 
ATOM     29  C   UNL     1       1.929   4.597  21.148  0.00  0.00    +0.000 A 
ATOM     30  C   UNL     1       1.810   4.946  19.788  0.00  0.00    +0.000 A 
ATOM     31  H   UNL     1       1.415   4.240  16.780  0.00  0.00    +0.000 HD
BRANCH  23  32
ATOM     32  C   UNL     1       4.269   4.854  18.312  0.00  0.00    +0.000 C 
BRANCH  32  33
ATOM     33  C   UNL     1       5.272   4.869  17.204  0.00  0.00    +0.000 A 
ATOM     34  C   UNL     1       5.143   3.981  16.121  0.00  0.00    +0.000 A 
ATOM     35  C   UNL     1       5.966   4.108  15.005  0.00  0.00    +0.000 A 
ATOM     36  C   UNL     1       6.920   5.118  14.978  0.00  0.00    +0.000 A 
ATOM     37  C   UNL     1       7.073   5.990  16.051  0.00  0.00    +0.000 A 
ATOM     38  C   UNL     1       6.248   5.867  17.164  0.00  0.00    +0.000 A 
BRANCH  36  39
ATOM     39  O   UNL     1       7.727   5.300  13.894  0.00  0.00    +0.000 OA
ATOM     40  H   UNL     1       7.624   4.536  13.304  0.00  0.00    +0.000 HD
ENDBRANCH  36  39
ENDBRANCH  32  33
ENDBRANCH  23  32
ENDBRANCH  21  22
ENDBRANCH   1  21
TORSDOF 15
ENDMDL
MODEL 7
REMARK VINA RESULT:      -8.2      2.237      3.068
REMARK  Name = 
REMARK  15 active torsions:
REMARK  status: ('A' for Active; 'I' for Inactive)
REMARK    1  A    between atoms: N_1  and  C_2
REMARK    2  A    between atoms: C_2  and  C_3
REMARK    3  A    between atoms: C_3  and  C_4
REMARK    4  A    between atoms: C_4  and  C_5
REMARK    5  A    between atoms: C_5  and  C_6
REMARK    6  A    between atoms: C_6  and  N_7
REMARK    7  A    between atoms: N_7  and  C_8
REMARK    8  A    between atoms: C_8  and  C_9
REMARK    9  A    between atoms: C_15  and  C_17
REMARK   10  A    between atoms: C_17  and  C_18
REMARK   11  A    between atoms: C_18  and  C_19
REMARK   12  A    between atoms: C_19  and  C_20
REMARK   13  A    between atoms: C_21  and  C_22
REMARK   14  A    between atoms: C_22  and  C_23
REMARK   15  A    between atoms: C_26  and  O_27
REMARK                            x       y       z     vdW  Elec       q    Type
REMARK                         _______ _______ _______ _____ _____    ______ ____
ROOT
ATOM      1  C   UNL     1       2.344   8.399  17.658  0.00  0.00    +0.000 C 
ENDROOT
BRANCH   1   2
ATOM      2  C   UNL     1       1.432   9.162  18.638  0.00  0.00    +0.000 C 
BRANCH   2   4
ATOM      3  N   UNL     1       0.302  11.445  18.755  0.00  0.00    +0.000 N 
ATOM      4  C   UNL     1       1.478  10.718  18.481  0.00  0.00    +0.000 C 
ATOM      5  O   UNL     1       2.518  11.291  18.136  0.00  0.00    +0.000 OA
BRANCH   3   6
ATOM      6  C   UNL     1       0.244  12.909  18.444  0.00  0.00    +0.000 C 
BRANCH   6   7
ATOM      7  C   UNL     1       0.320  13.854  19.652  0.00  0.00    +0.000 C 
BRANCH   7   8
ATOM      8  C   UNL     1       1.533  14.828  19.679  0.00  0.00    +0.000 C 
BRANCH   8   9
ATOM      9  C   UNL     1       2.429  14.787  18.431  0.00  0.00    +0.000 C 
BRANCH   9  10
ATOM     10  C   UNL     1       3.817  15.404  18.671  0.00  0.00    +0.000 C 
BRANCH  10  11
ATOM     11  N   UNL     1       4.385  14.902  19.922  0.00  0.00    +0.000 NA
ATOM     12  H   UNL     1       3.861  14.083  20.233  0.00  0.00    +0.000 HD
ATOM     13  H   UNL     1       4.280  15.601  20.657  0.00  0.00    +0.000 HD
ENDBRANCH  10  11
ENDBRANCH   9  10
ENDBRANCH   8   9
ENDBRANCH   7   8
ENDBRANCH   6   7
ENDBRANCH   3   6
BRANCH   3  14
ATOM     14  C   UNL     1      -0.959  10.786  19.090  0.00  0.00    +0.000 C 
BRANCH  14  15
ATOM     15  C   UNL     1      -2.053  10.765  18.038  0.00  0.00    +0.000 A 
ATOM     16  C   UNL     1      -2.003  10.011  16.862  0.00  0.00    +0.000 A 
ATOM     17  C   UNL     1      -3.091   9.977  15.982  0.00  0.00    +0.000 A 
ATOM     18  C   UNL     1      -4.231  10.738  16.249  0.00  0.00    +0.000 A 
ATOM     19  C   UNL     1      -4.279  11.534  17.389  0.00  0.00    +0.000 A 
ATOM     20  C   UNL     1      -3.189  11.551  18.268  0.00  0.00    +0.000 A 
ENDBRANCH  14  15
ENDBRANCH   3  14
ENDBRANCH   2   4
ENDBRANCH   1   2
BRANCH   1  21
ATOM     21  C   UNL     1       3.114   7.174  18.210  0.00  0.00    +0.000 C 
BRANCH  21  22
ATOM     22  C   UNL     1       2.440   5.828  18.410  0.00  0.00    +0.000 A 
ATOM     23  C   UNL     1       2.724   4.767  17.516  0.00  0.00    +0.000 A 
ATOM     24  N   UNL     1       1.495   4.134  17.623  0.00  0.00    +0.000 N 
ATOM     25  C   UNL     1       1.375   3.887  18.968  0.00  0.00    +0.000 A 
ATOM     26  C   UNL     1       0.840   2.796  19.656  0.00  0.00    +0.000 A 
ATOM     27  C   UNL     1       1.267   2.651  20.973  0.00  0.00    +0.000 A 
ATOM     28  C   UNL     1       2.098   3.611  21.563  0.00  0.00    +0.000 A 
ATOM     29  C   UNL     1       2.471   4.799  20.889  0.00  0.00    +0.000 A 
ATOM     30  C   UNL     1       2.106   4.953  19.537  0.00  0.00    +0.000 A 
ATOM     31  H   UNL     1       0.831   3.926  16.888  0.00  0.00    +0.000 HD
BRANCH  23  32
ATOM     32  C   UNL     1       4.035   3.960  17.659  0.00  0.00    +0.000 C 
BRANCH  32  33
ATOM     33  C   UNL     1       5.294   4.736  17.881  0.00  0.00    +0.000 A 
ATOM     34  C   UNL     1       5.803   5.563  16.865  0.00  0.00    +0.000 A 
ATOM     35  C   UNL     1       6.869   6.422  17.124  0.00  0.00    +0.000 A 
ATOM     36  C   UNL     1       7.426   6.445  18.396  0.00  0.00    +0.000 A 
ATOM     37  C   UNL     1       6.946   5.617  19.406  0.00  0.00    +0.000 A 
ATOM     38  C   UNL     1       5.878   4.763  19.149  0.00  0.00    +0.000 A 
BRANCH  36  39
ATOM     39  O   UNL     1       8.450   7.292  18.705  0.00  0.00    +0.000 OA
ATOM     40  H   UNL     1       8.342   7.579  19.626  0.00  0.00    +0.000 HD
ENDBRANCH  36  39
ENDBRANCH  32  33
ENDBRANCH  23  32
ENDBRANCH  21  22
ENDBRANCH   1  21
TORSDOF 15
ENDMDL
MODEL 8
REMARK VINA RESULT:      -8.2      2.482      9.481
REMARK  Name = 
REMARK  15 active torsions:
REMARK  status: ('A' for Active; 'I' for Inactive)
REMARK    1  A    between atoms: N_1  and  C_2
REMARK    2  A    between atoms: C_2  and  C_3
REMARK    3  A    between atoms: C_3  and  C_4
REMARK    4  A    between atoms: C_4  and  C_5
REMARK    5  A    between atoms: C_5  and  C_6
REMARK    6  A    between atoms: C_6  and  N_7
REMARK    7  A    between atoms: N_7  and  C_8
REMARK    8  A    between atoms: C_8  and  C_9
REMARK    9  A    between atoms: C_15  and  C_17
REMARK   10  A    between atoms: C_17  and  C_18
REMARK   11  A    between atoms: C_18  and  C_19
REMARK   12  A    between atoms: C_19  and  C_20
REMARK   13  A    between atoms: C_21  and  C_22
REMARK   14  A    between atoms: C_22  and  C_23
REMARK   15  A    between atoms: C_26  and  O_27
REMARK                            x       y       z     vdW  Elec       q    Type
REMARK                         _______ _______ _______ _____ _____    ______ ____
ROOT
ATOM      1  C   UNL     1       2.355   8.042  17.812  0.00  0.00    +0.000 C 
ENDROOT
BRANCH   1   2
ATOM      2  C   UNL     1       3.814   7.587  18.004  0.00  0.00    +0.000 C 
BRANCH   2   4
ATOM      3  N   UNL     1       4.434   5.194  17.375  0.00  0.00    +0.000 N 
ATOM      4  C   UNL     1       4.304   6.534  16.955  0.00  0.00    +0.000 C 
ATOM      5  O   UNL     1       4.560   6.867  15.793  0.00  0.00    +0.000 OA
BRANCH   3   6
ATOM      6  C   UNL     1       5.070   4.190  16.465  0.00  0.00    +0.000 C 
BRANCH   6   7
ATOM      7  C   UNL     1       6.545   4.441  16.117  0.00  0.00    +0.000 C 
BRANCH   7   8
ATOM      8  C   UNL     1       7.513   4.594  17.326  0.00  0.00    +0.000 C 
BRANCH   8   9
ATOM      9  C   UNL     1       7.719   6.035  17.817  0.00  0.00    +0.000 C 
BRANCH   9  10
ATOM     10  C   UNL     1       7.654   6.160  19.348  0.00  0.00    +0.000 C 
BRANCH  10  11
ATOM     11  N   UNL     1       8.514   5.159  19.976  0.00  0.00    +0.000 NA
ATOM     12  H   UNL     1       9.086   5.601  20.697  0.00  0.00    +0.000 HD
ATOM     13  H   UNL     1       9.168   4.782  19.290  0.00  0.00    +0.000 HD
ENDBRANCH  10  11
ENDBRANCH   9  10
ENDBRANCH   8   9
ENDBRANCH   7   8
ENDBRANCH   6   7
ENDBRANCH   3   6
BRANCH   3  14
ATOM     14  C   UNL     1       4.210   4.789  18.761  0.00  0.00    +0.000 C 
BRANCH  14  15
ATOM     15  C   UNL     1       2.882   4.142  19.109  0.00  0.00    +0.000 A 
ATOM     16  C   UNL     1       2.094   3.423  18.205  0.00  0.00    +0.000 A 
ATOM     17  C   UNL     1       0.922   2.781  18.624  0.00  0.00    +0.000 A 
ATOM     18  C   UNL     1       0.501   2.891  19.950  0.00  0.00    +0.000 A 
ATOM     19  C   UNL     1       1.244   3.645  20.852  0.00  0.00    +0.000 A 
ATOM     20  C   UNL     1       2.420   4.273  20.424  0.00  0.00    +0.000 A 
ENDBRANCH  14  15
ENDBRANCH   3  14
ENDBRANCH   2   4
ENDBRANCH   1   2
BRANCH   1  21
ATOM     21  C   UNL     1       2.073   9.564  17.854  0.00  0.00    +0.000 C 
BRANCH  21  22
ATOM     22  C   UNL     1       1.211  10.189  18.937  0.00  0.00    +0.000 A 
ATOM     23  C   UNL     1      -0.008  10.814  18.582  0.00  0.00    +0.000 A 
ATOM     24  N   UNL     1      -0.016  11.745  19.610  0.00  0.00    +0.000 N 
ATOM     25  C   UNL     1       0.056  10.974  20.743  0.00  0.00    +0.000 A 
ATOM     26  C   UNL     1      -0.553  11.118  21.992  0.00  0.00    +0.000 A 
ATOM     27  C   UNL     1      -0.632   9.957  22.757  0.00  0.00    +0.000 A 
ATOM     28  C   UNL     1      -0.038   8.769  22.314  0.00  0.00    +0.000 A 
ATOM     29  C   UNL     1       0.730   8.710  21.126  0.00  0.00    +0.000 A 
ATOM     30  C   UNL     1       0.783   9.849  20.297  0.00  0.00    +0.000 A 
ATOM     31  H   UNL     1      -0.044  12.755  19.542  0.00  0.00    +0.000 HD
BRANCH  23  32
ATOM     32  C   UNL     1      -1.264   9.960  18.289  0.00  0.00    +0.000 C 
BRANCH  32  33
ATOM     33  C   UNL     1      -2.494  10.685  17.846  0.00  0.00    +0.000 A 
ATOM     34  C   UNL     1      -2.953  10.557  16.524  0.00  0.00    +0.000 A 
ATOM     35  C   UNL     1      -4.188  11.082  16.153  0.00  0.00    +0.000 A 
ATOM     36  C   UNL     1      -4.958  11.741  17.105  0.00  0.00    +0.000 A 
ATOM     37  C   UNL     1      -4.506  11.893  18.412  0.00  0.00    +0.000 A 
ATOM     38  C   UNL     1      -3.275  11.364  18.784  0.00  0.00    +0.000 A 
BRANCH  36  39
ATOM     39  O   UNL     1      -6.187  12.244  16.796  0.00  0.00    +0.000 OA
ATOM     40  H   UNL     1      -6.860  11.688  17.221  0.00  0.00    +0.000 HD
ENDBRANCH  36  39
ENDBRANCH  32  33
ENDBRANCH  23  32
ENDBRANCH  21  22
ENDBRANCH   1  21
TORSDOF 15
ENDMDL
MODEL 9
REMARK VINA RESULT:      -8.2      1.193      1.741
REMARK  Name = 
REMARK  15 active torsions:
REMARK  status: ('A' for Active; 'I' for Inactive)
REMARK    1  A    between atoms: N_1  and  C_2
REMARK    2  A    between atoms: C_2  and  C_3
REMARK    3  A    between atoms: C_3  and  C_4
REMARK    4  A    between atoms: C_4  and  C_5
REMARK    5  A    between atoms: C_5  and  C_6
REMARK    6  A    between atoms: C_6  and  N_7
REMARK    7  A    between atoms: N_7  and  C_8
REMARK    8  A    between atoms: C_8  and  C_9
REMARK    9  A    between atoms: C_15  and  C_17
REMARK   10  A    between atoms: C_17  and  C_18
REMARK   11  A    between atoms: C_18  and  C_19
REMARK   12  A    between atoms: C_19  and  C_20
REMARK   13  A    between atoms: C_21  and  C_22
REMARK   14  A    between atoms: C_22  and  C_23
REMARK   15  A    between atoms: C_26  and  O_27
REMARK                            x       y       z     vdW  Elec       q    Type
REMARK                         _______ _______ _______ _____ _____    ______ ____
ROOT
ATOM      1  C   UNL     1       1.913   8.513  18.947  0.00  0.00    +0.000 C 
ENDROOT
BRANCH   1   2
ATOM      2  C   UNL     1       1.426   9.594  17.963  0.00  0.00    +0.000 C 
BRANCH   2   4
ATOM      3  N   UNL     1      -0.050  11.274  19.191  0.00  0.00    +0.000 N 
ATOM      4  C   UNL     1       1.206  11.002  18.610  0.00  0.00    +0.000 C 
ATOM      5  O   UNL     1       2.109  11.845  18.619  0.00  0.00    +0.000 OA
BRANCH   3   6
ATOM      6  C   UNL     1      -0.368  12.661  19.655  0.00  0.00    +0.000 C 
BRANCH   6   7
ATOM      7  C   UNL     1      -0.625  12.821  21.162  0.00  0.00    +0.000 C 
BRANCH   7   8
ATOM      8  C   UNL     1      -2.117  12.793  21.605  0.00  0.00    +0.000 C 
BRANCH   8   9
ATOM      9  C   UNL     1      -2.533  13.923  22.559  0.00  0.00    +0.000 C 
BRANCH   9  10
ATOM     10  C   UNL     1      -3.155  13.401  23.866  0.00  0.00    +0.000 C 
BRANCH  10  11
ATOM     11  N   UNL     1      -3.501  11.987  23.735  0.00  0.00    +0.000 NA
ATOM     12  H   UNL     1      -3.614  11.574  24.662  0.00  0.00    +0.000 HD
ATOM     13  H   UNL     1      -2.735  11.481  23.292  0.00  0.00    +0.000 HD
ENDBRANCH  10  11
ENDBRANCH   9  10
ENDBRANCH   8   9
ENDBRANCH   7   8
ENDBRANCH   6   7
ENDBRANCH   3   6
BRANCH   3  14
ATOM     14  C   UNL     1      -1.158  10.322  19.126  0.00  0.00    +0.000 C 
BRANCH  14  15
ATOM     15  C   UNL     1      -2.208  10.524  18.049  0.00  0.00    +0.000 A 
ATOM     16  C   UNL     1      -3.362  11.297  18.206  0.00  0.00    +0.000 A 
ATOM     17  C   UNL     1      -4.240  11.506  17.135  0.00  0.00    +0.000 A 
ATOM     18  C   UNL     1      -3.993  10.902  15.901  0.00  0.00    +0.000 A 
ATOM     19  C   UNL     1      -2.877  10.087  15.740  0.00  0.00    +0.000 A 
ATOM     20  C   UNL     1      -2.000   9.896  16.814  0.00  0.00    +0.000 A 
ENDBRANCH  14  15
ENDBRANCH   3  14
ENDBRANCH   2   4
ENDBRANCH   1   2
BRANCH   1  21
ATOM     21  C   UNL     1       2.664   7.297  18.352  0.00  0.00    +0.000 C 
BRANCH  21  22
ATOM     22  C   UNL     1       2.151   5.878  18.522  0.00  0.00    +0.000 A 
ATOM     23  C   UNL     1       2.525   4.885  17.584  0.00  0.00    +0.000 A 
ATOM     24  N   UNL     1       1.378   4.115  17.701  0.00  0.00    +0.000 N 
ATOM     25  C   UNL     1       1.328   3.812  19.038  0.00  0.00    +0.000 A 
ATOM     26  C   UNL     1       0.939   2.645  19.701  0.00  0.00    +0.000 A 
ATOM     27  C   UNL     1       1.420   2.507  21.000  0.00  0.00    +0.000 A 
ATOM     28  C   UNL     1       2.156   3.534  21.602  0.00  0.00    +0.000 A 
ATOM     29  C   UNL     1       2.373   4.778  20.961  0.00  0.00    +0.000 A 
ATOM     30  C   UNL     1       1.952   4.934  19.626  0.00  0.00    +0.000 A 
ATOM     31  H   UNL     1       0.719   3.857  16.976  0.00  0.00    +0.000 HD
BRANCH  23  32
ATOM     32  C   UNL     1       3.922   4.227  17.663  0.00  0.00    +0.000 C 
BRANCH  32  33
ATOM     33  C   UNL     1       5.072   5.109  18.026  0.00  0.00    +0.000 A 
ATOM     34  C   UNL     1       5.737   4.936  19.252  0.00  0.00    +0.000 A 
ATOM     35  C   UNL     1       6.914   5.631  19.520  0.00  0.00    +0.000 A 
ATOM     36  C   UNL     1       7.419   6.503  18.563  0.00  0.00    +0.000 A 
ATOM     37  C   UNL     1       6.760   6.700  17.354  0.00  0.00    +0.000 A 
ATOM     38  C   UNL     1       5.587   6.002  17.084  0.00  0.00    +0.000 A 
BRANCH  36  39
ATOM     39  O   UNL     1       8.584   7.181  18.768  0.00  0.00    +0.000 OA
ATOM     40  H   UNL     1       9.065   7.222  17.926  0.00  0.00    +0.000 HD
ENDBRANCH  36  39
ENDBRANCH  32  33
ENDBRANCH  23  32
ENDBRANCH  21  22
ENDBRANCH   1  21
TORSDOF 15
ENDMDL
