MODEL 1
REMARK VINA RESULT:      -8.3      0.000      0.000
REMARK  Name = 
REMARK  9 active torsions:
REMARK  status: ('A' for Active; 'I' for Inactive)
REMARK    1  A    between atoms: C_1  and  C_2
REMARK    2  A    between atoms: C_2  and  C_3
REMARK    3  A    between atoms: C_3  and  N_4
REMARK    4  A    between atoms: C_6  and  C_7
REMARK    5  A    between atoms: C_16  and  N_17
REMARK    6  A    between atoms: N_17  and  S_18
REMARK    7  A    between atoms: S_18  and  N_21
REMARK    8  A    between atoms: N_21  and  C_22
REMARK    9  A    between atoms: N_21  and  C_23
REMARK                            x       y       z     vdW  Elec       q    Type
REMARK                         _______ _______ _______ _____ _____    ______ ____
ROOT
ATOM      1  C   UNL     1       1.164  12.482  19.686  0.00  0.00    +0.000 A 
ATOM      2  C   UNL     1       0.672  12.224  20.956  0.00  0.00    +0.000 A 
ATOM      3  N   UNL     1       0.520  10.977  21.474  0.00  0.00    +0.000 NA
ATOM      4  C   UNL     1       0.871   9.913  20.699  0.00  0.00    +0.000 A 
ATOM      5  C   UNL     1       0.610   8.636  21.359  0.00  0.00    +0.000 A 
ATOM      6  C   UNL     1       1.128   7.430  21.098  0.00  0.00    +0.000 A 
ATOM      7  C   UNL     1       2.091   7.038  20.059  0.00  0.00    +0.000 A 
ATOM      8  C   UNL     1       2.763   5.812  20.253  0.00  0.00    +0.000 A 
ATOM      9  C   UNL     1       3.599   5.266  19.272  0.00  0.00    +0.000 A 
ATOM     10  C   UNL     1       3.777   5.931  18.065  0.00  0.00    +0.000 A 
ATOM     11  C   UNL     1       3.168   7.166  17.872  0.00  0.00    +0.000 A 
ATOM     12  C   UNL     1       2.311   7.715  18.855  0.00  0.00    +0.000 A 
ATOM     13  C   UNL     1       1.636   8.973  18.473  0.00  0.00    +0.000 A 
ATOM     14  O   UNL     1       1.379   9.156  17.282  0.00  0.00    +0.000 OA
ATOM     15  C   UNL     1       1.339  10.068  19.407  0.00  0.00    +0.000 A 
ATOM     16  C   UNL     1       1.487  11.372  18.905  0.00  0.00    +0.000 A 
ENDROOT
BRANCH   1  19
ATOM     17  N   UNL     1       0.981  15.926  18.641  0.00  0.00    +0.000 N 
ATOM     18  C   UNL     1       0.416  14.839  19.244  0.00  0.00    +0.000 A 
ATOM     19  C   UNL     1       1.361  13.832  19.200  0.00  0.00    +0.000 A 
ATOM     20  C   UNL     1       2.471  14.437  18.566  0.00  0.00    +0.000 A 
ATOM     21  N   UNL     1       2.250  15.713  18.244  0.00  0.00    +0.000 NA
BRANCH  17  22
ATOM     22  C   UNL     1       0.362  17.222  18.428  0.00  0.00    +0.000 C 
BRANCH  22  24
ATOM     23  C   UNL     1       0.541  18.483  16.255  0.00  0.00    +0.000 C 
ATOM     24  C   UNL     1       1.222  18.150  17.573  0.00  0.00    +0.000 C 
ENDBRANCH  22  24
ENDBRANCH  17  22
ENDBRANCH   1  19
BRANCH  10  25
ATOM     25  N   UNL     1       4.594   5.364  17.028  0.00  0.00    +0.000 N 
ATOM     26  H   UNL     1       5.100   4.543  17.361  0.00  0.00    +0.000 HD
BRANCH  25  27
ATOM     27  S   UNL     1       5.764   6.405  16.395  0.00  0.00    +0.000 S 
ATOM     28  O   UNL     1       5.319   6.929  15.124  0.00  0.00    +0.000 OA
ATOM     29  O   UNL     1       6.192   7.268  17.474  0.00  0.00    +0.000 OA
BRANCH  27  30
ATOM     30  N   UNL     1       7.019   5.296  16.100  0.00  0.00    +0.000 NA
ATOM     31  C   UNL     1       7.476   4.521  17.277  0.00  0.00    +0.000 C 
ATOM     32  C   UNL     1       6.711   4.387  14.966  0.00  0.00    +0.000 C 
ENDBRANCH  27  30
ENDBRANCH  25  27
ENDBRANCH  10  25
TORSDOF 6
ENDMDL
MODEL 2
REMARK VINA RESULT:      -8.1      4.225      5.643
REMARK  Name = 
REMARK  9 active torsions:
REMARK  status: ('A' for Active; 'I' for Inactive)
REMARK    1  A    between atoms: C_1  and  C_2
REMARK    2  A    between atoms: C_2  and  C_3
REMARK    3  A    between atoms: C_3  and  N_4
REMARK    4  A    between atoms: C_6  and  C_7
REMARK    5  A    between atoms: C_16  and  N_17
REMARK    6  A    between atoms: N_17  and  S_18
REMARK    7  A    between atoms: S_18  and  N_21
REMARK    8  A    between atoms: N_21  and  C_22
REMARK    9  A    between atoms: N_21  and  C_23
REMARK                            x       y       z     vdW  Elec       q    Type
REMARK                         _______ _______ _______ _____ _____    ______ ____
ROOT
ATOM      1  C   UNL     1      -1.604  11.738  20.974  0.00  0.00    +0.000 A 
ATOM      2  C   UNL     1      -1.477  12.257  19.695  0.00  0.00    +0.000 A 
ATOM      3  N   UNL     1      -0.566  11.825  18.785  0.00  0.00    +0.000 NA
ATOM      4  C   UNL     1       0.277  10.818  19.149  0.00  0.00    +0.000 A 
ATOM      5  C   UNL     1       1.233  10.488  18.096  0.00  0.00    +0.000 A 
ATOM      6  C   UNL     1       1.949   9.369  17.927  0.00  0.00    +0.000 A 
ATOM      7  C   UNL     1       1.998   8.163  18.764  0.00  0.00    +0.000 A 
ATOM      8  C   UNL     1       2.516   6.997  18.160  0.00  0.00    +0.000 A 
ATOM      9  C   UNL     1       2.739   5.824  18.892  0.00  0.00    +0.000 A 
ATOM     10  C   UNL     1       2.457   5.792  20.252  0.00  0.00    +0.000 A 
ATOM     11  C   UNL     1       1.896   6.910  20.858  0.00  0.00    +0.000 A 
ATOM     12  C   UNL     1       1.681   8.102  20.125  0.00  0.00    +0.000 A 
ATOM     13  C   UNL     1       1.192   9.250  20.917  0.00  0.00    +0.000 A 
ATOM     14  O   UNL     1       1.525   9.324  22.101  0.00  0.00    +0.000 OA
ATOM     15  C   UNL     1       0.250  10.260  20.413  0.00  0.00    +0.000 A 
ATOM     16  C   UNL     1      -0.707  10.730  21.329  0.00  0.00    +0.000 A 
ENDROOT
BRANCH   1  19
ATOM     17  N   UNL     1      -4.505  13.037  22.673  0.00  0.00    +0.000 N 
ATOM     18  C   UNL     1      -3.874  12.662  21.520  0.00  0.00    +0.000 A 
ATOM     19  C   UNL     1      -2.628  12.196  21.890  0.00  0.00    +0.000 A 
ATOM     20  C   UNL     1      -2.626  12.314  23.299  0.00  0.00    +0.000 A 
ATOM     21  N   UNL     1      -3.770  12.806  23.778  0.00  0.00    +0.000 NA
BRANCH  17  22
ATOM     22  C   UNL     1      -5.832  13.612  22.791  0.00  0.00    +0.000 C 
BRANCH  22  24
ATOM     23  C   UNL     1      -7.822  13.492  21.252  0.00  0.00    +0.000 C 
ATOM     24  C   UNL     1      -6.916  12.716  22.194  0.00  0.00    +0.000 C 
ENDBRANCH  22  24
ENDBRANCH  17  22
ENDBRANCH   1  19
BRANCH  10  25
ATOM     25  N   UNL     1       2.723   4.613  21.029  0.00  0.00    +0.000 N 
ATOM     26  H   UNL     1       3.633   4.214  20.799  0.00  0.00    +0.000 HD
BRANCH  25  27
ATOM     27  S   UNL     1       1.604   3.363  20.832  0.00  0.00    +0.000 S 
ATOM     28  O   UNL     1       1.370   2.709  22.098  0.00  0.00    +0.000 OA
ATOM     29  O   UNL     1       0.523   3.886  20.026  0.00  0.00    +0.000 OA
BRANCH  27  30
ATOM     30  N   UNL     1       2.508   2.308  19.850  0.00  0.00    +0.000 NA
ATOM     31  C   UNL     1       2.130   2.289  18.418  0.00  0.00    +0.000 C 
ATOM     32  C   UNL     1       3.972   2.517  20.000  0.00  0.00    +0.000 C 
ENDBRANCH  27  30
ENDBRANCH  25  27
ENDBRANCH  10  25
TORSDOF 6
ENDMDL
MODEL 3
REMARK VINA RESULT:      -7.9      4.130      5.474
REMARK  Name = 
REMARK  9 active torsions:
REMARK  status: ('A' for Active; 'I' for Inactive)
REMARK    1  A    between atoms: C_1  and  C_2
REMARK    2  A    between atoms: C_2  and  C_3
REMARK    3  A    between atoms: C_3  and  N_4
REMARK    4  A    between atoms: C_6  and  C_7
REMARK    5  A    between atoms: C_16  and  N_17
REMARK    6  A    between atoms: N_17  and  S_18
REMARK    7  A    between atoms: S_18  and  N_21
REMARK    8  A    between atoms: N_21  and  C_22
REMARK    9  A    between atoms: N_21  and  C_23
REMARK                            x       y       z     vdW  Elec       q    Type
REMARK                         _______ _______ _______ _____ _____    ______ ____
ROOT
ATOM      1  C   UNL     1      -1.490  11.734  20.292  0.00  0.00    +0.000 A 
ATOM      2  C   UNL     1      -1.217  12.180  19.008  0.00  0.00    +0.000 A 
ATOM      3  N   UNL     1      -0.229  11.679  18.222  0.00  0.00    +0.000 NA
ATOM      4  C   UNL     1       0.543  10.674  18.725  0.00  0.00    +0.000 A 
ATOM      5  C   UNL     1       1.594  10.266  17.796  0.00  0.00    +0.000 A 
ATOM      6  C   UNL     1       2.292   9.124  17.761  0.00  0.00    +0.000 A 
ATOM      7  C   UNL     1       2.219   7.964  18.659  0.00  0.00    +0.000 A 
ATOM      8  C   UNL     1       2.764   6.756  18.174  0.00  0.00    +0.000 A 
ATOM      9  C   UNL     1       2.877   5.619  18.984  0.00  0.00    +0.000 A 
ATOM     10  C   UNL     1       2.455   5.666  20.307  0.00  0.00    +0.000 A 
ATOM     11  C   UNL     1       1.866   6.829  20.792  0.00  0.00    +0.000 A 
ATOM     12  C   UNL     1       1.761   7.983  19.981  0.00  0.00    +0.000 A 
ATOM     13  C   UNL     1       1.226   9.183  20.657  0.00  0.00    +0.000 A 
ATOM     14  O   UNL     1       1.436   9.314  21.864  0.00  0.00    +0.000 OA
ATOM     15  C   UNL     1       0.370  10.186  20.006  0.00  0.00    +0.000 A 
ATOM     16  C   UNL     1      -0.664  10.726  20.790  0.00  0.00    +0.000 A 
ENDROOT
BRANCH   1  19
ATOM     17  N   UNL     1      -3.817  12.920  22.775  0.00  0.00    +0.000 N 
ATOM     18  C   UNL     1      -2.576  12.460  22.437  0.00  0.00    +0.000 A 
ATOM     19  C   UNL     1      -2.591  12.263  21.071  0.00  0.00    +0.000 A 
ATOM     20  C   UNL     1      -3.891  12.662  20.684  0.00  0.00    +0.000 A 
ATOM     21  N   UNL     1      -4.631  13.079  21.714  0.00  0.00    +0.000 NA
BRANCH  17  22
ATOM     22  C   UNL     1      -4.291  13.248  24.108  0.00  0.00    +0.000 C 
BRANCH  22  24
ATOM     23  C   UNL     1      -2.824  14.822  25.418  0.00  0.00    +0.000 C 
ATOM     24  C   UNL     1      -4.019  14.703  24.485  0.00  0.00    +0.000 C 
ENDBRANCH  22  24
ENDBRANCH  17  22
ENDBRANCH   1  19
BRANCH  10  25
ATOM     25  N   UNL     1       2.605   4.525  21.167  0.00  0.00    +0.000 N 
ATOM     26  H   UNL     1       3.527   4.100  21.062  0.00  0.00    +0.000 HD
BRANCH  25  27
ATOM     27  S   UNL     1       1.489   3.285  20.905  0.00  0.00    +0.000 S 
ATOM     28  O   UNL     1       1.174   2.636  22.157  0.00  0.00    +0.000 OA
ATOM     29  O   UNL     1       0.463   3.815  20.035  0.00  0.00    +0.000 OA
BRANCH  27  30
ATOM     30  N   UNL     1       2.441   2.220  19.982  0.00  0.00    +0.000 NA
ATOM     31  C   UNL     1       2.147   2.197  18.530  0.00  0.00    +0.000 C 
ATOM     32  C   UNL     1       3.895   2.419  20.215  0.00  0.00    +0.000 C 
ENDBRANCH  27  30
ENDBRANCH  25  27
ENDBRANCH  10  25
TORSDOF 6
ENDMDL
MODEL 4
REMARK VINA RESULT:      -7.8      4.185      5.483
REMARK  Name = 
REMARK  9 active torsions:
REMARK  status: ('A' for Active; 'I' for Inactive)
REMARK    1  A    between atoms: C_1  and  C_2
REMARK    2  A    between atoms: C_2  and  C_3
REMARK    3  A    between atoms: C_3  and  N_4
REMARK    4  A    between atoms: C_6  and  C_7
REMARK    5  A    between atoms: C_16  and  N_17
REMARK    6  A    between atoms: N_17  and  S_18
REMARK    7  A    between atoms: S_18  and  N_21
REMARK    8  A    between atoms: N_21  and  C_22
REMARK    9  A    between atoms: N_21  and  C_23
REMARK                            x       y       z     vdW  Elec       q    Type
REMARK                         _______ _______ _______ _____ _____    ______ ____
ROOT
ATOM      1  C   UNL     1      -1.755  12.071  21.175  0.00  0.00    +0.000 A 
ATOM      2  C   UNL     1      -1.662  12.571  19.885  0.00  0.00    +0.000 A 
ATOM      3  N   UNL     1      -0.773  12.127  18.959  0.00  0.00    +0.000 NA
ATOM      4  C   UNL     1       0.082  11.127  19.318  0.00  0.00    +0.000 A 
ATOM      5  C   UNL     1       1.012  10.782  18.246  0.00  0.00    +0.000 A 
ATOM      6  C   UNL     1       1.726   9.663  18.076  0.00  0.00    +0.000 A 
ATOM      7  C   UNL     1       1.799   8.469  18.930  0.00  0.00    +0.000 A 
ATOM      8  C   UNL     1       2.304   7.296  18.331  0.00  0.00    +0.000 A 
ATOM      9  C   UNL     1       2.548   6.135  19.074  0.00  0.00    +0.000 A 
ATOM     10  C   UNL     1       2.301   6.122  20.442  0.00  0.00    +0.000 A 
ATOM     11  C   UNL     1       1.753   7.249  21.044  0.00  0.00    +0.000 A 
ATOM     12  C   UNL     1       1.516   8.428  20.299  0.00  0.00    +0.000 A 
ATOM     13  C   UNL     1       1.045   9.588  21.086  0.00  0.00    +0.000 A 
ATOM     14  O   UNL     1       1.407   9.680  22.259  0.00  0.00    +0.000 OA
ATOM     15  C   UNL     1       0.088  10.588  20.590  0.00  0.00    +0.000 A 
ATOM     16  C   UNL     1      -0.848  11.069  21.522  0.00  0.00    +0.000 A 
ENDROOT
BRANCH   1  19
ATOM     17  N   UNL     1      -4.416  13.686  22.991  0.00  0.00    +0.000 N 
ATOM     18  C   UNL     1      -3.710  13.501  21.836  0.00  0.00    +0.000 A 
ATOM     19  C   UNL     1      -2.758  12.540  22.109  0.00  0.00    +0.000 A 
ATOM     20  C   UNL     1      -2.999  12.196  23.459  0.00  0.00    +0.000 A 
ATOM     21  N   UNL     1      -4.017  12.876  23.991  0.00  0.00    +0.000 NA
BRANCH  17  22
ATOM     22  C   UNL     1      -5.509  14.617  23.204  0.00  0.00    +0.000 C 
BRANCH  22  24
ATOM     23  C   UNL     1      -5.261  16.689  24.614  0.00  0.00    +0.000 C 
ATOM     24  C   UNL     1      -5.043  16.071  23.242  0.00  0.00    +0.000 C 
ENDBRANCH  22  24
ENDBRANCH  17  22
ENDBRANCH   1  19
BRANCH  10  25
ATOM     25  N   UNL     1       2.589   4.956  21.230  0.00  0.00    +0.000 N 
ATOM     26  H   UNL     1       3.570   4.687  21.150  0.00  0.00    +0.000 HD
BRANCH  25  27
ATOM     27  S   UNL     1       1.696   3.582  20.819  0.00  0.00    +0.000 S 
ATOM     28  O   UNL     1       1.687   2.654  21.926  0.00  0.00    +0.000 OA
ATOM     29  O   UNL     1       0.478   4.041  20.191  0.00  0.00    +0.000 OA
BRANCH  27  30
ATOM     30  N   UNL     1       2.689   2.939  19.596  0.00  0.00    +0.000 NA
ATOM     31  C   UNL     1       3.974   2.361  20.055  0.00  0.00    +0.000 C 
ATOM     32  C   UNL     1       1.963   1.972  18.733  0.00  0.00    +0.000 C 
ENDBRANCH  27  30
ENDBRANCH  25  27
ENDBRANCH  10  25
TORSDOF 6
ENDMDL
MODEL 5
REMARK VINA RESULT:      -7.8      1.367      1.670
REMARK  Name = 
REMARK  9 active torsions:
REMARK  status: ('A' for Active; 'I' for Inactive)
REMARK    1  A    between atoms: C_1  and  C_2
REMARK    2  A    between atoms: C_2  and  C_3
REMARK    3  A    between atoms: C_3  and  N_4
REMARK    4  A    between atoms: C_6  and  C_7
REMARK    5  A    between atoms: C_16  and  N_17
REMARK    6  A    between atoms: N_17  and  S_18
REMARK    7  A    between atoms: S_18  and  N_21
REMARK    8  A    between atoms: N_21  and  C_22
REMARK    9  A    between atoms: N_21  and  C_23
REMARK                            x       y       z     vdW  Elec       q    Type
REMARK                         _______ _______ _______ _____ _____    ______ ____
ROOT
ATOM      1  C   UNL     1       1.475  12.873  19.817  0.00  0.00    +0.000 A 
ATOM      2  C   UNL     1       0.795  12.799  21.023  0.00  0.00    +0.000 A 
ATOM      3  N   UNL     1       0.345  11.642  21.574  0.00  0.00    +0.000 NA
ATOM      4  C   UNL     1       0.574  10.479  20.900  0.00  0.00    +0.000 A 
ATOM      5  C   UNL     1      -0.005   9.323  21.578  0.00  0.00    +0.000 A 
ATOM      6  C   UNL     1       0.299   8.026  21.443  0.00  0.00    +0.000 A 
ATOM      7  C   UNL     1       1.284   7.391  20.556  0.00  0.00    +0.000 A 
ATOM      8  C   UNL     1       1.679   6.079  20.892  0.00  0.00    +0.000 A 
ATOM      9  C   UNL     1       2.505   5.320  20.054  0.00  0.00    +0.000 A 
ATOM     10  C   UNL     1       2.950   5.855  18.850  0.00  0.00    +0.000 A 
ATOM     11  C   UNL     1       2.617   7.164  18.523  0.00  0.00    +0.000 A 
ATOM     12  C   UNL     1       1.772   7.930  19.361  0.00  0.00    +0.000 A 
ATOM     13  C   UNL     1       1.401   9.261  18.838  0.00  0.00    +0.000 A 
ATOM     14  O   UNL     1       1.328   9.406  17.617  0.00  0.00    +0.000 OA
ATOM     15  C   UNL     1       1.212  10.455  19.674  0.00  0.00    +0.000 A 
ATOM     16  C   UNL     1       1.668  11.671  19.136  0.00  0.00    +0.000 A 
ENDROOT
BRANCH   1  19
ATOM     17  N   UNL     1       2.068  16.168  18.482  0.00  0.00    +0.000 N 
ATOM     18  C   UNL     1       1.213  15.227  18.982  0.00  0.00    +0.000 A 
ATOM     19  C   UNL     1       1.984  14.126  19.299  0.00  0.00    +0.000 A 
ATOM     20  C   UNL     1       3.299  14.527  18.969  0.00  0.00    +0.000 A 
ATOM     21  N   UNL     1       3.356  15.772  18.492  0.00  0.00    +0.000 NA
BRANCH  17  22
ATOM     22  C   UNL     1       1.719  17.488  17.990  0.00  0.00    +0.000 C 
BRANCH  22  24
ATOM     23  C   UNL     1       0.106  18.579  16.393  0.00  0.00    +0.000 C 
ATOM     24  C   UNL     1       0.267  17.576  17.525  0.00  0.00    +0.000 C 
ENDBRANCH  22  24
ENDBRANCH  17  22
ENDBRANCH   1  19
BRANCH  10  25
ATOM     25  N   UNL     1       3.759   5.075  17.955  0.00  0.00    +0.000 N 
ATOM     26  H   UNL     1       3.262   4.244  17.633  0.00  0.00    +0.000 HD
BRANCH  25  27
ATOM     27  S   UNL     1       5.214   4.523  18.611  0.00  0.00    +0.000 S 
ATOM     28  O   UNL     1       5.807   5.556  19.429  0.00  0.00    +0.000 OA
ATOM     29  O   UNL     1       4.974   3.189  19.113  0.00  0.00    +0.000 OA
BRANCH  27  30
ATOM     30  N   UNL     1       6.141   4.374  17.192  0.00  0.00    +0.000 NA
ATOM     31  C   UNL     1       5.799   5.320  16.105  0.00  0.00    +0.000 C 
ATOM     32  C   UNL     1       7.601   4.404  17.468  0.00  0.00    +0.000 C 
ENDBRANCH  27  30
ENDBRANCH  25  27
ENDBRANCH  10  25
TORSDOF 6
ENDMDL
MODEL 6
REMARK VINA RESULT:      -7.8      1.488      1.820
REMARK  Name = 
REMARK  9 active torsions:
REMARK  status: ('A' for Active; 'I' for Inactive)
REMARK    1  A    between atoms: C_1  and  C_2
REMARK    2  A    between atoms: C_2  and  C_3
REMARK    3  A    between atoms: C_3  and  N_4
REMARK    4  A    between atoms: C_6  and  C_7
REMARK    5  A    between atoms: C_16  and  N_17
REMARK    6  A    between atoms: N_17  and  S_18
REMARK    7  A    between atoms: S_18  and  N_21
REMARK    8  A    between atoms: N_21  and  C_22
REMARK    9  A    between atoms: N_21  and  C_23
REMARK                            x       y       z     vdW  Elec       q    Type
REMARK                         _______ _______ _______ _____ _____    ______ ____
ROOT
ATOM      1  C   UNL     1       0.884  11.706  19.924  0.00  0.00    +0.000 A 
ATOM      2  C   UNL     1       0.504  11.210  21.162  0.00  0.00    +0.000 A 
ATOM      3  N   UNL     1       0.586   9.901  21.515  0.00  0.00    +0.000 NA
ATOM      4  C   UNL     1       1.072   9.018  20.597  0.00  0.00    +0.000 A 
ATOM      5  C   UNL     1       1.058   7.643  21.089  0.00  0.00    +0.000 A 
ATOM      6  C   UNL     1       1.757   6.586  20.659  0.00  0.00    +0.000 A 
ATOM      7  C   UNL     1       2.720   6.497  19.552  0.00  0.00    +0.000 A 
ATOM      8  C   UNL     1       3.595   5.390  19.565  0.00  0.00    +0.000 A 
ATOM      9  C   UNL     1       4.462   5.123  18.499  0.00  0.00    +0.000 A 
ATOM     10  C   UNL     1       4.469   5.955  17.385  0.00  0.00    +0.000 A 
ATOM     11  C   UNL     1       3.654   7.081  17.373  0.00  0.00    +0.000 A 
ATOM     12  C   UNL     1       2.767   7.348  18.443  0.00  0.00    +0.000 A 
ATOM     13  C   UNL     1       1.874   8.509  18.247  0.00  0.00    +0.000 A 
ATOM     14  O   UNL     1       1.533   8.794  17.098  0.00  0.00    +0.000 OA
ATOM     15  C   UNL     1       1.444   9.412  19.325  0.00  0.00    +0.000 A 
ATOM     16  C   UNL     1       1.349  10.775  18.996  0.00  0.00    +0.000 A 
ENDROOT
BRANCH   1  19
ATOM     17  N   UNL     1       1.387  15.241  19.433  0.00  0.00    +0.000 N 
ATOM     18  C   UNL     1       1.867  14.014  19.795  0.00  0.00    +0.000 A 
ATOM     19  C   UNL     1       0.830  13.120  19.615  0.00  0.00    +0.000 A 
ATOM     20  C   UNL     1      -0.225  13.919  19.115  0.00  0.00    +0.000 A 
ATOM     21  N   UNL     1       0.117  15.203  18.986  0.00  0.00    +0.000 NA
BRANCH  17  22
ATOM     22  C   UNL     1       2.105  16.502  19.473  0.00  0.00    +0.000 C 
BRANCH  22  24
ATOM     23  C   UNL     1       2.747  17.058  17.102  0.00  0.00    +0.000 C 
ATOM     24  C   UNL     1       1.815  17.381  18.258  0.00  0.00    +0.000 C 
ENDBRANCH  22  24
ENDBRANCH  17  22
ENDBRANCH   1  19
BRANCH  10  25
ATOM     25  N   UNL     1       5.318   5.671  16.262  0.00  0.00    +0.000 N 
ATOM     26  H   UNL     1       5.034   4.812  15.790  0.00  0.00    +0.000 HD
BRANCH  25  27
ATOM     27  S   UNL     1       6.953   5.476  16.638  0.00  0.00    +0.000 S 
ATOM     28  O   UNL     1       7.172   4.168  17.211  0.00  0.00    +0.000 OA
ATOM     29  O   UNL     1       7.709   5.953  15.502  0.00  0.00    +0.000 OA
BRANCH  27  30
ATOM     30  N   UNL     1       7.111   6.631  17.877  0.00  0.00    +0.000 NA
ATOM     31  C   UNL     1       7.815   6.167  19.095  0.00  0.00    +0.000 C 
ATOM     32  C   UNL     1       7.701   7.904  17.388  0.00  0.00    +0.000 C 
ENDBRANCH  27  30
ENDBRANCH  25  27
ENDBRANCH  10  25
TORSDOF 6
ENDMDL
MODEL 7
REMARK VINA RESULT:      -7.8      4.102      5.763
REMARK  Name = 
REMARK  9 active torsions:
REMARK  status: ('A' for Active; 'I' for Inactive)
REMARK    1  A    between atoms: C_1  and  C_2
REMARK    2  A    between atoms: C_2  and  C_3
REMARK    3  A    between atoms: C_3  and  N_4
REMARK    4  A    between atoms: C_6  and  C_7
REMARK    5  A    between atoms: C_16  and  N_17
REMARK    6  A    between atoms: N_17  and  S_18
REMARK    7  A    between atoms: S_18  and  N_21
REMARK    8  A    between atoms: N_21  and  C_22
REMARK    9  A    between atoms: N_21  and  C_23
REMARK                            x       y       z     vdW  Elec       q    Type
REMARK                         _______ _______ _______ _____ _____    ______ ____
ROOT
ATOM      1  C   UNL     1      -2.034  12.271  21.524  0.00  0.00    +0.000 A 
ATOM      2  C   UNL     1      -1.899  13.051  20.386  0.00  0.00    +0.000 A 
ATOM      3  N   UNL     1      -0.945  12.857  19.439  0.00  0.00    +0.000 NA
ATOM      4  C   UNL     1      -0.063  11.833  19.617  0.00  0.00    +0.000 A 
ATOM      5  C   UNL     1       0.936  11.770  18.553  0.00  0.00    +0.000 A 
ATOM      6  C   UNL     1       1.710  10.743  18.182  0.00  0.00    +0.000 A 
ATOM      7  C   UNL     1       1.795   9.392  18.752  0.00  0.00    +0.000 A 
ATOM      8  C   UNL     1       2.386   8.401  17.939  0.00  0.00    +0.000 A 
ATOM      9  C   UNL     1       2.647   7.112  18.419  0.00  0.00    +0.000 A 
ATOM     10  C   UNL     1       2.331   6.784  19.732  0.00  0.00    +0.000 A 
ATOM     11  C   UNL     1       1.700   7.726  20.536  0.00  0.00    +0.000 A 
ATOM     12  C   UNL     1       1.446   9.034  20.059  0.00  0.00    +0.000 A 
ATOM     13  C   UNL     1       0.881   9.970  21.053  0.00  0.00    +0.000 A 
ATOM     14  O   UNL     1       1.178   9.809  22.238  0.00  0.00    +0.000 OA
ATOM     15  C   UNL     1      -0.096  11.022  20.737  0.00  0.00    +0.000 A 
ATOM     16  C   UNL     1      -1.099  11.249  21.694  0.00  0.00    +0.000 A 
ENDROOT
BRANCH   1  19
ATOM     17  N   UNL     1      -4.950  13.232  23.412  0.00  0.00    +0.000 N 
ATOM     18  C   UNL     1      -4.228  13.253  22.252  0.00  0.00    +0.000 A 
ATOM     19  C   UNL     1      -3.104  12.483  22.477  0.00  0.00    +0.000 A 
ATOM     20  C   UNL     1      -3.266  12.026  23.806  0.00  0.00    +0.000 A 
ATOM     21  N   UNL     1      -4.394  12.463  24.368  0.00  0.00    +0.000 NA
BRANCH  17  22
ATOM     22  C   UNL     1      -6.203  13.918  23.669  0.00  0.00    +0.000 C 
BRANCH  22  24
ATOM     23  C   UNL     1      -7.853  12.064  23.242  0.00  0.00    +0.000 C 
ATOM     24  C   UNL     1      -7.339  13.418  22.780  0.00  0.00    +0.000 C 
ENDBRANCH  22  24
ENDBRANCH  17  22
ENDBRANCH   1  19
BRANCH  10  25
ATOM     25  N   UNL     1       2.634   5.481  20.257  0.00  0.00    +0.000 N 
ATOM     26  H   UNL     1       3.511   5.485  20.777  0.00  0.00    +0.000 HD
BRANCH  25  27
ATOM     27  S   UNL     1       2.788   4.265  19.094  0.00  0.00    +0.000 S 
ATOM     28  O   UNL     1       1.556   4.140  18.350  0.00  0.00    +0.000 OA
ATOM     29  O   UNL     1       4.063   4.460  18.443  0.00  0.00    +0.000 OA
BRANCH  27  30
ATOM     30  N   UNL     1       2.935   2.905  20.106  0.00  0.00    +0.000 NA
ATOM     31  C   UNL     1       4.286   2.301  20.172  0.00  0.00    +0.000 C 
ATOM     32  C   UNL     1       2.413   3.163  21.474  0.00  0.00    +0.000 C 
ENDBRANCH  27  30
ENDBRANCH  25  27
ENDBRANCH  10  25
TORSDOF 6
ENDMDL
MODEL 8
REMARK VINA RESULT:      -7.8      0.995      1.586
REMARK  Name = 
REMARK  9 active torsions:
REMARK  status: ('A' for Active; 'I' for Inactive)
REMARK    1  A    between atoms: C_1  and  C_2
REMARK    2  A    between atoms: C_2  and  C_3
REMARK    3  A    between atoms: C_3  and  N_4
REMARK    4  A    between atoms: C_6  and  C_7
REMARK    5  A    between atoms: C_16  and  N_17
REMARK    6  A    between atoms: N_17  and  S_18
REMARK    7  A    between atoms: S_18  and  N_21
REMARK    8  A    between atoms: N_21  and  C_22
REMARK    9  A    between atoms: N_21  and  C_23
REMARK                            x       y       z     vdW  Elec       q    Type
REMARK                         _______ _______ _______ _____ _____    ______ ____
ROOT
ATOM      1  C   UNL     1       1.256  12.493  19.726  0.00  0.00    +0.000 A 
ATOM      2  C   UNL     1       0.747  12.246  20.993  0.00  0.00    +0.000 A 
ATOM      3  N   UNL     1       0.545  11.004  21.503  0.00  0.00    +0.000 NA
ATOM      4  C   UNL     1       0.862   9.931  20.724  0.00  0.00    +0.000 A 
ATOM      5  C   UNL     1       0.549   8.661  21.376  0.00  0.00    +0.000 A 
ATOM      6  C   UNL     1       1.024   7.439  21.112  0.00  0.00    +0.000 A 
ATOM      7  C   UNL     1       1.977   7.016  20.076  0.00  0.00    +0.000 A 
ATOM      8  C   UNL     1       2.601   5.765  20.267  0.00  0.00    +0.000 A 
ATOM      9  C   UNL     1       3.422   5.194  19.288  0.00  0.00    +0.000 A 
ATOM     10  C   UNL     1       3.631   5.857  18.084  0.00  0.00    +0.000 A 
ATOM     11  C   UNL     1       3.069   7.115  17.895  0.00  0.00    +0.000 A 
ATOM     12  C   UNL     1       2.229   7.690  18.877  0.00  0.00    +0.000 A 
ATOM     13  C   UNL     1       1.602   8.974  18.497  0.00  0.00    +0.000 A 
ATOM     14  O   UNL     1       1.359   9.173  17.306  0.00  0.00    +0.000 OA
ATOM     15  C   UNL     1       1.341  10.075  19.436  0.00  0.00    +0.000 A 
ATOM     16  C   UNL     1       1.541  11.376  18.941  0.00  0.00    +0.000 A 
ENDROOT
BRANCH   1  19
ATOM     17  N   UNL     1       2.496  15.583  18.348  0.00  0.00    +0.000 N 
ATOM     18  C   UNL     1       2.635  14.242  18.566  0.00  0.00    +0.000 A 
ATOM     19  C   UNL     1       1.504  13.837  19.248  0.00  0.00    +0.000 A 
ATOM     20  C   UNL     1       0.737  15.019  19.365  0.00  0.00    +0.000 A 
ATOM     21  N   UNL     1       1.327  16.076  18.803  0.00  0.00    +0.000 NA
BRANCH  17  22
ATOM     22  C   UNL     1       3.444  16.460  17.685  0.00  0.00    +0.000 C 
BRANCH  22  24
ATOM     23  C   UNL     1       5.774  15.920  18.474  0.00  0.00    +0.000 C 
ATOM     24  C   UNL     1       4.597  16.874  18.597  0.00  0.00    +0.000 C 
ENDBRANCH  22  24
ENDBRANCH  17  22
ENDBRANCH   1  19
BRANCH  10  25
ATOM     25  N   UNL     1       4.432   5.265  17.049  0.00  0.00    +0.000 N 
ATOM     26  H   UNL     1       4.877   4.405  17.369  0.00  0.00    +0.000 HD
BRANCH  25  27
ATOM     27  S   UNL     1       5.679   6.245  16.467  0.00  0.00    +0.000 S 
ATOM     28  O   UNL     1       5.283   6.853  15.218  0.00  0.00    +0.000 OA
ATOM     29  O   UNL     1       6.161   7.027  17.584  0.00  0.00    +0.000 OA
BRANCH  27  30
ATOM     30  N   UNL     1       6.853   5.061  16.130  0.00  0.00    +0.000 NA
ATOM     31  C   UNL     1       7.536   4.485  17.312  0.00  0.00    +0.000 C 
ATOM     32  C   UNL     1       6.328   3.981  15.255  0.00  0.00    +0.000 C 
ENDBRANCH  27  30
ENDBRANCH  25  27
ENDBRANCH  10  25
TORSDOF 6
ENDMDL
MODEL 9
REMARK VINA RESULT:      -7.7      1.377      1.559
REMARK  Name = 
REMARK  9 active torsions:
REMARK  status: ('A' for Active; 'I' for Inactive)
REMARK    1  A    between atoms: C_1  and  C_2
REMARK    2  A    between atoms: C_2  and  C_3
REMARK    3  A    between atoms: C_3  and  N_4
REMARK    4  A    between atoms: C_6  and  C_7
REMARK    5  A    between atoms: C_16  and  N_17
REMARK    6  A    between atoms: N_17  and  S_18
REMARK    7  A    between atoms: S_18  and  N_21
REMARK    8  A    between atoms: N_21  and  C_22
REMARK    9  A    between atoms: N_21  and  C_23
REMARK                            x       y       z     vdW  Elec       q    Type
REMARK                         _______ _______ _______ _____ _____    ______ ____
ROOT
ATOM      1  C   UNL     1       1.542  12.744  19.545  0.00  0.00    +0.000 A 
ATOM      2  C   UNL     1       0.992  12.581  20.808  0.00  0.00    +0.000 A 
ATOM      3  N   UNL     1       0.701  11.376  21.362  0.00  0.00    +0.000 NA
ATOM      4  C   UNL     1       0.964  10.254  20.633  0.00  0.00    +0.000 A 
ATOM      5  C   UNL     1       0.557   9.034  21.326  0.00  0.00    +0.000 A 
ATOM      6  C   UNL     1       0.958   7.774  21.121  0.00  0.00    +0.000 A 
ATOM      7  C   UNL     1       1.903   7.251  20.125  0.00  0.00    +0.000 A 
ATOM      8  C   UNL     1       2.442   5.972  20.379  0.00  0.00    +0.000 A 
ATOM      9  C   UNL     1       3.245   5.310  19.442  0.00  0.00    +0.000 A 
ATOM     10  C   UNL     1       3.521   5.911  18.219  0.00  0.00    +0.000 A 
ATOM     11  C   UNL     1       3.045   7.192  17.967  0.00  0.00    +0.000 A 
ATOM     12  C   UNL     1       2.223   7.859  18.906  0.00  0.00    +0.000 A 
ATOM     13  C   UNL     1       1.688   9.164  18.463  0.00  0.00    +0.000 A 
ATOM     14  O   UNL     1       1.483   9.329  17.260  0.00  0.00    +0.000 OA
ATOM     15  C   UNL     1       1.478  10.316  19.351  0.00  0.00    +0.000 A 
ATOM     16  C   UNL     1       1.771  11.580  18.811  0.00  0.00    +0.000 A 
ENDROOT
BRANCH   1  19
ATOM     17  N   UNL     1       1.826  16.204  18.578  0.00  0.00    +0.000 N 
ATOM     18  C   UNL     1       1.220  15.224  19.311  0.00  0.00    +0.000 A 
ATOM     19  C   UNL     1       1.886  14.050  19.021  0.00  0.00    +0.000 A 
ATOM     20  C   UNL     1       2.897  14.447  18.116  0.00  0.00    +0.000 A 
ATOM     21  N   UNL     1       2.875  15.757  17.860  0.00  0.00    +0.000 NA
BRANCH  17  22
ATOM     22  C   UNL     1       1.461  17.608  18.531  0.00  0.00    +0.000 C 
BRANCH  22  24
ATOM     23  C   UNL     1      -0.923  17.970  17.803  0.00  0.00    +0.000 C 
ATOM     24  C   UNL     1       0.533  17.935  17.364  0.00  0.00    +0.000 C 
ENDBRANCH  22  24
ENDBRANCH  17  22
ENDBRANCH   1  19
BRANCH  10  25
ATOM     25  N   UNL     1       4.304   5.228  17.226  0.00  0.00    +0.000 N 
ATOM     26  H   UNL     1       3.794   4.437  16.831  0.00  0.00    +0.000 HD
BRANCH  25  27
ATOM     27  S   UNL     1       5.772   4.605  17.783  0.00  0.00    +0.000 S 
ATOM     28  O   UNL     1       5.539   3.737  18.913  0.00  0.00    +0.000 OA
ATOM     29  O   UNL     1       6.516   4.172  16.621  0.00  0.00    +0.000 OA
BRANCH  27  30
ATOM     30  N   UNL     1       6.501   6.033  18.352  0.00  0.00    +0.000 NA
ATOM     31  C   UNL     1       7.626   5.841  19.297  0.00  0.00    +0.000 C 
ATOM     32  C   UNL     1       6.900   6.941  17.246  0.00  0.00    +0.000 C 
ENDBRANCH  27  30
ENDBRANCH  25  27
ENDBRANCH  10  25
TORSDOF 6
ENDMDL
