MODEL 1
REMARK VINA RESULT:      -8.9      0.000      0.000
REMARK  Name = 
REMARK  8 active torsions:
REMARK  status: ('A' for Active; 'I' for Inactive)
REMARK    1  A    between atoms: C_1  and  C_2
REMARK    2  A    between atoms: C_2  and  N_3
REMARK    3  A    between atoms: C_2  and  C_23
REMARK    4  A    between atoms: N_3  and  C_4
REMARK    5  A    between atoms: C_9  and  N_10
REMARK    6  A    between atoms: N_10  and  S_11
REMARK    7  A    between atoms: S_11  and  C_14
REMARK    8  A    between atoms: C_17  and  N_18
REMARK                            x       y       z     vdW  Elec       q    Type
REMARK                         _______ _______ _______ _____ _____    ______ ____
ROOT
ATOM      1  C   UNL     1       3.256   5.942  18.950  0.00  0.00    +0.000 C 
ATOM      2  C   UNL     1       2.257   5.200  18.008  0.00  0.00    +0.000 C 
ATOM      3  C   UNL     1       1.421   4.121  18.706  0.00  0.00    +0.000 C 
ATOM      4  C   UNL     1       2.268   3.158  19.526  0.00  0.00    +0.000 C 
ATOM      5  C   UNL     1       3.265   3.887  20.408  0.00  0.00    +0.000 C 
ATOM      6  C   UNL     1       4.153   4.877  19.664  0.00  0.00    +0.000 C 
ENDROOT
BRANCH   1   7
ATOM      7  N   UNL     1       2.444   6.798  19.854  0.00  0.00    +0.000 NA
ATOM      8  H   UNL     1       1.748   6.199  20.305  0.00  0.00    +0.000 HD
BRANCH   7  10
ATOM      9  C   UNL     1       2.536   8.638  18.187  0.00  0.00    +0.000 C 
ATOM     10  C   UNL     1       1.701   7.957  19.290  0.00  0.00    +0.000 C 
BRANCH  10  11
ATOM     11  C   UNL     1       1.058   8.917  20.310  0.00  0.00    +0.000 A 
ATOM     12  C   UNL     1       1.243   8.674  21.693  0.00  0.00    +0.000 A 
ATOM     13  C   UNL     1       0.633   9.456  22.665  0.00  0.00    +0.000 A 
ATOM     14  C   UNL     1      -0.257  10.445  22.287  0.00  0.00    +0.000 A 
ATOM     15  C   UNL     1      -0.513  10.692  20.937  0.00  0.00    +0.000 A 
ATOM     16  C   UNL     1      -1.557  11.565  20.601  0.00  0.00    +0.000 A 
ATOM     17  C   UNL     1      -1.845  11.856  19.273  0.00  0.00    +0.000 A 
ATOM     18  C   UNL     1      -1.015  11.365  18.275  0.00  0.00    +0.000 A 
ATOM     19  C   UNL     1       0.025  10.480  18.598  0.00  0.00    +0.000 A 
ATOM     20  C   UNL     1       0.232  10.026  19.927  0.00  0.00    +0.000 A 
ENDBRANCH  10  11
ENDBRANCH   7  10
ENDBRANCH   1   7
BRANCH   6  21
ATOM     21  N   UNL     1       5.062   4.202  18.686  0.00  0.00    +0.000 NA
ATOM     22  H   UNL     1       5.296   3.236  18.903  0.00  0.00    +0.000 HD
BRANCH  21  23
ATOM     23  S   UNL     1       6.399   5.041  18.059  0.00  0.00    +0.000 S 
ATOM     24  O   UNL     1       6.131   6.448  18.256  0.00  0.00    +0.000 OA
ATOM     25  O   UNL     1       7.612   4.426  18.533  0.00  0.00    +0.000 OA
BRANCH  23  26
ATOM     26  C   UNL     1       6.259   4.760  16.303  0.00  0.00    +0.000 A 
ATOM     27  C   UNL     1       5.117   4.110  15.816  0.00  0.00    +0.000 A 
ATOM     28  C   UNL     1       5.066   3.716  14.477  0.00  0.00    +0.000 A 
ATOM     29  C   UNL     1       6.150   3.999  13.630  0.00  0.00    +0.000 A 
ATOM     30  C   UNL     1       7.262   4.711  14.104  0.00  0.00    +0.000 A 
ATOM     31  C   UNL     1       7.308   5.107  15.444  0.00  0.00    +0.000 A 
BRANCH  29  32
ATOM     32  N   UNL     1       6.135   3.510  12.244  0.00  0.00    +0.000 N 
ATOM     33  O   UNL     1       7.210   3.504  11.626  0.00  0.00    +0.000 OA
ATOM     34  O   UNL     1       5.049   3.149  11.771  0.00  0.00    +0.000 OA
ENDBRANCH  29  32
ENDBRANCH  23  26
ENDBRANCH  21  23
ENDBRANCH   6  21
TORSDOF 7
ENDMDL
MODEL 2
REMARK VINA RESULT:      -8.9      1.173      2.272
REMARK  Name = 
REMARK  8 active torsions:
REMARK  status: ('A' for Active; 'I' for Inactive)
REMARK    1  A    between atoms: C_1  and  C_2
REMARK    2  A    between atoms: C_2  and  N_3
REMARK    3  A    between atoms: C_2  and  C_23
REMARK    4  A    between atoms: N_3  and  C_4
REMARK    5  A    between atoms: C_9  and  N_10
REMARK    6  A    between atoms: N_10  and  S_11
REMARK    7  A    between atoms: S_11  and  C_14
REMARK    8  A    between atoms: C_17  and  N_18
REMARK                            x       y       z     vdW  Elec       q    Type
REMARK                         _______ _______ _______ _____ _____    ______ ____
ROOT
ATOM      1  C   UNL     1       3.336   4.739  18.162  0.00  0.00    +0.000 C 
ATOM      2  C   UNL     1       2.873   3.582  17.224  0.00  0.00    +0.000 C 
ATOM      3  C   UNL     1       2.240   2.394  17.959  0.00  0.00    +0.000 C 
ATOM      4  C   UNL     1       3.094   1.895  19.116  0.00  0.00    +0.000 C 
ATOM      5  C   UNL     1       3.574   3.032  20.000  0.00  0.00    +0.000 C 
ATOM      6  C   UNL     1       4.293   4.148  19.251  0.00  0.00    +0.000 C 
ENDROOT
BRANCH   1   7
ATOM      7  N   UNL     1       2.107   5.392  18.684  0.00  0.00    +0.000 NA
ATOM      8  H   UNL     1       1.642   5.850  17.897  0.00  0.00    +0.000 HD
BRANCH   7  10
ATOM      9  C   UNL     1       1.609   5.878  21.069  0.00  0.00    +0.000 C 
ATOM     10  C   UNL     1       2.222   6.414  19.760  0.00  0.00    +0.000 C 
BRANCH  10  11
ATOM     11  C   UNL     1       1.810   7.849  19.384  0.00  0.00    +0.000 A 
ATOM     12  C   UNL     1       2.260   8.394  18.157  0.00  0.00    +0.000 A 
ATOM     13  C   UNL     1       1.986   9.706  17.790  0.00  0.00    +0.000 A 
ATOM     14  C   UNL     1       1.336  10.543  18.679  0.00  0.00    +0.000 A 
ATOM     15  C   UNL     1       0.915  10.069  19.923  0.00  0.00    +0.000 A 
ATOM     16  C   UNL     1       0.435  10.988  20.865  0.00  0.00    +0.000 A 
ATOM     17  C   UNL     1      -0.009  10.567  22.113  0.00  0.00    +0.000 A 
ATOM     18  C   UNL     1      -0.085   9.209  22.384  0.00  0.00    +0.000 A 
ATOM     19  C   UNL     1       0.404   8.279  21.454  0.00  0.00    +0.000 A 
ATOM     20  C   UNL     1       1.026   8.689  20.246  0.00  0.00    +0.000 A 
ENDBRANCH  10  11
ENDBRANCH   7  10
ENDBRANCH   1   7
BRANCH   6  21
ATOM     21  N   UNL     1       5.577   3.685  18.638  0.00  0.00    +0.000 NA
ATOM     22  H   UNL     1       6.045   2.926  19.128  0.00  0.00    +0.000 HD
BRANCH  21  23
ATOM     23  S   UNL     1       6.689   4.827  18.049  0.00  0.00    +0.000 S 
ATOM     24  O   UNL     1       6.137   6.130  18.345  0.00  0.00    +0.000 OA
ATOM     25  O   UNL     1       8.018   4.453  18.462  0.00  0.00    +0.000 OA
BRANCH  23  26
ATOM     26  C   UNL     1       6.560   4.633  16.280  0.00  0.00    +0.000 A 
ATOM     27  C   UNL     1       5.673   3.675  15.773  0.00  0.00    +0.000 A 
ATOM     28  C   UNL     1       5.686   3.378  14.408  0.00  0.00    +0.000 A 
ATOM     29  C   UNL     1       6.571   4.061  13.559  0.00  0.00    +0.000 A 
ATOM     30  C   UNL     1       7.409   5.069  14.060  0.00  0.00    +0.000 A 
ATOM     31  C   UNL     1       7.391   5.367  15.425  0.00  0.00    +0.000 A 
BRANCH  29  32
ATOM     32  N   UNL     1       6.648   3.690  12.139  0.00  0.00    +0.000 N 
ATOM     33  O   UNL     1       6.075   2.648  11.786  0.00  0.00    +0.000 OA
ATOM     34  O   UNL     1       7.293   4.429  11.384  0.00  0.00    +0.000 OA
ENDBRANCH  29  32
ENDBRANCH  23  26
ENDBRANCH  21  23
ENDBRANCH   6  21
TORSDOF 7
ENDMDL
MODEL 3
REMARK VINA RESULT:      -8.4      0.779      1.070
REMARK  Name = 
REMARK  8 active torsions:
REMARK  status: ('A' for Active; 'I' for Inactive)
REMARK    1  A    between atoms: C_1  and  C_2
REMARK    2  A    between atoms: C_2  and  N_3
REMARK    3  A    between atoms: C_2  and  C_23
REMARK    4  A    between atoms: N_3  and  C_4
REMARK    5  A    between atoms: C_9  and  N_10
REMARK    6  A    between atoms: N_10  and  S_11
REMARK    7  A    between atoms: S_11  and  C_14
REMARK    8  A    between atoms: C_17  and  N_18
REMARK                            x       y       z     vdW  Elec       q    Type
REMARK                         _______ _______ _______ _____ _____    ______ ____
ROOT
ATOM      1  C   UNL     1       2.901   5.916  18.484  0.00  0.00    +0.000 C 
ATOM      2  C   UNL     1       2.011   4.801  17.854  0.00  0.00    +0.000 C 
ATOM      3  C   UNL     1       1.309   3.904  18.880  0.00  0.00    +0.000 C 
ATOM      4  C   UNL     1       2.262   3.359  19.935  0.00  0.00    +0.000 C 
ATOM      5  C   UNL     1       3.152   4.444  20.514  0.00  0.00    +0.000 C 
ATOM      6  C   UNL     1       3.917   5.248  19.470  0.00  0.00    +0.000 C 
ENDROOT
BRANCH   1   7
ATOM      7  N   UNL     1       1.981   6.909  19.098  0.00  0.00    +0.000 NA
ATOM      8  H   UNL     1       1.073   6.455  19.222  0.00  0.00    +0.000 HD
BRANCH   7  10
ATOM      9  C   UNL     1       2.986   8.666  17.657  0.00  0.00    +0.000 C 
ATOM     10  C   UNL     1       1.717   8.194  18.394  0.00  0.00    +0.000 C 
BRANCH  10  11
ATOM     11  C   UNL     1       0.992   9.281  19.210  0.00  0.00    +0.000 A 
ATOM     12  C   UNL     1       1.456   9.589  20.511  0.00  0.00    +0.000 A 
ATOM     13  C   UNL     1       0.806  10.506  21.327  0.00  0.00    +0.000 A 
ATOM     14  C   UNL     1      -0.383  11.073  20.906  0.00  0.00    +0.000 A 
ATOM     15  C   UNL     1      -0.911  10.765  19.650  0.00  0.00    +0.000 A 
ATOM     16  C   UNL     1      -2.205  11.206  19.339  0.00  0.00    +0.000 A 
ATOM     17  C   UNL     1      -2.772  10.938  18.099  0.00  0.00    +0.000 A 
ATOM     18  C   UNL     1      -2.004  10.327  17.119  0.00  0.00    +0.000 A 
ATOM     19  C   UNL     1      -0.713   9.868  17.422  0.00  0.00    +0.000 A 
ATOM     20  C   UNL     1      -0.174   9.970  18.731  0.00  0.00    +0.000 A 
ENDBRANCH  10  11
ENDBRANCH   7  10
ENDBRANCH   1   7
BRANCH   6  21
ATOM     21  N   UNL     1       4.911   4.414  18.726  0.00  0.00    +0.000 NA
ATOM     22  H   UNL     1       5.111   3.505  19.136  0.00  0.00    +0.000 HD
BRANCH  21  23
ATOM     23  S   UNL     1       6.315   5.135  18.097  0.00  0.00    +0.000 S 
ATOM     24  O   UNL     1       6.147   6.563  18.248  0.00  0.00    +0.000 OA
ATOM     25  O   UNL     1       7.473   4.449  18.609  0.00  0.00    +0.000 OA
BRANCH  23  26
ATOM     26  C   UNL     1       6.180   4.811  16.348  0.00  0.00    +0.000 A 
ATOM     27  C   UNL     1       5.067   4.102  15.880  0.00  0.00    +0.000 A 
ATOM     28  C   UNL     1       5.028   3.677  14.550  0.00  0.00    +0.000 A 
ATOM     29  C   UNL     1       6.094   3.990  13.692  0.00  0.00    +0.000 A 
ATOM     30  C   UNL     1       7.176   4.760  14.146  0.00  0.00    +0.000 A 
ATOM     31  C   UNL     1       7.210   5.186  15.476  0.00  0.00    +0.000 A 
BRANCH  29  32
ATOM     32  N   UNL     1       6.096   3.471  12.317  0.00  0.00    +0.000 N 
ATOM     33  O   UNL     1       5.000   3.205  11.802  0.00  0.00    +0.000 OA
ATOM     34  O   UNL     1       7.192   3.316  11.761  0.00  0.00    +0.000 OA
ENDBRANCH  29  32
ENDBRANCH  23  26
ENDBRANCH  21  23
ENDBRANCH   6  21
TORSDOF 7
ENDMDL
MODEL 4
REMARK VINA RESULT:      -8.4      8.279     11.701
REMARK  Name = 
REMARK  8 active torsions:
REMARK  status: ('A' for Active; 'I' for Inactive)
REMARK    1  A    between atoms: C_1  and  C_2
REMARK    2  A    between atoms: C_2  and  N_3
REMARK    3  A    between atoms: C_2  and  C_23
REMARK    4  A    between atoms: N_3  and  C_4
REMARK    5  A    between atoms: C_9  and  N_10
REMARK    6  A    between atoms: N_10  and  S_11
REMARK    7  A    between atoms: S_11  and  C_14
REMARK    8  A    between atoms: C_17  and  N_18
REMARK                            x       y       z     vdW  Elec       q    Type
REMARK                         _______ _______ _______ _____ _____    ______ ____
ROOT
ATOM      1  C   UNL     1      -3.004  11.348  18.209  0.00  0.00    +0.000 C 
ATOM      2  C   UNL     1      -2.621   9.914  17.727  0.00  0.00    +0.000 C 
ATOM      3  C   UNL     1      -2.650   9.736  16.204  0.00  0.00    +0.000 C 
ATOM      4  C   UNL     1      -3.946  10.232  15.578  0.00  0.00    +0.000 C 
ATOM      5  C   UNL     1      -4.332  11.610  16.083  0.00  0.00    +0.000 C 
ATOM      6  C   UNL     1      -4.397  11.724  17.602  0.00  0.00    +0.000 C 
ENDROOT
BRANCH   1   7
ATOM      7  N   UNL     1      -1.882  12.246  17.829  0.00  0.00    +0.000 NA
ATOM      8  H   UNL     1      -1.418  11.835  17.017  0.00  0.00    +0.000 HD
BRANCH   7  10
ATOM      9  C   UNL     1       0.075  13.696  18.319  0.00  0.00    +0.000 C 
ATOM     10  C   UNL     1      -0.814  12.541  18.823  0.00  0.00    +0.000 C 
BRANCH  10  11
ATOM     11  C   UNL     1      -0.052  11.326  19.386  0.00  0.00    +0.000 A 
ATOM     12  C   UNL     1       0.729  10.538  18.507  0.00  0.00    +0.000 A 
ATOM     13  C   UNL     1       1.383   9.388  18.933  0.00  0.00    +0.000 A 
ATOM     14  C   UNL     1       1.198   8.938  20.228  0.00  0.00    +0.000 A 
ATOM     15  C   UNL     1       0.397   9.652  21.121  0.00  0.00    +0.000 A 
ATOM     16  C   UNL     1       0.081   9.067  22.355  0.00  0.00    +0.000 A 
ATOM     17  C   UNL     1      -0.702   9.741  23.285  0.00  0.00    +0.000 A 
ATOM     18  C   UNL     1      -1.078  11.052  23.034  0.00  0.00    +0.000 A 
ATOM     19  C   UNL     1      -0.779  11.644  21.797  0.00  0.00    +0.000 A 
ATOM     20  C   UNL     1      -0.136  10.919  20.760  0.00  0.00    +0.000 A 
ENDBRANCH  10  11
ENDBRANCH   7  10
ENDBRANCH   1   7
BRANCH   6  21
ATOM     21  N   UNL     1      -5.482  10.878  18.189  0.00  0.00    +0.000 NA
ATOM     22  H   UNL     1      -5.812  10.120  17.598  0.00  0.00    +0.000 HD
BRANCH  21  23
ATOM     23  S   UNL     1      -6.760  11.612  19.033  0.00  0.00    +0.000 S 
ATOM     24  O   UNL     1      -7.517  12.366  18.059  0.00  0.00    +0.000 OA
ATOM     25  O   UNL     1      -7.385  10.639  19.892  0.00  0.00    +0.000 OA
BRANCH  23  26
ATOM     26  C   UNL     1      -5.927  12.823  20.045  0.00  0.00    +0.000 A 
ATOM     27  C   UNL     1      -5.166  12.379  21.133  0.00  0.00    +0.000 A 
ATOM     28  C   UNL     1      -4.657  13.309  22.044  0.00  0.00    +0.000 A 
ATOM     29  C   UNL     1      -4.894  14.678  21.841  0.00  0.00    +0.000 A 
ATOM     30  C   UNL     1      -5.598  15.123  20.712  0.00  0.00    +0.000 A 
ATOM     31  C   UNL     1      -6.103  14.191  19.801  0.00  0.00    +0.000 A 
BRANCH  29  32
ATOM     32  N   UNL     1      -4.434  15.650  22.842  0.00  0.00    +0.000 N 
ATOM     33  O   UNL     1      -4.333  15.263  24.015  0.00  0.00    +0.000 OA
ATOM     34  O   UNL     1      -4.191  16.802  22.458  0.00  0.00    +0.000 OA
ENDBRANCH  29  32
ENDBRANCH  23  26
ENDBRANCH  21  23
ENDBRANCH   6  21
TORSDOF 7
ENDMDL
MODEL 5
REMARK VINA RESULT:      -8.3      6.259     11.433
REMARK  Name = 
REMARK  8 active torsions:
REMARK  status: ('A' for Active; 'I' for Inactive)
REMARK    1  A    between atoms: C_1  and  C_2
REMARK    2  A    between atoms: C_2  and  N_3
REMARK    3  A    between atoms: C_2  and  C_23
REMARK    4  A    between atoms: N_3  and  C_4
REMARK    5  A    between atoms: C_9  and  N_10
REMARK    6  A    between atoms: N_10  and  S_11
REMARK    7  A    between atoms: S_11  and  C_14
REMARK    8  A    between atoms: C_17  and  N_18
REMARK                            x       y       z     vdW  Elec       q    Type
REMARK                         _______ _______ _______ _____ _____    ______ ____
ROOT
ATOM      1  C   UNL     1      -0.176  10.754  20.389  0.00  0.00    +0.000 C 
ATOM      2  C   UNL     1      -1.337  10.635  19.353  0.00  0.00    +0.000 C 
ATOM      3  C   UNL     1      -1.078  11.371  18.034  0.00  0.00    +0.000 C 
ATOM      4  C   UNL     1      -0.630  12.812  18.241  0.00  0.00    +0.000 C 
ATOM      5  C   UNL     1       0.471  12.922  19.280  0.00  0.00    +0.000 C 
ATOM      6  C   UNL     1       0.138  12.270  20.617  0.00  0.00    +0.000 C 
ENDROOT
BRANCH   1   7
ATOM      7  N   UNL     1       0.955   9.943  19.866  0.00  0.00    +0.000 NA
ATOM      8  H   UNL     1       0.837   9.864  18.854  0.00  0.00    +0.000 HD
BRANCH   7  10
ATOM      9  C   UNL     1       1.552   8.597  21.868  0.00  0.00    +0.000 C 
ATOM     10  C   UNL     1       1.160   8.560  20.377  0.00  0.00    +0.000 C 
BRANCH  10  11
ATOM     11  C   UNL     1       2.017   7.629  19.499  0.00  0.00    +0.000 A 
ATOM     12  C   UNL     1       2.745   8.182  18.418  0.00  0.00    +0.000 A 
ATOM     13  C   UNL     1       3.479   7.390  17.543  0.00  0.00    +0.000 A 
ATOM     14  C   UNL     1       3.430   6.013  17.664  0.00  0.00    +0.000 A 
ATOM     15  C   UNL     1       2.686   5.414  18.682  0.00  0.00    +0.000 A 
ATOM     16  C   UNL     1       2.506   4.025  18.656  0.00  0.00    +0.000 A 
ATOM     17  C   UNL     1       1.786   3.378  19.653  0.00  0.00    +0.000 A 
ATOM     18  C   UNL     1       1.338   4.105  20.747  0.00  0.00    +0.000 A 
ATOM     19  C   UNL     1       1.500   5.498  20.779  0.00  0.00    +0.000 A 
ATOM     20  C   UNL     1       2.074   6.207  19.691  0.00  0.00    +0.000 A 
ENDBRANCH  10  11
ENDBRANCH   7  10
ENDBRANCH   1   7
BRANCH   6  21
ATOM     21  N   UNL     1      -0.997  12.951  21.314  0.00  0.00    +0.000 NA
ATOM     22  H   UNL     1      -1.128  13.932  21.078  0.00  0.00    +0.000 HD
BRANCH  21  23
ATOM     23  S   UNL     1      -1.263  12.667  22.968  0.00  0.00    +0.000 S 
ATOM     24  O   UNL     1      -0.798  11.325  23.235  0.00  0.00    +0.000 OA
ATOM     25  O   UNL     1      -0.793  13.798  23.726  0.00  0.00    +0.000 OA
BRANCH  23  26
ATOM     26  C   UNL     1      -3.042  12.598  23.080  0.00  0.00    +0.000 A 
ATOM     27  C   UNL     1      -3.796  12.798  21.916  0.00  0.00    +0.000 A 
ATOM     28  C   UNL     1      -5.184  12.930  22.008  0.00  0.00    +0.000 A 
ATOM     29  C   UNL     1      -5.807  12.836  23.263  0.00  0.00    +0.000 A 
ATOM     30  C   UNL     1      -5.056  12.566  24.417  0.00  0.00    +0.000 A 
ATOM     31  C   UNL     1      -3.668  12.431  24.321  0.00  0.00    +0.000 A 
BRANCH  29  32
ATOM     32  N   UNL     1      -7.255  13.060  23.373  0.00  0.00    +0.000 N 
ATOM     33  O   UNL     1      -7.917  12.233  24.018  0.00  0.00    +0.000 OA
ATOM     34  O   UNL     1      -7.730  14.051  22.803  0.00  0.00    +0.000 OA
ENDBRANCH  29  32
ENDBRANCH  23  26
ENDBRANCH  21  23
ENDBRANCH   6  21
TORSDOF 7
ENDMDL
MODEL 6
REMARK VINA RESULT:      -8.3      8.293     11.513
REMARK  Name = 
REMARK  8 active torsions:
REMARK  status: ('A' for Active; 'I' for Inactive)
REMARK    1  A    between atoms: C_1  and  C_2
REMARK    2  A    between atoms: C_2  and  N_3
REMARK    3  A    between atoms: C_2  and  C_23
REMARK    4  A    between atoms: N_3  and  C_4
REMARK    5  A    between atoms: C_9  and  N_10
REMARK    6  A    between atoms: N_10  and  S_11
REMARK    7  A    between atoms: S_11  and  C_14
REMARK    8  A    between atoms: C_17  and  N_18
REMARK                            x       y       z     vdW  Elec       q    Type
REMARK                         _______ _______ _______ _____ _____    ______ ____
ROOT
ATOM      1  C   UNL     1      -0.138  11.398  20.983  0.00  0.00    +0.000 C 
ATOM      2  C   UNL     1       1.216  10.794  21.471  0.00  0.00    +0.000 C 
ATOM      3  C   UNL     1       1.080   9.440  22.177  0.00  0.00    +0.000 C 
ATOM      4  C   UNL     1       0.022   9.451  23.272  0.00  0.00    +0.000 C 
ATOM      5  C   UNL     1      -1.278  10.078  22.802  0.00  0.00    +0.000 C 
ATOM      6  C   UNL     1      -1.120  11.469  22.200  0.00  0.00    +0.000 C 
ENDROOT
BRANCH   1   7
ATOM      7  N   UNL     1      -0.598  10.564  19.843  0.00  0.00    +0.000 NA
ATOM      8  H   UNL     1       0.064   9.792  19.737  0.00  0.00    +0.000 HD
BRANCH   7  10
ATOM      9  C   UNL     1      -0.233  12.637  18.523  0.00  0.00    +0.000 C 
ATOM     10  C   UNL     1      -0.744  11.183  18.497  0.00  0.00    +0.000 C 
BRANCH  10  11
ATOM     11  C   UNL     1      -2.101  10.979  17.797  0.00  0.00    +0.000 A 
ATOM     12  C   UNL     1      -2.138  10.297  16.556  0.00  0.00    +0.000 A 
ATOM     13  C   UNL     1      -3.317  10.142  15.837  0.00  0.00    +0.000 A 
ATOM     14  C   UNL     1      -4.477  10.746  16.287  0.00  0.00    +0.000 A 
ATOM     15  C   UNL     1      -4.483  11.472  17.480  0.00  0.00    +0.000 A 
ATOM     16  C   UNL     1      -5.621  12.224  17.802  0.00  0.00    +0.000 A 
ATOM     17  C   UNL     1      -5.684  12.954  18.983  0.00  0.00    +0.000 A 
ATOM     18  C   UNL     1      -4.653  12.843  19.906  0.00  0.00    +0.000 A 
ATOM     19  C   UNL     1      -3.503  12.104  19.589  0.00  0.00    +0.000 A 
ATOM     20  C   UNL     1      -3.335  11.494  18.318  0.00  0.00    +0.000 A 
ENDBRANCH  10  11
ENDBRANCH   7  10
ENDBRANCH   1   7
BRANCH   6  21
ATOM     21  N   UNL     1      -0.654  12.474  23.205  0.00  0.00    +0.000 NA
ATOM     22  H   UNL     1      -0.532  12.120  24.151  0.00  0.00    +0.000 HD
BRANCH  21  23
ATOM     23  S   UNL     1      -1.318  14.037  23.206  0.00  0.00    +0.000 S 
ATOM     24  O   UNL     1      -0.745  14.727  24.340  0.00  0.00    +0.000 OA
ATOM     25  O   UNL     1      -1.253  14.582  21.874  0.00  0.00    +0.000 OA
BRANCH  23  26
ATOM     26  C   UNL     1      -3.027  13.744  23.626  0.00  0.00    +0.000 A 
ATOM     27  C   UNL     1      -3.339  12.650  24.444  0.00  0.00    +0.000 A 
ATOM     28  C   UNL     1      -4.676  12.293  24.636  0.00  0.00    +0.000 A 
ATOM     29  C   UNL     1      -5.689  13.050  24.028  0.00  0.00    +0.000 A 
ATOM     30  C   UNL     1      -5.376  14.186  23.267  0.00  0.00    +0.000 A 
ATOM     31  C   UNL     1      -4.038  14.543  23.079  0.00  0.00    +0.000 A 
BRANCH  29  32
ATOM     32  N   UNL     1      -7.091  12.625  24.159  0.00  0.00    +0.000 N 
ATOM     33  O   UNL     1      -7.364  11.451  23.868  0.00  0.00    +0.000 OA
ATOM     34  O   UNL     1      -7.916  13.468  24.535  0.00  0.00    +0.000 OA
ENDBRANCH  29  32
ENDBRANCH  23  26
ENDBRANCH  21  23
ENDBRANCH   6  21
TORSDOF 7
ENDMDL
MODEL 7
REMARK VINA RESULT:      -8.3      7.543     11.632
REMARK  Name = 
REMARK  8 active torsions:
REMARK  status: ('A' for Active; 'I' for Inactive)
REMARK    1  A    between atoms: C_1  and  C_2
REMARK    2  A    between atoms: C_2  and  N_3
REMARK    3  A    between atoms: C_2  and  C_23
REMARK    4  A    between atoms: N_3  and  C_4
REMARK    5  A    between atoms: C_9  and  N_10
REMARK    6  A    between atoms: N_10  and  S_11
REMARK    7  A    between atoms: S_11  and  C_14
REMARK    8  A    between atoms: C_17  and  N_18
REMARK                            x       y       z     vdW  Elec       q    Type
REMARK                         _______ _______ _______ _____ _____    ______ ____
ROOT
ATOM      1  C   UNL     1      -2.615  11.044  18.296  0.00  0.00    +0.000 C 
ATOM      2  C   UNL     1      -2.468   9.647  17.614  0.00  0.00    +0.000 C 
ATOM      3  C   UNL     1      -2.568   9.683  16.085  0.00  0.00    +0.000 C 
ATOM      4  C   UNL     1      -3.792  10.443  15.593  0.00  0.00    +0.000 C 
ATOM      5  C   UNL     1      -3.950  11.781  16.290  0.00  0.00    +0.000 C 
ATOM      6  C   UNL     1      -3.952  11.698  17.812  0.00  0.00    +0.000 C 
ENDROOT
BRANCH   1   7
ATOM      7  N   UNL     1      -1.381  11.811  17.981  0.00  0.00    +0.000 NA
ATOM      8  H   UNL     1      -0.897  11.322  17.224  0.00  0.00    +0.000 HD
BRANCH   7  10
ATOM      9  C   UNL     1       0.844  12.799  18.476  0.00  0.00    +0.000 C 
ATOM     10  C   UNL     1      -0.371  12.042  19.049  0.00  0.00    +0.000 C 
BRANCH  10  11
ATOM     11  C   UNL     1      -0.028  10.831  19.937  0.00  0.00    +0.000 A 
ATOM     12  C   UNL     1      -0.363  10.871  21.312  0.00  0.00    +0.000 A 
ATOM     13  C   UNL     1      -0.018   9.845  22.183  0.00  0.00    +0.000 A 
ATOM     14  C   UNL     1       0.756   8.793  21.727  0.00  0.00    +0.000 A 
ATOM     15  C   UNL     1       1.156   8.731  20.391  0.00  0.00    +0.000 A 
ATOM     16  C   UNL     1       2.091   7.759  20.014  0.00  0.00    +0.000 A 
ATOM     17  C   UNL     1       2.513   7.646  18.694  0.00  0.00    +0.000 A 
ATOM     18  C   UNL     1       1.912   8.431  17.720  0.00  0.00    +0.000 A 
ATOM     19  C   UNL     1       0.983   9.417  18.087  0.00  0.00    +0.000 A 
ATOM     20  C   UNL     1       0.667   9.674  19.447  0.00  0.00    +0.000 A 
ENDBRANCH  10  11
ENDBRANCH   7  10
ENDBRANCH   1   7
BRANCH   6  21
ATOM     21  N   UNL     1      -5.134  10.948  18.339  0.00  0.00    +0.000 NA
ATOM     22  H   UNL     1      -5.636  10.388  17.654  0.00  0.00    +0.000 HD
BRANCH  21  23
ATOM     23  S   UNL     1      -6.200  11.707  19.423  0.00  0.00    +0.000 S 
ATOM     24  O   UNL     1      -7.395  10.895  19.461  0.00  0.00    +0.000 OA
ATOM     25  O   UNL     1      -5.485  12.064  20.621  0.00  0.00    +0.000 OA
BRANCH  23  26
ATOM     26  C   UNL     1      -6.653  13.200  18.556  0.00  0.00    +0.000 A 
ATOM     27  C   UNL     1      -7.096  13.099  17.231  0.00  0.00    +0.000 A 
ATOM     28  C   UNL     1      -7.280  14.259  16.475  0.00  0.00    +0.000 A 
ATOM     29  C   UNL     1      -7.044  15.512  17.062  0.00  0.00    +0.000 A 
ATOM     30  C   UNL     1      -6.669  15.612  18.410  0.00  0.00    +0.000 A 
ATOM     31  C   UNL     1      -6.488  14.450  19.164  0.00  0.00    +0.000 A 
BRANCH  29  32
ATOM     32  N   UNL     1      -7.155  16.729  16.245  0.00  0.00    +0.000 N 
ATOM     33  O   UNL     1      -7.464  16.594  15.052  0.00  0.00    +0.000 OA
ATOM     34  O   UNL     1      -6.916  17.814  16.791  0.00  0.00    +0.000 OA
ENDBRANCH  29  32
ENDBRANCH  23  26
ENDBRANCH  21  23
ENDBRANCH   6  21
TORSDOF 7
ENDMDL
MODEL 8
REMARK VINA RESULT:      -8.2      1.543      2.501
REMARK  Name = 
REMARK  8 active torsions:
REMARK  status: ('A' for Active; 'I' for Inactive)
REMARK    1  A    between atoms: C_1  and  C_2
REMARK    2  A    between atoms: C_2  and  N_3
REMARK    3  A    between atoms: C_2  and  C_23
REMARK    4  A    between atoms: N_3  and  C_4
REMARK    5  A    between atoms: C_9  and  N_10
REMARK    6  A    between atoms: N_10  and  S_11
REMARK    7  A    between atoms: S_11  and  C_14
REMARK    8  A    between atoms: C_17  and  N_18
REMARK                            x       y       z     vdW  Elec       q    Type
REMARK                         _______ _______ _______ _____ _____    ______ ____
ROOT
ATOM      1  C   UNL     1       3.286   5.079  17.643  0.00  0.00    +0.000 C 
ATOM      2  C   UNL     1       3.124   3.538  17.466  0.00  0.00    +0.000 C 
ATOM      3  C   UNL     1       3.283   2.738  18.764  0.00  0.00    +0.000 C 
ATOM      4  C   UNL     1       4.547   3.103  19.530  0.00  0.00    +0.000 C 
ATOM      5  C   UNL     1       4.719   4.606  19.662  0.00  0.00    +0.000 C 
ATOM      6  C   UNL     1       4.660   5.361  18.339  0.00  0.00    +0.000 C 
ENDROOT
BRANCH   1   7
ATOM      7  N   UNL     1       2.090   5.559  18.382  0.00  0.00    +0.000 NA
ATOM      8  H   UNL     1       1.472   6.017  17.708  0.00  0.00    +0.000 HD
BRANCH   7  10
ATOM      9  C   UNL     1       1.718   5.892  20.816  0.00  0.00    +0.000 C 
ATOM     10  C   UNL     1       2.262   6.511  19.513  0.00  0.00    +0.000 C 
BRANCH  10  11
ATOM     11  C   UNL     1       1.831   7.966  19.251  0.00  0.00    +0.000 A 
ATOM     12  C   UNL     1       2.257   8.605  18.061  0.00  0.00    +0.000 A 
ATOM     13  C   UNL     1       1.966   9.938  17.796  0.00  0.00    +0.000 A 
ATOM     14  C   UNL     1       1.322  10.700  18.755  0.00  0.00    +0.000 A 
ATOM     15  C   UNL     1       0.926  10.131  19.966  0.00  0.00    +0.000 A 
ATOM     16  C   UNL     1       0.453  10.974  20.981  0.00  0.00    +0.000 A 
ATOM     17  C   UNL     1       0.033  10.457  22.201  0.00  0.00    +0.000 A 
ATOM     18  C   UNL     1      -0.027   9.082  22.372  0.00  0.00    +0.000 A 
ATOM     19  C   UNL     1       0.455   8.228  21.368  0.00  0.00    +0.000 A 
ATOM     20  C   UNL     1       1.054   8.732  20.184  0.00  0.00    +0.000 A 
ENDBRANCH  10  11
ENDBRANCH   7  10
ENDBRANCH   1   7
BRANCH   6  21
ATOM     21  N   UNL     1       5.799   5.011  17.434  0.00  0.00    +0.000 NA
ATOM     22  H   UNL     1       6.586   4.548  17.882  0.00  0.00    +0.000 HD
BRANCH  21  23
ATOM     23  S   UNL     1       6.317   6.125  16.261  0.00  0.00    +0.000 S 
ATOM     24  O   UNL     1       5.259   7.101  16.125  0.00  0.00    +0.000 OA
ATOM     25  O   UNL     1       7.676   6.512  16.540  0.00  0.00    +0.000 OA
BRANCH  23  26
ATOM     26  C   UNL     1       6.288   5.164  14.758  0.00  0.00    +0.000 A 
ATOM     27  C   UNL     1       5.176   4.351  14.502  0.00  0.00    +0.000 A 
ATOM     28  C   UNL     1       5.210   3.454  13.431  0.00  0.00    +0.000 A 
ATOM     29  C   UNL     1       6.347   3.398  12.610  0.00  0.00    +0.000 A 
ATOM     30  C   UNL     1       7.430   4.263  12.827  0.00  0.00    +0.000 A 
ATOM     31  C   UNL     1       7.393   5.161  13.898  0.00  0.00    +0.000 A 
BRANCH  29  32
ATOM     32  N   UNL     1       6.419   2.397  11.537  0.00  0.00    +0.000 N 
ATOM     33  O   UNL     1       7.532   2.161  11.045  0.00  0.00    +0.000 OA
ATOM     34  O   UNL     1       5.362   1.861  11.176  0.00  0.00    +0.000 OA
ENDBRANCH  29  32
ENDBRANCH  23  26
ENDBRANCH  21  23
ENDBRANCH   6  21
TORSDOF 7
ENDMDL
MODEL 9
REMARK VINA RESULT:      -8.2      0.909      1.409
REMARK  Name = 
REMARK  8 active torsions:
REMARK  status: ('A' for Active; 'I' for Inactive)
REMARK    1  A    between atoms: C_1  and  C_2
REMARK    2  A    between atoms: C_2  and  N_3
REMARK    3  A    between atoms: C_2  and  C_23
REMARK    4  A    between atoms: N_3  and  C_4
REMARK    5  A    between atoms: C_9  and  N_10
REMARK    6  A    between atoms: N_10  and  S_11
REMARK    7  A    between atoms: S_11  and  C_14
REMARK    8  A    between atoms: C_17  and  N_18
REMARK                            x       y       z     vdW  Elec       q    Type
REMARK                         _______ _______ _______ _____ _____    ______ ____
ROOT
ATOM      1  C   UNL     1       2.765   6.020  18.498  0.00  0.00    +0.000 C 
ATOM      2  C   UNL     1       1.951   4.831  17.900  0.00  0.00    +0.000 C 
ATOM      3  C   UNL     1       1.221   3.981  18.946  0.00  0.00    +0.000 C 
ATOM      4  C   UNL     1       2.129   3.546  20.089  0.00  0.00    +0.000 C 
ATOM      5  C   UNL     1       2.947   4.701  20.637  0.00  0.00    +0.000 C 
ATOM      6  C   UNL     1       3.744   5.460  19.583  0.00  0.00    +0.000 C 
ENDROOT
BRANCH   1   7
ATOM      7  N   UNL     1       1.778   7.017  18.987  0.00  0.00    +0.000 NA
ATOM      8  H   UNL     1       0.858   6.570  18.984  0.00  0.00    +0.000 HD
BRANCH   7  10
ATOM      9  C   UNL     1       2.957   8.712  17.605  0.00  0.00    +0.000 C 
ATOM     10  C   UNL     1       1.622   8.308  18.263  0.00  0.00    +0.000 C 
BRANCH  10  11
ATOM     11  C   UNL     1       0.902   9.436  19.026  0.00  0.00    +0.000 A 
ATOM     12  C   UNL     1       1.415   9.855  20.277  0.00  0.00    +0.000 A 
ATOM     13  C   UNL     1       0.774  10.815  21.051  0.00  0.00    +0.000 A 
ATOM     14  C   UNL     1      -0.450  11.316  20.643  0.00  0.00    +0.000 A 
ATOM     15  C   UNL     1      -1.024  10.898  19.441  0.00  0.00    +0.000 A 
ATOM     16  C   UNL     1      -2.342  11.279  19.158  0.00  0.00    +0.000 A 
ATOM     17  C   UNL     1      -2.956  10.901  17.970  0.00  0.00    +0.000 A 
ATOM     18  C   UNL     1      -2.214  10.236  17.004  0.00  0.00    +0.000 A 
ATOM     19  C   UNL     1      -0.897   9.837  17.281  0.00  0.00    +0.000 A 
ATOM     20  C   UNL     1      -0.304  10.054  18.552  0.00  0.00    +0.000 A 
ENDBRANCH  10  11
ENDBRANCH   7  10
ENDBRANCH   1   7
BRANCH   6  21
ATOM     21  N   UNL     1       4.808   4.614  18.957  0.00  0.00    +0.000 NA
ATOM     22  H   UNL     1       5.034   3.758  19.457  0.00  0.00    +0.000 HD
BRANCH  21  23
ATOM     23  S   UNL     1       6.199   5.348  18.315  0.00  0.00    +0.000 S 
ATOM     24  O   UNL     1       5.898   6.755  18.181  0.00  0.00    +0.000 OA
ATOM     25  O   UNL     1       7.356   4.885  19.037  0.00  0.00    +0.000 OA
BRANCH  23  26
ATOM     26  C   UNL     1       6.260   4.701  16.653  0.00  0.00    +0.000 A 
ATOM     27  C   UNL     1       7.224   5.207  15.771  0.00  0.00    +0.000 A 
ATOM     28  C   UNL     1       7.175   4.853  14.420  0.00  0.00    +0.000 A 
ATOM     29  C   UNL     1       6.175   3.977  13.970  0.00  0.00    +0.000 A 
ATOM     30  C   UNL     1       5.254   3.418  14.869  0.00  0.00    +0.000 A 
ATOM     31  C   UNL     1       5.308   3.771  16.220  0.00  0.00    +0.000 A 
BRANCH  29  32
ATOM     32  N   UNL     1       6.069   3.672  12.536  0.00  0.00    +0.000 N 
ATOM     33  O   UNL     1       7.113   3.687  11.867  0.00  0.00    +0.000 OA
ATOM     34  O   UNL     1       4.943   3.434  12.079  0.00  0.00    +0.000 OA
ENDBRANCH  29  32
ENDBRANCH  23  26
ENDBRANCH  21  23
ENDBRANCH   6  21
TORSDOF 7
ENDMDL
