MODEL 1
REMARK VINA RESULT:      -9.1      0.000      0.000
REMARK  Name = 
REMARK  3 active torsions:
REMARK  status: ('A' for Active; 'I' for Inactive)
REMARK    1  A    between atoms: N_1  and  C_2
REMARK    2  A    between atoms: C_8  and  C_9
REMARK    3  A    between atoms: N_20  and  C_21
REMARK                            x       y       z     vdW  Elec       q    Type
REMARK                         _______ _______ _______ _____ _____    ______ ____
ROOT
ATOM      1  C   UNL     1       1.920   3.793  19.294  0.00  0.00    +0.000 A 
ATOM      2  N   UNL     1       1.931   2.435  19.331  0.00  0.00    +0.000 NA
ATOM      3  C   UNL     1       2.847   1.762  18.598  0.00  0.00    +0.000 A 
ATOM      4  N   UNL     1       3.793   2.288  17.793  0.00  0.00    +0.000 NA
ATOM      5  C   UNL     1       3.767   3.638  17.773  0.00  0.00    +0.000 A 
ATOM      6  C   UNL     1       2.876   4.418  18.486  0.00  0.00    +0.000 A 
ATOM      7  C   UNL     1       3.179   5.759  18.187  0.00  0.00    +0.000 A 
ATOM      8  N   UNL     1       4.213   5.829  17.325  0.00  0.00    +0.000 NA
ATOM      9  N   UNL     1       4.573   4.525  17.085  0.00  0.00    +0.000 N 
ENDROOT
BRANCH   7  10
ATOM     10  C   UNL     1       2.472   6.922  18.734  0.00  0.00    +0.000 A 
ATOM     11  C   UNL     1       2.099   7.983  17.910  0.00  0.00    +0.000 A 
ATOM     12  C   UNL     1       1.454   9.081  18.421  0.00  0.00    +0.000 A 
ATOM     13  C   UNL     1       1.161   9.164  19.698  0.00  0.00    +0.000 A 
ATOM     14  C   UNL     1       0.540  10.277  19.958  0.00  0.00    +0.000 A 
ATOM     15  C   UNL     1       0.216  10.387  21.234  0.00  0.00    +0.000 A 
ATOM     16  C   UNL     1      -0.107  10.526  22.450  0.00  0.00    +0.000 A 
ATOM     17  C   UNL     1       0.828   8.927  21.927  0.00  0.00    +0.000 A 
ATOM     18  C   UNL     1       1.456   8.222  20.627  0.00  0.00    +0.000 A 
ATOM     19  C   UNL     1       2.160   7.045  20.093  0.00  0.00    +0.000 A 
ENDBRANCH   7  10
BRANCH   9  20
ATOM     20  C   UNL     1       5.680   4.199  16.176  0.00  0.00    +0.000 C 
ATOM     21  C   UNL     1       5.267   4.075  14.702  0.00  0.00    +0.000 C 
ATOM     22  C   UNL     1       6.559   4.265  13.908  0.00  0.00    +0.000 C 
ATOM     23  C   UNL     1       7.436   5.188  14.769  0.00  0.00    +0.000 C 
ATOM     24  C   UNL     1       6.699   5.342  16.099  0.00  0.00    +0.000 C 
ENDBRANCH   9  20
BRANCH   1  25
ATOM     25  N   UNL     1       0.994   4.513  20.039  0.00  0.00    +0.000 N 
ATOM     26  H   UNL     1       1.211   4.873  20.953  0.00  0.00    +0.000 HD
ATOM     27  H   UNL     1       0.056   4.695  19.703  0.00  0.00    +0.000 HD
ENDBRANCH   1  25
TORSDOF 3
ENDMDL
MODEL 2
REMARK VINA RESULT:      -8.7      1.396      7.132
REMARK  Name = 
REMARK  3 active torsions:
REMARK  status: ('A' for Active; 'I' for Inactive)
REMARK    1  A    between atoms: N_1  and  C_2
REMARK    2  A    between atoms: C_8  and  C_9
REMARK    3  A    between atoms: N_20  and  C_21
REMARK                            x       y       z     vdW  Elec       q    Type
REMARK                         _______ _______ _______ _____ _____    ______ ____
ROOT
ATOM      1  C   UNL     1       3.766   3.365  19.645  0.00  0.00    +0.000 A 
ATOM      2  N   UNL     1       3.229   2.741  20.727  0.00  0.00    +0.000 NA
ATOM      3  C   UNL     1       2.333   3.403  21.493  0.00  0.00    +0.000 A 
ATOM      4  N   UNL     1       1.883   4.663  21.318  0.00  0.00    +0.000 NA
ATOM      5  C   UNL     1       2.426   5.263  20.237  0.00  0.00    +0.000 A 
ATOM      6  C   UNL     1       3.346   4.674  19.390  0.00  0.00    +0.000 A 
ATOM      7  C   UNL     1       3.659   5.628  18.404  0.00  0.00    +0.000 A 
ATOM      8  N   UNL     1       2.971   6.768  18.613  0.00  0.00    +0.000 NA
ATOM      9  N   UNL     1       2.211   6.532  19.733  0.00  0.00    +0.000 N 
ENDROOT
BRANCH   7  10
ATOM     10  C   UNL     1       4.600   5.416  17.299  0.00  0.00    +0.000 A 
ATOM     11  C   UNL     1       5.886   5.952  17.344  0.00  0.00    +0.000 A 
ATOM     12  C   UNL     1       6.764   5.772  16.305  0.00  0.00    +0.000 A 
ATOM     13  C   UNL     1       6.425   5.082  15.241  0.00  0.00    +0.000 A 
ATOM     14  C   UNL     1       7.410   5.025  14.394  0.00  0.00    +0.000 A 
ATOM     15  C   UNL     1       7.108   4.324  13.316  0.00  0.00    +0.000 A 
ATOM     16  C   UNL     1       6.851   3.662  12.268  0.00  0.00    +0.000 A 
ATOM     17  C   UNL     1       5.476   3.835  13.604  0.00  0.00    +0.000 A 
ATOM     18  C   UNL     1       5.217   4.499  15.044  0.00  0.00    +0.000 A 
ATOM     19  C   UNL     1       4.262   4.698  16.146  0.00  0.00    +0.000 A 
ENDBRANCH   7  10
BRANCH   9  20
ATOM     20  C   UNL     1       1.319   7.565  20.276  0.00  0.00    +0.000 C 
ATOM     21  C   UNL     1       1.760   8.126  21.636  0.00  0.00    +0.000 C 
ATOM     22  C   UNL     1       1.056   9.476  21.758  0.00  0.00    +0.000 C 
ATOM     23  C   UNL     1       0.896   9.986  20.317  0.00  0.00    +0.000 C 
ATOM     24  C   UNL     1       1.340   8.834  19.415  0.00  0.00    +0.000 C 
ENDBRANCH   9  20
BRANCH   1  25
ATOM     25  N   UNL     1       4.686   2.710  18.837  0.00  0.00    +0.000 N 
ATOM     26  H   UNL     1       4.783   2.925  17.858  0.00  0.00    +0.000 HD
ATOM     27  H   UNL     1       5.289   1.978  19.190  0.00  0.00    +0.000 HD
ENDBRANCH   1  25
TORSDOF 3
ENDMDL
MODEL 3
REMARK VINA RESULT:      -8.7      0.599      1.464
REMARK  Name = 
REMARK  3 active torsions:
REMARK  status: ('A' for Active; 'I' for Inactive)
REMARK    1  A    between atoms: N_1  and  C_2
REMARK    2  A    between atoms: C_8  and  C_9
REMARK    3  A    between atoms: N_20  and  C_21
REMARK                            x       y       z     vdW  Elec       q    Type
REMARK                         _______ _______ _______ _____ _____    ______ ____
ROOT
ATOM      1  C   UNL     1       1.719   3.795  19.329  0.00  0.00    +0.000 A 
ATOM      2  N   UNL     1       1.673   2.437  19.335  0.00  0.00    +0.000 NA
ATOM      3  C   UNL     1       2.565   1.744  18.592  0.00  0.00    +0.000 A 
ATOM      4  N   UNL     1       3.538   2.247  17.805  0.00  0.00    +0.000 NA
ATOM      5  C   UNL     1       3.568   3.597  17.816  0.00  0.00    +0.000 A 
ATOM      6  C   UNL     1       2.705   4.398  18.541  0.00  0.00    +0.000 A 
ATOM      7  C   UNL     1       3.066   5.732  18.274  0.00  0.00    +0.000 A 
ATOM      8  N   UNL     1       4.108   5.777  17.421  0.00  0.00    +0.000 NA
ATOM      9  N   UNL     1       4.415   4.465  17.153  0.00  0.00    +0.000 N 
ENDROOT
BRANCH   7  10
ATOM     10  C   UNL     1       2.405   6.910  18.844  0.00  0.00    +0.000 A 
ATOM     11  C   UNL     1       2.189   7.013  20.218  0.00  0.00    +0.000 A 
ATOM     12  C   UNL     1       1.554   8.105  20.753  0.00  0.00    +0.000 A 
ATOM     13  C   UNL     1       1.139   9.090  19.992  0.00  0.00    +0.000 A 
ATOM     14  C   UNL     1       0.583  10.024  20.707  0.00  0.00    +0.000 A 
ATOM     15  C   UNL     1       0.165  11.040  19.973  0.00  0.00    +0.000 A 
ATOM     16  C   UNL     1      -0.250  12.029  19.300  0.00  0.00    +0.000 A 
ATOM     17  C   UNL     1       0.587  10.569  18.365  0.00  0.00    +0.000 A 
ATOM     18  C   UNL     1       1.270   9.141  18.644  0.00  0.00    +0.000 A 
ATOM     19  C   UNL     1       1.937   7.968  18.056  0.00  0.00    +0.000 A 
ENDBRANCH   7  10
BRANCH   9  20
ATOM     20  C   UNL     1       5.514   4.114  16.243  0.00  0.00    +0.000 C 
ATOM     21  C   UNL     1       5.133   4.144  14.756  0.00  0.00    +0.000 C 
ATOM     22  C   UNL     1       6.458   4.279  14.007  0.00  0.00    +0.000 C 
ATOM     23  C   UNL     1       7.388   5.049  14.957  0.00  0.00    +0.000 C 
ATOM     24  C   UNL     1       6.631   5.163  16.281  0.00  0.00    +0.000 C 
ENDBRANCH   9  20
BRANCH   1  25
ATOM     25  N   UNL     1       0.819   4.536  20.084  0.00  0.00    +0.000 N 
ATOM     26  H   UNL     1      -0.119   4.216  20.260  0.00  0.00    +0.000 HD
ATOM     27  H   UNL     1       1.060   5.437  20.479  0.00  0.00    +0.000 HD
ENDBRANCH   1  25
TORSDOF 3
ENDMDL
MODEL 4
REMARK VINA RESULT:      -8.5      0.922      1.334
REMARK  Name = 
REMARK  3 active torsions:
REMARK  status: ('A' for Active; 'I' for Inactive)
REMARK    1  A    between atoms: N_1  and  C_2
REMARK    2  A    between atoms: C_8  and  C_9
REMARK    3  A    between atoms: N_20  and  C_21
REMARK                            x       y       z     vdW  Elec       q    Type
REMARK                         _______ _______ _______ _____ _____    ______ ____
ROOT
ATOM      1  C   UNL     1       2.271   4.644  19.539  0.00  0.00    +0.000 A 
ATOM      2  N   UNL     1       2.573   3.319  19.523  0.00  0.00    +0.000 NA
ATOM      3  C   UNL     1       3.526   2.870  18.675  0.00  0.00    +0.000 A 
ATOM      4  N   UNL     1       4.247   3.599  17.799  0.00  0.00    +0.000 NA
ATOM      5  C   UNL     1       3.934   4.912  17.833  0.00  0.00    +0.000 A 
ATOM      6  C   UNL     1       2.980   5.472  18.663  0.00  0.00    +0.000 A 
ATOM      7  C   UNL     1       2.959   6.851  18.386  0.00  0.00    +0.000 A 
ATOM      8  N   UNL     1       3.857   7.155  17.427  0.00  0.00    +0.000 NA
ATOM      9  N   UNL     1       4.456   5.962  17.101  0.00  0.00    +0.000 N 
ENDROOT
BRANCH   7  10
ATOM     10  C   UNL     1       2.086   7.827  19.047  0.00  0.00    +0.000 A 
ATOM     11  C   UNL     1       1.480   8.850  18.319  0.00  0.00    +0.000 A 
ATOM     12  C   UNL     1       0.678   9.777  18.936  0.00  0.00    +0.000 A 
ATOM     13  C   UNL     1       0.448   9.724  20.227  0.00  0.00    +0.000 A 
ATOM     14  C   UNL     1      -0.348  10.684  20.594  0.00  0.00    +0.000 A 
ATOM     15  C   UNL     1      -0.613  10.653  21.888  0.00  0.00    +0.000 A 
ATOM     16  C   UNL     1      -0.886  10.654  23.124  0.00  0.00    +0.000 A 
ATOM     17  C   UNL     1       0.292   9.290  22.447  0.00  0.00    +0.000 A 
ATOM     18  C   UNL     1       0.962   8.796  21.072  0.00  0.00    +0.000 A 
ATOM     19  C   UNL     1       1.836   7.805  20.424  0.00  0.00    +0.000 A 
ENDBRANCH   7  10
BRANCH   9  20
ATOM     20  C   UNL     1       5.502   5.895  16.072  0.00  0.00    +0.000 C 
ATOM     21  C   UNL     1       6.837   5.322  16.570  0.00  0.00    +0.000 C 
ATOM     22  C   UNL     1       7.566   4.855  15.310  0.00  0.00    +0.000 C 
ATOM     23  C   UNL     1       6.459   4.460  14.320  0.00  0.00    +0.000 C 
ATOM     24  C   UNL     1       5.144   4.888  14.973  0.00  0.00    +0.000 C 
ENDBRANCH   9  20
BRANCH   1  25
ATOM     25  N   UNL     1       1.300   5.137  20.402  0.00  0.00    +0.000 N 
ATOM     26  H   UNL     1       0.597   4.543  20.808  0.00  0.00    +0.000 HD
ATOM     27  H   UNL     1       1.246   6.118  20.649  0.00  0.00    +0.000 HD
ENDBRANCH   1  25
TORSDOF 3
ENDMDL
MODEL 5
REMARK VINA RESULT:      -8.0      0.989      1.819
REMARK  Name = 
REMARK  3 active torsions:
REMARK  status: ('A' for Active; 'I' for Inactive)
REMARK    1  A    between atoms: N_1  and  C_2
REMARK    2  A    between atoms: C_8  and  C_9
REMARK    3  A    between atoms: N_20  and  C_21
REMARK                            x       y       z     vdW  Elec       q    Type
REMARK                         _______ _______ _______ _____ _____    ______ ____
ROOT
ATOM      1  C   UNL     1       2.045   4.457  19.409  0.00  0.00    +0.000 A 
ATOM      2  N   UNL     1       2.246   3.120  19.270  0.00  0.00    +0.000 NA
ATOM      3  C   UNL     1       3.165   2.680  18.380  0.00  0.00    +0.000 A 
ATOM      4  N   UNL     1       3.941   3.429  17.571  0.00  0.00    +0.000 NA
ATOM      5  C   UNL     1       3.728   4.754  17.727  0.00  0.00    +0.000 A 
ATOM      6  C   UNL     1       2.816   5.305  18.609  0.00  0.00    +0.000 A 
ATOM      7  C   UNL     1       2.900   6.702  18.459  0.00  0.00    +0.000 A 
ATOM      8  N   UNL     1       3.820   7.023  17.527  0.00  0.00    +0.000 NA
ATOM      9  N   UNL     1       4.329   5.824  17.092  0.00  0.00    +0.000 N 
ENDROOT
BRANCH   7  10
ATOM     10  C   UNL     1       2.101   7.676  19.210  0.00  0.00    +0.000 A 
ATOM     11  C   UNL     1       1.947   7.559  20.591  0.00  0.00    +0.000 A 
ATOM     12  C   UNL     1       1.185   8.458  21.295  0.00  0.00    +0.000 A 
ATOM     13  C   UNL     1       0.586   9.458  20.694  0.00  0.00    +0.000 A 
ATOM     14  C   UNL     1      -0.065  10.189  21.551  0.00  0.00    +0.000 A 
ATOM     15  C   UNL     1      -0.670  11.216  20.981  0.00  0.00    +0.000 A 
ATOM     16  C   UNL     1      -1.264  12.209  20.468  0.00  0.00    +0.000 A 
ATOM     17  C   UNL     1      -0.270  11.036  19.309  0.00  0.00    +0.000 A 
ATOM     18  C   UNL     1       0.635   9.709  19.362  0.00  0.00    +0.000 A 
ATOM     19  C   UNL     1       1.437   8.743  18.594  0.00  0.00    +0.000 A 
ENDBRANCH   7  10
BRANCH   9  20
ATOM     20  C   UNL     1       5.369   5.773  16.056  0.00  0.00    +0.000 C 
ATOM     21  C   UNL     1       6.720   5.233  16.549  0.00  0.00    +0.000 C 
ATOM     22  C   UNL     1       7.451   4.774  15.288  0.00  0.00    +0.000 C 
ATOM     23  C   UNL     1       6.347   4.347  14.308  0.00  0.00    +0.000 C 
ATOM     24  C   UNL     1       5.027   4.750  14.966  0.00  0.00    +0.000 C 
ENDBRANCH   9  20
BRANCH   1  25
ATOM     25  N   UNL     1       1.111   4.940  20.317  0.00  0.00    +0.000 N 
ATOM     26  H   UNL     1       0.172   5.175  20.041  0.00  0.00    +0.000 HD
ATOM     27  H   UNL     1       1.337   5.092  21.292  0.00  0.00    +0.000 HD
ENDBRANCH   1  25
TORSDOF 3
ENDMDL
MODEL 6
REMARK VINA RESULT:      -8.0      1.492      1.834
REMARK  Name = 
REMARK  3 active torsions:
REMARK  status: ('A' for Active; 'I' for Inactive)
REMARK    1  A    between atoms: N_1  and  C_2
REMARK    2  A    between atoms: C_8  and  C_9
REMARK    3  A    between atoms: N_20  and  C_21
REMARK                            x       y       z     vdW  Elec       q    Type
REMARK                         _______ _______ _______ _____ _____    ______ ____
ROOT
ATOM      1  C   UNL     1       1.081   4.185  20.091  0.00  0.00    +0.000 A 
ATOM      2  N   UNL     1       0.991   2.831  20.030  0.00  0.00    +0.000 NA
ATOM      3  C   UNL     1       2.072   2.115  19.644  0.00  0.00    +0.000 A 
ATOM      4  N   UNL     1       3.282   2.593  19.290  0.00  0.00    +0.000 NA
ATOM      5  C   UNL     1       3.351   3.939  19.360  0.00  0.00    +0.000 A 
ATOM      6  C   UNL     1       2.307   4.761  19.745  0.00  0.00    +0.000 A 
ATOM      7  C   UNL     1       2.785   6.083  19.679  0.00  0.00    +0.000 A 
ATOM      8  N   UNL     1       4.070   6.102  19.272  0.00  0.00    +0.000 NA
ATOM      9  N   UNL     1       4.411   4.784  19.088  0.00  0.00    +0.000 N 
ENDROOT
BRANCH   7  10
ATOM     10  C   UNL     1       1.999   7.277  20.007  0.00  0.00    +0.000 A 
ATOM     11  C   UNL     1       1.746   8.252  19.043  0.00  0.00    +0.000 A 
ATOM     12  C   UNL     1       1.027   9.380  19.351  0.00  0.00    +0.000 A 
ATOM     13  C   UNL     1       0.547   9.572  20.557  0.00  0.00    +0.000 A 
ATOM     14  C   UNL     1      -0.111  10.692  20.619  0.00  0.00    +0.000 A 
ATOM     15  C   UNL     1      -0.622  10.910  21.818  0.00  0.00    +0.000 A 
ATOM     16  C   UNL     1      -1.123  11.152  22.955  0.00  0.00    +0.000 A 
ATOM     17  C   UNL     1      -0.112   9.529  22.725  0.00  0.00    +0.000 A 
ATOM     18  C   UNL     1       0.706   8.722  21.602  0.00  0.00    +0.000 A 
ATOM     19  C   UNL     1       1.488   7.516  21.288  0.00  0.00    +0.000 A 
ENDBRANCH   7  10
BRANCH   9  20
ATOM     20  C   UNL     1       5.756   4.404  18.636  0.00  0.00    +0.000 C 
ATOM     21  C   UNL     1       5.967   4.528  17.120  0.00  0.00    +0.000 C 
ATOM     22  C   UNL     1       7.481   4.611  16.933  0.00  0.00    +0.000 C 
ATOM     23  C   UNL     1       8.015   5.274  18.212  0.00  0.00    +0.000 C 
ATOM     24  C   UNL     1       6.820   5.376  19.160  0.00  0.00    +0.000 C 
ENDBRANCH   9  20
BRANCH   1  25
ATOM     25  N   UNL     1      -0.010   4.948  20.488  0.00  0.00    +0.000 N 
ATOM     26  H   UNL     1      -0.760   5.176  19.856  0.00  0.00    +0.000 HD
ATOM     27  H   UNL     1      -0.094   5.322  21.426  0.00  0.00    +0.000 HD
ENDBRANCH   1  25
TORSDOF 3
ENDMDL
MODEL 7
REMARK VINA RESULT:      -7.7      2.822      7.668
REMARK  Name = 
REMARK  3 active torsions:
REMARK  status: ('A' for Active; 'I' for Inactive)
REMARK    1  A    between atoms: N_1  and  C_2
REMARK    2  A    between atoms: C_8  and  C_9
REMARK    3  A    between atoms: N_20  and  C_21
REMARK                            x       y       z     vdW  Elec       q    Type
REMARK                         _______ _______ _______ _____ _____    ______ ____
ROOT
ATOM      1  C   UNL     1       1.417   8.008  20.977  0.00  0.00    +0.000 A 
ATOM      2  N   UNL     1       0.821   8.526  22.082  0.00  0.00    +0.000 NA
ATOM      3  C   UNL     1       0.356   9.796  22.048  0.00  0.00    +0.000 A 
ATOM      4  N   UNL     1       0.413  10.657  21.011  0.00  0.00    +0.000 NA
ATOM      5  C   UNL     1       1.006  10.121  19.922  0.00  0.00    +0.000 A 
ATOM      6  C   UNL     1       1.511   8.836  19.854  0.00  0.00    +0.000 A 
ATOM      7  C   UNL     1       2.044   8.677  18.561  0.00  0.00    +0.000 A 
ATOM      8  N   UNL     1       1.885   9.805  17.842  0.00  0.00    +0.000 NA
ATOM      9  N   UNL     1       1.239  10.682  18.680  0.00  0.00    +0.000 N 
ENDROOT
BRANCH   7  10
ATOM     10  C   UNL     1       2.682   7.454  18.061  0.00  0.00    +0.000 A 
ATOM     11  C   UNL     1       2.075   6.211  18.233  0.00  0.00    +0.000 A 
ATOM     12  C   UNL     1       2.677   5.063  17.784  0.00  0.00    +0.000 A 
ATOM     13  C   UNL     1       3.836   5.099  17.170  0.00  0.00    +0.000 A 
ATOM     14  C   UNL     1       4.210   3.904  16.818  0.00  0.00    +0.000 A 
ATOM     15  C   UNL     1       5.369   3.905  16.184  0.00  0.00    +0.000 A 
ATOM     16  C   UNL     1       6.479   3.869  15.575  0.00  0.00    +0.000 A 
ATOM     17  C   UNL     1       5.810   5.576  16.163  0.00  0.00    +0.000 A 
ATOM     18  C   UNL     1       4.554   6.224  16.927  0.00  0.00    +0.000 A 
ATOM     19  C   UNL     1       3.924   7.460  17.418  0.00  0.00    +0.000 A 
ENDBRANCH   7  10
BRANCH   9  20
ATOM     20  C   UNL     1       0.894  12.039  18.239  0.00  0.00    +0.000 C 
ATOM     21  C   UNL     1      -0.472  12.534  18.736  0.00  0.00    +0.000 C 
ATOM     22  C   UNL     1      -0.406  14.057  18.636  0.00  0.00    +0.000 C 
ATOM     23  C   UNL     1       1.074  14.416  18.840  0.00  0.00    +0.000 C 
ATOM     24  C   UNL     1       1.827  13.086  18.861  0.00  0.00    +0.000 C 
ENDBRANCH   9  20
BRANCH   1  25
ATOM     25  N   UNL     1       1.901   6.706  20.980  0.00  0.00    +0.000 N 
ATOM     26  H   UNL     1       1.308   5.918  21.177  0.00  0.00    +0.000 HD
ATOM     27  H   UNL     1       2.875   6.492  20.799  0.00  0.00    +0.000 HD
ENDBRANCH   1  25
TORSDOF 3
ENDMDL
MODEL 8
REMARK VINA RESULT:      -7.6      3.663      7.929
REMARK  Name = 
REMARK  3 active torsions:
REMARK  status: ('A' for Active; 'I' for Inactive)
REMARK    1  A    between atoms: N_1  and  C_2
REMARK    2  A    between atoms: C_8  and  C_9
REMARK    3  A    between atoms: N_20  and  C_21
REMARK                            x       y       z     vdW  Elec       q    Type
REMARK                         _______ _______ _______ _____ _____    ______ ____
ROOT
ATOM      1  C   UNL     1       0.899   9.776  21.410  0.00  0.00    +0.000 A 
ATOM      2  N   UNL     1       0.339  10.587  22.346  0.00  0.00    +0.000 NA
ATOM      3  C   UNL     1      -0.662  11.421  21.983  0.00  0.00    +0.000 A 
ATOM      4  N   UNL     1      -1.200  11.562  20.754  0.00  0.00    +0.000 NA
ATOM      5  C   UNL     1      -0.632  10.746  19.840  0.00  0.00    +0.000 A 
ATOM      6  C   UNL     1       0.393   9.857  20.109  0.00  0.00    +0.000 A 
ATOM      7  C   UNL     1       0.697   9.209  18.898  0.00  0.00    +0.000 A 
ATOM      8  N   UNL     1      -0.096   9.663  17.907  0.00  0.00    +0.000 NA
ATOM      9  N   UNL     1      -0.913  10.597  18.495  0.00  0.00    +0.000 N 
ENDROOT
BRANCH   7  10
ATOM     10  C   UNL     1       1.730   8.181  18.732  0.00  0.00    +0.000 A 
ATOM     11  C   UNL     1       2.763   8.350  17.811  0.00  0.00    +0.000 A 
ATOM     12  C   UNL     1       3.722   7.383  17.639  0.00  0.00    +0.000 A 
ATOM     13  C   UNL     1       3.701   6.274  18.342  0.00  0.00    +0.000 A 
ATOM     14  C   UNL     1       4.707   5.511  18.029  0.00  0.00    +0.000 A 
ATOM     15  C   UNL     1       4.726   4.391  18.729  0.00  0.00    +0.000 A 
ATOM     16  C   UNL     1       4.774   3.306  19.379  0.00  0.00    +0.000 A 
ATOM     17  C   UNL     1       3.328   4.526  19.736  0.00  0.00    +0.000 A 
ATOM     18  C   UNL     1       2.767   5.959  19.272  0.00  0.00    +0.000 A 
ATOM     19  C   UNL     1       1.726   6.983  19.455  0.00  0.00    +0.000 A 
ENDBRANCH   7  10
BRANCH   9  20
ATOM     20  C   UNL     1      -1.925  11.320  17.714  0.00  0.00    +0.000 C 
ATOM     21  C   UNL     1      -2.317  10.629  16.399  0.00  0.00    +0.000 C 
ATOM     22  C   UNL     1      -3.679  11.215  16.031  0.00  0.00    +0.000 C 
ATOM     23  C   UNL     1      -4.346  11.573  17.369  0.00  0.00    +0.000 C 
ATOM     24  C   UNL     1      -3.275  11.356  18.439  0.00  0.00    +0.000 C 
ENDBRANCH   9  20
BRANCH   1  25
ATOM     25  N   UNL     1       1.926   8.906  21.753  0.00  0.00    +0.000 N 
ATOM     26  H   UNL     1       2.593   9.127  22.473  0.00  0.00    +0.000 HD
ATOM     27  H   UNL     1       2.060   8.018  21.284  0.00  0.00    +0.000 HD
ENDBRANCH   1  25
TORSDOF 3
ENDMDL
MODEL 9
REMARK VINA RESULT:      -7.6      3.684      8.076
REMARK  Name = 
REMARK  3 active torsions:
REMARK  status: ('A' for Active; 'I' for Inactive)
REMARK    1  A    between atoms: N_1  and  C_2
REMARK    2  A    between atoms: C_8  and  C_9
REMARK    3  A    between atoms: N_20  and  C_21
REMARK                            x       y       z     vdW  Elec       q    Type
REMARK                         _______ _______ _______ _____ _____    ______ ____
ROOT
ATOM      1  C   UNL     1       0.886   9.846  21.454  0.00  0.00    +0.000 A 
ATOM      2  N   UNL     1       0.310  10.661  22.375  0.00  0.00    +0.000 NA
ATOM      3  C   UNL     1      -0.699  11.478  21.995  0.00  0.00    +0.000 A 
ATOM      4  N   UNL     1      -1.229  11.598  20.761  0.00  0.00    +0.000 NA
ATOM      5  C   UNL     1      -0.645  10.778  19.861  0.00  0.00    +0.000 A 
ATOM      6  C   UNL     1       0.389   9.905  20.148  0.00  0.00    +0.000 A 
ATOM      7  C   UNL     1       0.709   9.245  18.947  0.00  0.00    +0.000 A 
ATOM      8  N   UNL     1      -0.082   9.677  17.945  0.00  0.00    +0.000 NA
ATOM      9  N   UNL     1      -0.915  10.609  18.516  0.00  0.00    +0.000 N 
ENDROOT
BRANCH   7  10
ATOM     10  C   UNL     1       1.756   8.228  18.801  0.00  0.00    +0.000 A 
ATOM     11  C   UNL     1       1.830   7.149  19.682  0.00  0.00    +0.000 A 
ATOM     12  C   UNL     1       2.819   6.205  19.560  0.00  0.00    +0.000 A 
ATOM     13  C   UNL     1       3.718   6.283  18.608  0.00  0.00    +0.000 A 
ATOM     14  C   UNL     1       4.544   5.280  18.671  0.00  0.00    +0.000 A 
ATOM     15  C   UNL     1       5.457   5.318  17.716  0.00  0.00    +0.000 A 
ATOM     16  C   UNL     1       6.347   5.324  16.817  0.00  0.00    +0.000 A 
ATOM     17  C   UNL     1       5.063   6.758  16.846  0.00  0.00    +0.000 A 
ATOM     18  C   UNL     1       3.784   7.266  17.677  0.00  0.00    +0.000 A 
ATOM     19  C   UNL     1       2.737   8.292  17.806  0.00  0.00    +0.000 A 
ENDBRANCH   7  10
BRANCH   9  20
ATOM     20  C   UNL     1      -1.929  11.311  17.719  0.00  0.00    +0.000 C 
ATOM     21  C   UNL     1      -2.299  10.602  16.407  0.00  0.00    +0.000 C 
ATOM     22  C   UNL     1      -3.666  11.164  16.021  0.00  0.00    +0.000 C 
ATOM     23  C   UNL     1      -4.350  11.525  17.350  0.00  0.00    +0.000 C 
ATOM     24  C   UNL     1      -3.286  11.333  18.431  0.00  0.00    +0.000 C 
ENDBRANCH   9  20
BRANCH   1  25
ATOM     25  N   UNL     1       1.921   8.992  21.814  0.00  0.00    +0.000 N 
ATOM     26  H   UNL     1       2.864   9.322  21.940  0.00  0.00    +0.000 HD
ATOM     27  H   UNL     1       1.778   7.999  21.952  0.00  0.00    +0.000 HD
ENDBRANCH   1  25
TORSDOF 3
ENDMDL
