MODEL 1
REMARK VINA RESULT:      -7.9      0.000      0.000
REMARK  Name = 
REMARK  4 active torsions:
REMARK  status: ('A' for Active; 'I' for Inactive)
REMARK    1  A    between atoms: C_2  and  C_11
REMARK    2  A    between atoms: N_3  and  C_4
REMARK    3  A    between atoms: C_4  and  C_5
REMARK    4  A    between atoms: N_18  and  C_19
REMARK                            x       y       z     vdW  Elec       q    Type
REMARK                         _______ _______ _______ _____ _____    ______ ____
ROOT
ATOM      1  C   UNL     1       4.958   4.882  16.833  0.00  0.00    +0.000 C 
ATOM      2  C   UNL     1       4.364   3.538  17.240  0.00  0.00    +0.000 C 
ATOM      3  C   UNL     1       4.571   3.498  18.747  0.00  0.00    +0.000 C 
ATOM      4  C   UNL     1       3.396   4.097  19.540  0.00  0.00    +0.000 C 
ATOM      5  N   UNL     1       3.199   5.547  19.359  0.00  0.00    +0.000 N 
ATOM      6  C   UNL     1       2.188   6.104  20.145  0.00  0.00    +0.000 C 
ATOM      7  O   UNL     1       1.455   5.417  20.851  0.00  0.00    +0.000 OA
ATOM      8  N   UNL     1       2.090   7.473  20.110  0.00  0.00    +0.000 N 
ATOM      9  C   UNL     1       4.341   6.326  18.852  0.00  0.00    +0.000 C 
ATOM     10  C   UNL     1       5.435   5.490  18.149  0.00  0.00    +0.000 C 
ATOM     11  O   UNL     1       5.731   4.330  18.959  0.00  0.00    +0.000 OA
ATOM     12  H   UNL     1       2.487   7.951  19.318  0.00  0.00    +0.000 HD
ENDROOT
BRANCH   8  13
ATOM     13  C   UNL     1       1.058   8.170  20.859  0.00  0.00    +0.000 C 
ATOM     14  C   UNL     1       1.578   8.780  22.156  0.00  0.00    +0.000 C 
ATOM     15  C   UNL     1       0.469   9.747  22.538  0.00  0.00    +0.000 C 
ATOM     16  C   UNL     1       0.031  10.363  21.213  0.00  0.00    +0.000 C 
ATOM     17  C   UNL     1       0.452   9.371  20.121  0.00  0.00    +0.000 C 
ENDBRANCH   8  13
BRANCH   1  19
ATOM     18  O   UNL     1       7.244   4.492  16.276  0.00  0.00    +0.000 OA
ATOM     19  C   UNL     1       6.119   4.739  15.858  0.00  0.00    +0.000 C 
ATOM     20  N   UNL     1       5.834   4.908  14.527  0.00  0.00    +0.000 N 
ATOM     21  H   UNL     1       4.864   5.024  14.235  0.00  0.00    +0.000 HD
BRANCH  20  22
ATOM     22  C   UNL     1       6.848   4.786  13.509  0.00  0.00    +0.000 C 
BRANCH  22  23
ATOM     23  C   UNL     1       6.560   3.656  12.553  0.00  0.00    +0.000 A 
ATOM     24  C   UNL     1       7.612   2.972  11.926  0.00  0.00    +0.000 A 
ATOM     25  C   UNL     1       7.350   1.914  11.049  0.00  0.00    +0.000 A 
ATOM     26  C   UNL     1       6.033   1.532  10.795  0.00  0.00    +0.000 A 
ATOM     27  C   UNL     1       4.982   2.203  11.415  0.00  0.00    +0.000 A 
ATOM     28  C   UNL     1       5.243   3.264  12.286  0.00  0.00    +0.000 A 
ENDBRANCH  22  23
ENDBRANCH  20  22
ENDBRANCH   1  19
TORSDOF 4
ENDMDL
MODEL 2
REMARK VINA RESULT:      -7.7      5.075      8.454
REMARK  Name = 
REMARK  4 active torsions:
REMARK  status: ('A' for Active; 'I' for Inactive)
REMARK    1  A    between atoms: C_2  and  C_11
REMARK    2  A    between atoms: N_3  and  C_4
REMARK    3  A    between atoms: C_4  and  C_5
REMARK    4  A    between atoms: N_18  and  C_19
REMARK                            x       y       z     vdW  Elec       q    Type
REMARK                         _______ _______ _______ _____ _____    ______ ____
ROOT
ATOM      1  C   UNL     1       0.405   9.672  19.707  0.00  0.00    +0.000 C 
ATOM      2  C   UNL     1       0.859  10.520  20.890  0.00  0.00    +0.000 C 
ATOM      3  C   UNL     1       0.780  11.945  20.361  0.00  0.00    +0.000 C 
ATOM      4  C   UNL     1      -0.590  12.606  20.593  0.00  0.00    +0.000 C 
ATOM      5  N   UNL     1      -1.707  12.004  19.844  0.00  0.00    +0.000 N 
ATOM      6  C   UNL     1      -2.931  12.659  19.988  0.00  0.00    +0.000 C 
ATOM      7  O   UNL     1      -3.083  13.599  20.764  0.00  0.00    +0.000 OA
ATOM      8  N   UNL     1      -3.948  12.211  19.180  0.00  0.00    +0.000 N 
ATOM      9  C   UNL     1      -1.368  11.191  18.663  0.00  0.00    +0.000 C 
ATOM     10  C   UNL     1       0.095  10.694  18.617  0.00  0.00    +0.000 C 
ATOM     11  O   UNL     1       0.974  11.795  18.938  0.00  0.00    +0.000 OA
ATOM     12  H   UNL     1      -3.871  11.281  18.803  0.00  0.00    +0.000 HD
ENDROOT
BRANCH   8  13
ATOM     13  C   UNL     1      -5.279  12.790  19.260  0.00  0.00    +0.000 C 
ATOM     14  C   UNL     1      -6.066  12.647  17.962  0.00  0.00    +0.000 C 
ATOM     15  C   UNL     1      -7.490  12.948  18.401  0.00  0.00    +0.000 C 
ATOM     16  C   UNL     1      -7.618  12.273  19.763  0.00  0.00    +0.000 C 
ATOM     17  C   UNL     1      -6.189  12.125  20.301  0.00  0.00    +0.000 C 
ENDBRANCH   8  13
BRANCH   1  19
ATOM     18  O   UNL     1       2.040   8.876  18.165  0.00  0.00    +0.000 OA
ATOM     19  C   UNL     1       1.478   8.698  19.238  0.00  0.00    +0.000 C 
ATOM     20  N   UNL     1       1.758   7.640  20.066  0.00  0.00    +0.000 N 
ATOM     21  H   UNL     1       1.320   7.596  20.985  0.00  0.00    +0.000 HD
BRANCH  20  22
ATOM     22  C   UNL     1       2.761   6.659  19.734  0.00  0.00    +0.000 C 
BRANCH  22  23
ATOM     23  C   UNL     1       2.162   5.299  19.478  0.00  0.00    +0.000 A 
ATOM     24  C   UNL     1       1.564   4.579  20.523  0.00  0.00    +0.000 A 
ATOM     25  C   UNL     1       0.994   3.324  20.288  0.00  0.00    +0.000 A 
ATOM     26  C   UNL     1       1.016   2.781  19.004  0.00  0.00    +0.000 A 
ATOM     27  C   UNL     1       1.604   3.488  17.958  0.00  0.00    +0.000 A 
ATOM     28  C   UNL     1       2.179   4.740  18.194  0.00  0.00    +0.000 A 
ENDBRANCH  22  23
ENDBRANCH  20  22
ENDBRANCH   1  19
TORSDOF 4
ENDMDL
MODEL 3
REMARK VINA RESULT:      -7.7      5.024      8.199
REMARK  Name = 
REMARK  4 active torsions:
REMARK  status: ('A' for Active; 'I' for Inactive)
REMARK    1  A    between atoms: C_2  and  C_11
REMARK    2  A    between atoms: N_3  and  C_4
REMARK    3  A    between atoms: C_4  and  C_5
REMARK    4  A    between atoms: N_18  and  C_19
REMARK                            x       y       z     vdW  Elec       q    Type
REMARK                         _______ _______ _______ _____ _____    ______ ____
ROOT
ATOM      1  C   UNL     1       0.310   9.348  20.530  0.00  0.00    +0.000 C 
ATOM      2  C   UNL     1      -0.401   8.608  21.657  0.00  0.00    +0.000 C 
ATOM      3  C   UNL     1      -0.040   9.413  22.898  0.00  0.00    +0.000 C 
ATOM      4  C   UNL     1      -1.037  10.545  23.202  0.00  0.00    +0.000 C 
ATOM      5  N   UNL     1      -1.068  11.630  22.206  0.00  0.00    +0.000 N 
ATOM      6  C   UNL     1      -1.909  12.697  22.528  0.00  0.00    +0.000 C 
ATOM      7  O   UNL     1      -2.643  12.678  23.512  0.00  0.00    +0.000 OA
ATOM      8  N   UNL     1      -1.837  13.788  21.695  0.00  0.00    +0.000 N 
ATOM      9  C   UNL     1       0.102  11.771  21.322  0.00  0.00    +0.000 C 
ATOM     10  C   UNL     1       0.999  10.516  21.231  0.00  0.00    +0.000 C 
ATOM     11  O   UNL     1       1.232  10.008  22.564  0.00  0.00    +0.000 OA
ATOM     12  H   UNL     1      -1.471  13.645  20.769  0.00  0.00    +0.000 HD
ENDROOT
BRANCH   8  13
ATOM     13  C   UNL     1      -2.686  14.948  21.905  0.00  0.00    +0.000 C 
ATOM     14  C   UNL     1      -2.025  16.252  21.471  0.00  0.00    +0.000 C 
ATOM     15  C   UNL     1      -3.198  17.217  21.413  0.00  0.00    +0.000 C 
ATOM     16  C   UNL     1      -4.339  16.394  20.823  0.00  0.00    +0.000 C 
ATOM     17  C   UNL     1      -3.989  14.925  21.095  0.00  0.00    +0.000 C 
ENDBRANCH   8  13
BRANCH   1  19
ATOM     18  O   UNL     1       1.717   8.786  18.690  0.00  0.00    +0.000 OA
ATOM     19  C   UNL     1       1.332   8.478  19.810  0.00  0.00    +0.000 C 
ATOM     20  N   UNL     1       1.771   7.361  20.474  0.00  0.00    +0.000 N 
ATOM     21  H   UNL     1       1.480   7.206  21.439  0.00  0.00    +0.000 HD
BRANCH  20  22
ATOM     22  C   UNL     1       2.745   6.466  19.899  0.00  0.00    +0.000 C 
BRANCH  22  23
ATOM     23  C   UNL     1       2.150   5.125  19.555  0.00  0.00    +0.000 A 
ATOM     24  C   UNL     1       1.401   4.416  20.506  0.00  0.00    +0.000 A 
ATOM     25  C   UNL     1       0.834   3.178  20.187  0.00  0.00    +0.000 A 
ATOM     26  C   UNL     1       1.013   2.639  18.914  0.00  0.00    +0.000 A 
ATOM     27  C   UNL     1       1.753   3.335  17.961  0.00  0.00    +0.000 A 
ATOM     28  C   UNL     1       2.323   4.570  18.281  0.00  0.00    +0.000 A 
ENDBRANCH  22  23
ENDBRANCH  20  22
ENDBRANCH   1  19
TORSDOF 4
ENDMDL
MODEL 4
REMARK VINA RESULT:      -7.6      5.099      8.176
REMARK  Name = 
REMARK  4 active torsions:
REMARK  status: ('A' for Active; 'I' for Inactive)
REMARK    1  A    between atoms: C_2  and  C_11
REMARK    2  A    between atoms: N_3  and  C_4
REMARK    3  A    between atoms: C_4  and  C_5
REMARK    4  A    between atoms: N_18  and  C_19
REMARK                            x       y       z     vdW  Elec       q    Type
REMARK                         _______ _______ _______ _____ _____    ______ ____
ROOT
ATOM      1  C   UNL     1       0.313   9.434  20.466  0.00  0.00    +0.000 C 
ATOM      2  C   UNL     1      -0.407   8.679  21.578  0.00  0.00    +0.000 C 
ATOM      3  C   UNL     1      -0.008   9.433  22.838  0.00  0.00    +0.000 C 
ATOM      4  C   UNL     1      -0.967  10.583  23.191  0.00  0.00    +0.000 C 
ATOM      5  N   UNL     1      -0.977  11.701  22.230  0.00  0.00    +0.000 N 
ATOM      6  C   UNL     1      -1.782  12.781  22.596  0.00  0.00    +0.000 C 
ATOM      7  O   UNL     1      -2.505  12.753  23.588  0.00  0.00    +0.000 OA
ATOM      8  N   UNL     1      -1.687  13.895  21.798  0.00  0.00    +0.000 N 
ATOM      9  C   UNL     1       0.187  11.835  21.337  0.00  0.00    +0.000 C 
ATOM     10  C   UNL     1       1.044  10.557  21.195  0.00  0.00    +0.000 C 
ATOM     11  O   UNL     1       1.277  10.001  22.508  0.00  0.00    +0.000 OA
ATOM     12  H   UNL     1      -1.335  13.772  20.863  0.00  0.00    +0.000 HD
ENDROOT
BRANCH   8  13
ATOM     13  C   UNL     1      -2.498  15.073  22.055  0.00  0.00    +0.000 C 
ATOM     14  C   UNL     1      -1.685  16.247  22.589  0.00  0.00    +0.000 C 
ATOM     15  C   UNL     1      -2.633  17.421  22.404  0.00  0.00    +0.000 C 
ATOM     16  C   UNL     1      -3.302  17.160  21.059  0.00  0.00    +0.000 C 
ATOM     17  C   UNL     1      -3.175  15.652  20.806  0.00  0.00    +0.000 C 
ENDBRANCH   8  13
BRANCH   1  19
ATOM     18  O   UNL     1       1.631   8.854  18.565  0.00  0.00    +0.000 OA
ATOM     19  C   UNL     1       1.300   8.557  19.706  0.00  0.00    +0.000 C 
ATOM     20  N   UNL     1       1.772   7.447  20.360  0.00  0.00    +0.000 N 
ATOM     21  H   UNL     1       1.528   7.302  21.339  0.00  0.00    +0.000 HD
BRANCH  20  22
ATOM     22  C   UNL     1       2.718   6.548  19.747  0.00  0.00    +0.000 C 
BRANCH  22  23
ATOM     23  C   UNL     1       2.124   5.186  19.490  0.00  0.00    +0.000 A 
ATOM     24  C   UNL     1       2.081   4.665  18.189  0.00  0.00    +0.000 A 
ATOM     25  C   UNL     1       1.543   3.396  17.948  0.00  0.00    +0.000 A 
ATOM     26  C   UNL     1       1.046   2.639  19.008  0.00  0.00    +0.000 A 
ATOM     27  C   UNL     1       1.086   3.147  20.305  0.00  0.00    +0.000 A 
ATOM     28  C   UNL     1       1.618   4.417  20.545  0.00  0.00    +0.000 A 
ENDBRANCH  22  23
ENDBRANCH  20  22
ENDBRANCH   1  19
TORSDOF 4
ENDMDL
MODEL 5
REMARK VINA RESULT:      -7.4      1.560      1.894
REMARK  Name = 
REMARK  4 active torsions:
REMARK  status: ('A' for Active; 'I' for Inactive)
REMARK    1  A    between atoms: C_2  and  C_11
REMARK    2  A    between atoms: N_3  and  C_4
REMARK    3  A    between atoms: C_4  and  C_5
REMARK    4  A    between atoms: N_18  and  C_19
REMARK                            x       y       z     vdW  Elec       q    Type
REMARK                         _______ _______ _______ _____ _____    ______ ____
ROOT
ATOM      1  C   UNL     1       4.521   4.985  16.676  0.00  0.00    +0.000 C 
ATOM      2  C   UNL     1       4.203   4.082  17.862  0.00  0.00    +0.000 C 
ATOM      3  C   UNL     1       4.634   4.908  19.066  0.00  0.00    +0.000 C 
ATOM      4  C   UNL     1       3.513   5.802  19.625  0.00  0.00    +0.000 C 
ATOM      5  N   UNL     1       3.076   6.886  18.728  0.00  0.00    +0.000 N 
ATOM      6  C   UNL     1       2.121   7.748  19.271  0.00  0.00    +0.000 C 
ATOM      7  O   UNL     1       1.611   7.550  20.371  0.00  0.00    +0.000 OA
ATOM      8  N   UNL     1       1.814   8.853  18.515  0.00  0.00    +0.000 N 
ATOM      9  C   UNL     1       4.001   7.289  17.654  0.00  0.00    +0.000 C 
ATOM     10  C   UNL     1       5.091   6.248  17.314  0.00  0.00    +0.000 C 
ATOM     11  O   UNL     1       5.675   5.762  18.544  0.00  0.00    +0.000 OA
ATOM     12  H   UNL     1       2.013   8.815  17.529  0.00  0.00    +0.000 HD
ENDROOT
BRANCH   8  13
ATOM     13  C   UNL     1       0.811   9.808  18.957  0.00  0.00    +0.000 C 
ATOM     14  C   UNL     1       1.299  11.251  18.891  0.00  0.00    +0.000 C 
ATOM     15  C   UNL     1       0.007  12.045  19.008  0.00  0.00    +0.000 C 
ATOM     16  C   UNL     1      -0.998  11.258  18.174  0.00  0.00    +0.000 C 
ATOM     17  C   UNL     1      -0.459   9.823  18.097  0.00  0.00    +0.000 C 
ENDBRANCH   8  13
BRANCH   1  19
ATOM     18  O   UNL     1       6.011   3.263  15.966  0.00  0.00    +0.000 OA
ATOM     19  C   UNL     1       5.533   4.364  15.722  0.00  0.00    +0.000 C 
ATOM     20  N   UNL     1       5.870   5.099  14.613  0.00  0.00    +0.000 N 
ATOM     21  H   UNL     1       5.373   5.968  14.420  0.00  0.00    +0.000 HD
BRANCH  20  22
ATOM     22  C   UNL     1       6.809   4.611  13.633  0.00  0.00    +0.000 C 
BRANCH  22  23
ATOM     23  C   UNL     1       6.160   3.681  12.640  0.00  0.00    +0.000 A 
ATOM     24  C   UNL     1       6.886   2.615  12.087  0.00  0.00    +0.000 A 
ATOM     25  C   UNL     1       6.284   1.740  11.176  0.00  0.00    +0.000 A 
ATOM     26  C   UNL     1       4.950   1.925  10.813  0.00  0.00    +0.000 A 
ATOM     27  C   UNL     1       4.220   2.978  11.358  0.00  0.00    +0.000 A 
ATOM     28  C   UNL     1       4.822   3.855  12.263  0.00  0.00    +0.000 A 
ENDBRANCH  22  23
ENDBRANCH  20  22
ENDBRANCH   1  19
TORSDOF 4
ENDMDL
MODEL 6
REMARK VINA RESULT:      -7.4      4.377     12.031
REMARK  Name = 
REMARK  4 active torsions:
REMARK  status: ('A' for Active; 'I' for Inactive)
REMARK    1  A    between atoms: C_2  and  C_11
REMARK    2  A    between atoms: N_3  and  C_4
REMARK    3  A    between atoms: C_4  and  C_5
REMARK    4  A    between atoms: N_18  and  C_19
REMARK                            x       y       z     vdW  Elec       q    Type
REMARK                         _______ _______ _______ _____ _____    ______ ____
ROOT
ATOM      1  C   UNL     1      -0.677  10.694  21.190  0.00  0.00    +0.000 C 
ATOM      2  C   UNL     1      -0.665  11.653  20.005  0.00  0.00    +0.000 C 
ATOM      3  C   UNL     1       0.817  11.852  19.721  0.00  0.00    +0.000 C 
ATOM      4  C   UNL     1       1.388  10.832  18.720  0.00  0.00    +0.000 C 
ATOM      5  N   UNL     1       1.416   9.439  19.200  0.00  0.00    +0.000 N 
ATOM      6  C   UNL     1       2.014   8.529  18.326  0.00  0.00    +0.000 C 
ATOM      7  O   UNL     1       2.390   8.852  17.202  0.00  0.00    +0.000 OA
ATOM      8  N   UNL     1       2.191   7.258  18.815  0.00  0.00    +0.000 N 
ATOM      9  C   UNL     1       1.346   9.224  20.656  0.00  0.00    +0.000 C 
ATOM     10  C   UNL     1       0.800  10.424  21.462  0.00  0.00    +0.000 C 
ATOM     11  O   UNL     1       1.446  11.631  21.001  0.00  0.00    +0.000 OA
ATOM     12  H   UNL     1       1.615   6.969  19.588  0.00  0.00    +0.000 HD
ENDROOT
BRANCH   8  13
ATOM     13  C   UNL     1       2.773   6.212  17.990  0.00  0.00    +0.000 C 
ATOM     14  C   UNL     1       4.134   5.747  18.497  0.00  0.00    +0.000 C 
ATOM     15  C   UNL     1       4.340   4.441  17.747  0.00  0.00    +0.000 C 
ATOM     16  C   UNL     1       2.964   3.784  17.744  0.00  0.00    +0.000 C 
ATOM     17  C   UNL     1       1.950   4.918  17.949  0.00  0.00    +0.000 C 
ENDBRANCH   8  13
BRANCH   1  19
ATOM     18  O   UNL     1      -0.994  10.943  23.540  0.00  0.00    +0.000 OA
ATOM     19  C   UNL     1      -1.347  11.291  22.420  0.00  0.00    +0.000 C 
ATOM     20  N   UNL     1      -2.345  12.207  22.199  0.00  0.00    +0.000 N 
ATOM     21  H   UNL     1      -2.532  12.521  21.247  0.00  0.00    +0.000 HD
BRANCH  20  22
ATOM     22  C   UNL     1      -3.045  12.848  23.285  0.00  0.00    +0.000 C 
BRANCH  22  23
ATOM     23  C   UNL     1      -4.540  12.819  23.091  0.00  0.00    +0.000 A 
ATOM     24  C   UNL     1      -5.087  12.783  21.800  0.00  0.00    +0.000 A 
ATOM     25  C   UNL     1      -6.473  12.742  21.615  0.00  0.00    +0.000 A 
ATOM     26  C   UNL     1      -7.321  12.735  22.721  0.00  0.00    +0.000 A 
ATOM     27  C   UNL     1      -6.788  12.769  24.008  0.00  0.00    +0.000 A 
ATOM     28  C   UNL     1      -5.404  12.815  24.193  0.00  0.00    +0.000 A 
ENDBRANCH  22  23
ENDBRANCH  20  22
ENDBRANCH   1  19
TORSDOF 4
ENDMDL
MODEL 7
REMARK VINA RESULT:      -7.2      2.295      3.462
REMARK  Name = 
REMARK  4 active torsions:
REMARK  status: ('A' for Active; 'I' for Inactive)
REMARK    1  A    between atoms: C_2  and  C_11
REMARK    2  A    between atoms: N_3  and  C_4
REMARK    3  A    between atoms: C_4  and  C_5
REMARK    4  A    between atoms: N_18  and  C_19
REMARK                            x       y       z     vdW  Elec       q    Type
REMARK                         _______ _______ _______ _____ _____    ______ ____
ROOT
ATOM      1  C   UNL     1       2.442   5.071  17.873  0.00  0.00    +0.000 C 
ATOM      2  C   UNL     1       1.827   4.568  19.174  0.00  0.00    +0.000 C 
ATOM      3  C   UNL     1       2.567   5.355  20.247  0.00  0.00    +0.000 C 
ATOM      4  C   UNL     1       1.886   6.688  20.604  0.00  0.00    +0.000 C 
ATOM      5  N   UNL     1       1.879   7.692  19.525  0.00  0.00    +0.000 N 
ATOM      6  C   UNL     1       1.338   8.929  19.880  0.00  0.00    +0.000 C 
ATOM      7  O   UNL     1       0.815   9.126  20.974  0.00  0.00    +0.000 OA
ATOM      8  N   UNL     1       1.463   9.926  18.943  0.00  0.00    +0.000 N 
ATOM      9  C   UNL     1       2.864   7.528  18.443  0.00  0.00    +0.000 C 
ATOM     10  C   UNL     1       3.465   6.109  18.324  0.00  0.00    +0.000 C 
ATOM     11  O   UNL     1       3.844   5.648  19.640  0.00  0.00    +0.000 OA
ATOM     12  H   UNL     1       1.611   9.653  17.986  0.00  0.00    +0.000 HD
ENDROOT
BRANCH   8  13
ATOM     13  C   UNL     1       0.912  11.250  19.180  0.00  0.00    +0.000 C 
ATOM     14  C   UNL     1       1.727  12.357  18.522  0.00  0.00    +0.000 C 
ATOM     15  C   UNL     1       0.777  13.543  18.568  0.00  0.00    +0.000 C 
ATOM     16  C   UNL     1      -0.591  12.946  18.254  0.00  0.00    +0.000 C 
ATOM     17  C   UNL     1      -0.495  11.455  18.602  0.00  0.00    +0.000 C 
ENDBRANCH   8  13
BRANCH   1  19
ATOM     18  O   UNL     1       2.515   2.926  16.835  0.00  0.00    +0.000 OA
ATOM     19  C   UNL     1       3.119   3.963  17.077  0.00  0.00    +0.000 C 
ATOM     20  N   UNL     1       4.409   4.192  16.671  0.00  0.00    +0.000 N 
ATOM     21  H   UNL     1       4.826   5.109  16.827  0.00  0.00    +0.000 HD
BRANCH  20  22
ATOM     22  C   UNL     1       5.149   3.222  15.902  0.00  0.00    +0.000 C 
BRANCH  22  23
ATOM     23  C   UNL     1       5.976   3.867  14.819  0.00  0.00    +0.000 A 
ATOM     24  C   UNL     1       5.839   3.459  13.484  0.00  0.00    +0.000 A 
ATOM     25  C   UNL     1       6.593   4.065  12.473  0.00  0.00    +0.000 A 
ATOM     26  C   UNL     1       7.490   5.084  12.792  0.00  0.00    +0.000 A 
ATOM     27  C   UNL     1       7.632   5.499  14.114  0.00  0.00    +0.000 A 
ATOM     28  C   UNL     1       6.882   4.890  15.124  0.00  0.00    +0.000 A 
ENDBRANCH  22  23
ENDBRANCH  20  22
ENDBRANCH   1  19
TORSDOF 4
ENDMDL
MODEL 8
REMARK VINA RESULT:      -7.2      5.017      8.180
REMARK  Name = 
REMARK  4 active torsions:
REMARK  status: ('A' for Active; 'I' for Inactive)
REMARK    1  A    between atoms: C_2  and  C_11
REMARK    2  A    between atoms: N_3  and  C_4
REMARK    3  A    between atoms: C_4  and  C_5
REMARK    4  A    between atoms: N_18  and  C_19
REMARK                            x       y       z     vdW  Elec       q    Type
REMARK                         _______ _______ _______ _____ _____    ______ ____
ROOT
ATOM      1  C   UNL     1       0.314   9.366  20.510  0.00  0.00    +0.000 C 
ATOM      2  C   UNL     1      -0.387   8.616  21.637  0.00  0.00    +0.000 C 
ATOM      3  C   UNL     1      -0.019   9.413  22.880  0.00  0.00    +0.000 C 
ATOM      4  C   UNL     1      -1.017  10.539  23.200  0.00  0.00    +0.000 C 
ATOM      5  N   UNL     1      -1.059  11.632  22.211  0.00  0.00    +0.000 N 
ATOM      6  C   UNL     1      -1.901  12.694  22.547  0.00  0.00    +0.000 C 
ATOM      7  O   UNL     1      -2.628  12.666  23.537  0.00  0.00    +0.000 OA
ATOM      8  N   UNL     1      -1.838  13.791  21.722  0.00  0.00    +0.000 N 
ATOM      9  C   UNL     1       0.104  11.782  21.321  0.00  0.00    +0.000 C 
ATOM     10  C   UNL     1       1.004  10.530  21.214  0.00  0.00    +0.000 C 
ATOM     11  O   UNL     1       1.248  10.014  22.542  0.00  0.00    +0.000 OA
ATOM     12  H   UNL     1      -1.478  13.656  20.792  0.00  0.00    +0.000 HD
ENDROOT
BRANCH   8  13
ATOM     13  C   UNL     1      -2.689  14.947  21.946  0.00  0.00    +0.000 C 
ATOM     14  C   UNL     1      -4.175  14.609  21.889  0.00  0.00    +0.000 C 
ATOM     15  C   UNL     1      -4.820  15.831  22.523  0.00  0.00    +0.000 C 
ATOM     16  C   UNL     1      -3.890  16.194  23.677  0.00  0.00    +0.000 C 
ATOM     17  C   UNL     1      -2.525  15.584  23.332  0.00  0.00    +0.000 C 
ENDBRANCH   8  13
BRANCH   1  19
ATOM     18  O   UNL     1       1.708   8.820  18.655  0.00  0.00    +0.000 OA
ATOM     19  C   UNL     1       1.333   8.504  19.777  0.00  0.00    +0.000 C 
ATOM     20  N   UNL     1       1.781   7.384  20.430  0.00  0.00    +0.000 N 
ATOM     21  H   UNL     1       1.498   7.223  21.397  0.00  0.00    +0.000 HD
BRANCH  20  22
ATOM     22  C   UNL     1       2.754   6.497  19.842  0.00  0.00    +0.000 C 
BRANCH  22  23
ATOM     23  C   UNL     1       2.165   5.149  19.509  0.00  0.00    +0.000 A 
ATOM     24  C   UNL     1       1.460   4.424  20.482  0.00  0.00    +0.000 A 
ATOM     25  C   UNL     1       0.899   3.180  20.174  0.00  0.00    +0.000 A 
ATOM     26  C   UNL     1       1.039   2.653  18.891  0.00  0.00    +0.000 A 
ATOM     27  C   UNL     1       1.735   3.366  17.917  0.00  0.00    +0.000 A 
ATOM     28  C   UNL     1       2.300   4.606  18.226  0.00  0.00    +0.000 A 
ENDBRANCH  22  23
ENDBRANCH  20  22
ENDBRANCH   1  19
TORSDOF 4
ENDMDL
MODEL 9
REMARK VINA RESULT:      -7.2      5.142      8.313
REMARK  Name = 
REMARK  4 active torsions:
REMARK  status: ('A' for Active; 'I' for Inactive)
REMARK    1  A    between atoms: C_2  and  C_11
REMARK    2  A    between atoms: N_3  and  C_4
REMARK    3  A    between atoms: C_4  and  C_5
REMARK    4  A    between atoms: N_18  and  C_19
REMARK                            x       y       z     vdW  Elec       q    Type
REMARK                         _______ _______ _______ _____ _____    ______ ____
ROOT
ATOM      1  C   UNL     1       0.923  10.106  18.600  0.00  0.00    +0.000 C 
ATOM      2  C   UNL     1      -0.391   9.614  19.196  0.00  0.00    +0.000 C 
ATOM      3  C   UNL     1      -0.429  10.271  20.569  0.00  0.00    +0.000 C 
ATOM      4  C   UNL     1      -1.111  11.651  20.565  0.00  0.00    +0.000 C 
ATOM      5  N   UNL     1      -0.395  12.696  19.812  0.00  0.00    +0.000 N 
ATOM      6  C   UNL     1      -0.970  13.967  19.882  0.00  0.00    +0.000 C 
ATOM      7  O   UNL     1      -2.045  14.169  20.441  0.00  0.00    +0.000 OA
ATOM      8  N   UNL     1      -0.240  14.985  19.320  0.00  0.00    +0.000 N 
ATOM      9  C   UNL     1       1.037  12.478  19.548  0.00  0.00    +0.000 C 
ATOM     10  C   UNL     1       1.505  11.011  19.681  0.00  0.00    +0.000 C 
ATOM     11  O   UNL     1       0.964  10.456  20.901  0.00  0.00    +0.000 OA
ATOM     12  H   UNL     1       0.453  14.740  18.632  0.00  0.00    +0.000 HD
ENDROOT
BRANCH   8  13
ATOM     13  C   UNL     1      -0.746  16.348  19.301  0.00  0.00    +0.000 C 
ATOM     14  C   UNL     1      -0.113  17.230  20.371  0.00  0.00    +0.000 C 
ATOM     15  C   UNL     1      -0.482  18.630  19.911  0.00  0.00    +0.000 C 
ATOM     16  C   UNL     1      -0.331  18.583  18.394  0.00  0.00    +0.000 C 
ATOM     17  C   UNL     1      -0.452  17.105  17.999  0.00  0.00    +0.000 C 
ENDBRANCH   8  13
BRANCH   1  19
ATOM     18  O   UNL     1       2.461   8.941  17.199  0.00  0.00    +0.000 OA
ATOM     19  C   UNL     1       1.884   8.969  18.279  0.00  0.00    +0.000 C 
ATOM     20  N   UNL     1       2.049   8.008  19.243  0.00  0.00    +0.000 N 
ATOM     21  H   UNL     1       1.610   8.134  20.155  0.00  0.00    +0.000 HD
BRANCH  20  22
ATOM     22  C   UNL     1       2.941   6.889  19.059  0.00  0.00    +0.000 C 
BRANCH  22  23
ATOM     23  C   UNL     1       2.231   5.567  19.208  0.00  0.00    +0.000 A 
ATOM     24  C   UNL     1       1.760   5.153  20.463  0.00  0.00    +0.000 A 
ATOM     25  C   UNL     1       1.088   3.934  20.604  0.00  0.00    +0.000 A 
ATOM     26  C   UNL     1       0.882   3.122  19.489  0.00  0.00    +0.000 A 
ATOM     27  C   UNL     1       1.343   3.525  18.239  0.00  0.00    +0.000 A 
ATOM     28  C   UNL     1       2.019   4.740  18.098  0.00  0.00    +0.000 A 
ENDBRANCH  22  23
ENDBRANCH  20  22
ENDBRANCH   1  19
TORSDOF 4
ENDMDL
