MODEL 1
REMARK VINA RESULT:      -8.8      0.000      0.000
REMARK  Name = 
REMARK  10 active torsions:
REMARK  status: ('A' for Active; 'I' for Inactive)
REMARK    1  A    between atoms: C_1  and  C_2
REMARK    2  A    between atoms: C_4  and  C_5
REMARK    3  A    between atoms: C_7  and  C_8
REMARK    4  A    between atoms: C_8  and  N_9
REMARK    5  A    between atoms: C_13  and  N_14
REMARK    6  A    between atoms: N_14  and  C_15
REMARK    7  A    between atoms: C_15  and  N_17
REMARK    8  A    between atoms: N_17  and  C_18
REMARK    9  A    between atoms: C_18  and  C_19
REMARK   10  A    between atoms: N_30  and  C_31
REMARK                            x       y       z     vdW  Elec       q    Type
REMARK                         _______ _______ _______ _____ _____    ______ ____
ROOT
ATOM      1  N   UNL     1       0.268  11.495  20.135  0.00  0.00    +0.000 N 
ATOM      2  C   UNL     1       0.836  10.228  19.966  0.00  0.00    +0.000 A 
ATOM      3  C   UNL     1       1.489   9.707  18.866  0.00  0.00    +0.000 A 
ATOM      4  C   UNL     1       2.011   8.410  18.943  0.00  0.00    +0.000 A 
ATOM      5  C   UNL     1       1.901   7.638  20.118  0.00  0.00    +0.000 A 
ATOM      6  C   UNL     1       1.194   8.140  21.215  0.00  0.00    +0.000 A 
ATOM      7  C   UNL     1       0.682   9.425  21.098  0.00  0.00    +0.000 A 
ATOM      8  C   UNL     1      -0.169  10.190  22.014  0.00  0.00    +0.000 A 
ATOM      9  O   UNL     1      -0.503   9.824  23.123  0.00  0.00    +0.000 OA
ATOM     10  N   UNL     1      -0.511  11.352  21.325  0.00  0.00    +0.000 N 
ATOM     11  C   UNL     1      -1.195  12.488  21.892  0.00  0.00    +0.000 C 
ENDROOT
BRANCH   5  12
ATOM     12  N   UNL     1       2.384   6.317  20.169  0.00  0.00    +0.000 N 
ATOM     13  H   UNL     1       3.250   6.167  20.681  0.00  0.00    +0.000 HD
BRANCH  12  14
ATOM     14  C   UNL     1       1.938   5.208  19.488  0.00  0.00    +0.000 C 
ATOM     15  S   UNL     1       1.084   3.912  20.101  0.00  0.00    +0.000 S 
BRANCH  14  16
ATOM     16  N   UNL     1       2.203   5.224  18.144  0.00  0.00    +0.000 N 
ATOM     17  H   UNL     1       1.379   5.351  17.567  0.00  0.00    +0.000 HD
BRANCH  16  18
ATOM     18  C   UNL     1       3.301   4.495  17.539  0.00  0.00    +0.000 C 
BRANCH  18  19
ATOM     19  C   UNL     1       4.609   5.202  17.704  0.00  0.00    +0.000 A 
ATOM     20  C   UNL     1       4.960   6.277  16.876  0.00  0.00    +0.000 A 
ATOM     21  C   UNL     1       6.205   6.895  17.014  0.00  0.00    +0.000 A 
ATOM     22  C   UNL     1       7.103   6.454  17.986  0.00  0.00    +0.000 A 
ATOM     23  C   UNL     1       6.755   5.400  18.828  0.00  0.00    +0.000 A 
ATOM     24  C   UNL     1       5.516   4.787  18.683  0.00  0.00    +0.000 A 
ATOM     25  F   UNL     1       5.199   3.769  19.498  0.00  0.00    +0.000 F 
ENDBRANCH  18  19
ENDBRANCH  16  18
ENDBRANCH  14  16
ENDBRANCH  12  14
ENDBRANCH   5  12
BRANCH   1  26
ATOM     26  C   UNL     1      -0.270  12.213  18.977  0.00  0.00    +0.000 C 
BRANCH  26  33
ATOM     27  C   UNL     1      -2.955   9.475  15.650  0.00  0.00    +0.000 C 
ATOM     28  C   UNL     1      -2.902  10.342  16.875  0.00  0.00    +0.000 A 
ATOM     29  C   UNL     1      -4.081  10.760  17.504  0.00  0.00    +0.000 A 
ATOM     30  C   UNL     1      -4.033  11.600  18.620  0.00  0.00    +0.000 A 
ATOM     31  C   UNL     1      -5.294  12.047  19.302  0.00  0.00    +0.000 C 
ATOM     32  C   UNL     1      -2.787  12.038  19.098  0.00  0.00    +0.000 A 
ATOM     33  C   UNL     1      -1.588  11.627  18.493  0.00  0.00    +0.000 A 
ATOM     34  C   UNL     1      -1.664  10.772  17.380  0.00  0.00    +0.000 A 
ENDBRANCH  26  33
ENDBRANCH   1  26
TORSDOF 7
ENDMDL
MODEL 2
REMARK VINA RESULT:      -8.7      0.892      1.227
REMARK  Name = 
REMARK  10 active torsions:
REMARK  status: ('A' for Active; 'I' for Inactive)
REMARK    1  A    between atoms: C_1  and  C_2
REMARK    2  A    between atoms: C_4  and  C_5
REMARK    3  A    between atoms: C_7  and  C_8
REMARK    4  A    between atoms: C_8  and  N_9
REMARK    5  A    between atoms: C_13  and  N_14
REMARK    6  A    between atoms: N_14  and  C_15
REMARK    7  A    between atoms: C_15  and  N_17
REMARK    8  A    between atoms: N_17  and  C_18
REMARK    9  A    between atoms: C_18  and  C_19
REMARK   10  A    between atoms: N_30  and  C_31
REMARK                            x       y       z     vdW  Elec       q    Type
REMARK                         _______ _______ _______ _____ _____    ______ ____
ROOT
ATOM      1  N   UNL     1       0.194  11.426  20.110  0.00  0.00    +0.000 N 
ATOM      2  C   UNL     1       0.824  10.196  19.886  0.00  0.00    +0.000 A 
ATOM      3  C   UNL     1       1.517   9.765  18.773  0.00  0.00    +0.000 A 
ATOM      4  C   UNL     1       2.098   8.491  18.793  0.00  0.00    +0.000 A 
ATOM      5  C   UNL     1       2.006   7.654  19.924  0.00  0.00    +0.000 A 
ATOM      6  C   UNL     1       1.259   8.065  21.032  0.00  0.00    +0.000 A 
ATOM      7  C   UNL     1       0.689   9.329  20.972  0.00  0.00    +0.000 A 
ATOM      8  C   UNL     1      -0.211  10.005  21.911  0.00  0.00    +0.000 A 
ATOM      9  O   UNL     1      -0.546   9.567  22.993  0.00  0.00    +0.000 OA
ATOM     10  N   UNL     1      -0.596  11.185  21.276  0.00  0.00    +0.000 N 
ATOM     11  C   UNL     1      -1.341  12.257  21.889  0.00  0.00    +0.000 C 
ENDROOT
BRANCH   5  12
ATOM     12  N   UNL     1       2.549   6.355  19.915  0.00  0.00    +0.000 N 
ATOM     13  H   UNL     1       3.387   6.209  20.472  0.00  0.00    +0.000 HD
BRANCH  12  14
ATOM     14  C   UNL     1       2.202   5.280  19.132  0.00  0.00    +0.000 C 
ATOM     15  S   UNL     1       1.264   3.967  19.561  0.00  0.00    +0.000 S 
BRANCH  14  16
ATOM     16  N   UNL     1       2.658   5.348  17.842  0.00  0.00    +0.000 N 
ATOM     17  H   UNL     1       1.932   5.549  17.162  0.00  0.00    +0.000 HD
BRANCH  16  18
ATOM     18  C   UNL     1       3.795   4.591  17.356  0.00  0.00    +0.000 C 
BRANCH  18  19
ATOM     19  C   UNL     1       5.098   5.236  17.711  0.00  0.00    +0.000 A 
ATOM     20  C   UNL     1       5.780   4.890  18.886  0.00  0.00    +0.000 A 
ATOM     21  C   UNL     1       6.971   5.536  19.224  0.00  0.00    +0.000 A 
ATOM     22  C   UNL     1       7.497   6.521  18.388  0.00  0.00    +0.000 A 
ATOM     23  C   UNL     1       6.838   6.857  17.207  0.00  0.00    +0.000 A 
ATOM     24  C   UNL     1       5.651   6.213  16.878  0.00  0.00    +0.000 A 
ATOM     25  F   UNL     1       5.025   6.552  15.741  0.00  0.00    +0.000 F 
ENDBRANCH  18  19
ENDBRANCH  16  18
ENDBRANCH  14  16
ENDBRANCH  12  14
ENDBRANCH   5  12
BRANCH   1  26
ATOM     26  C   UNL     1      -0.358  12.178  18.981  0.00  0.00    +0.000 C 
BRANCH  26  33
ATOM     27  C   UNL     1      -2.978   9.442  15.601  0.00  0.00    +0.000 C 
ATOM     28  C   UNL     1      -2.948  10.302  16.831  0.00  0.00    +0.000 A 
ATOM     29  C   UNL     1      -4.138  10.710  17.445  0.00  0.00    +0.000 A 
ATOM     30  C   UNL     1      -4.112  11.545  18.566  0.00  0.00    +0.000 A 
ATOM     31  C   UNL     1      -5.385  11.980  19.232  0.00  0.00    +0.000 C 
ATOM     32  C   UNL     1      -2.876  11.987  19.064  0.00  0.00    +0.000 A 
ATOM     33  C   UNL     1      -1.666  11.586  18.475  0.00  0.00    +0.000 A 
ATOM     34  C   UNL     1      -1.720  10.737  17.356  0.00  0.00    +0.000 A 
ENDBRANCH  26  33
ENDBRANCH   1  26
TORSDOF 7
ENDMDL
MODEL 3
REMARK VINA RESULT:      -8.7      2.789      4.659
REMARK  Name = 
REMARK  10 active torsions:
REMARK  status: ('A' for Active; 'I' for Inactive)
REMARK    1  A    between atoms: C_1  and  C_2
REMARK    2  A    between atoms: C_4  and  C_5
REMARK    3  A    between atoms: C_7  and  C_8
REMARK    4  A    between atoms: C_8  and  N_9
REMARK    5  A    between atoms: C_13  and  N_14
REMARK    6  A    between atoms: N_14  and  C_15
REMARK    7  A    between atoms: C_15  and  N_17
REMARK    8  A    between atoms: N_17  and  C_18
REMARK    9  A    between atoms: C_18  and  C_19
REMARK   10  A    between atoms: N_30  and  C_31
REMARK                            x       y       z     vdW  Elec       q    Type
REMARK                         _______ _______ _______ _____ _____    ______ ____
ROOT
ATOM      1  N   UNL     1       1.085   9.889  19.511  0.00  0.00    +0.000 N 
ATOM      2  C   UNL     1       1.845   8.915  18.853  0.00  0.00    +0.000 A 
ATOM      3  C   UNL     1       2.416   8.960  17.597  0.00  0.00    +0.000 A 
ATOM      4  C   UNL     1       3.172   7.865  17.161  0.00  0.00    +0.000 A 
ATOM      5  C   UNL     1       3.378   6.735  17.979  0.00  0.00    +0.000 A 
ATOM      6  C   UNL     1       2.757   6.663  19.230  0.00  0.00    +0.000 A 
ATOM      7  C   UNL     1       2.007   7.762  19.624  0.00  0.00    +0.000 A 
ATOM      8  C   UNL     1       1.171   7.959  20.813  0.00  0.00    +0.000 A 
ATOM      9  O   UNL     1       1.073   7.173  21.733  0.00  0.00    +0.000 OA
ATOM     10  N   UNL     1       0.526   9.179  20.618  0.00  0.00    +0.000 N 
ATOM     11  C   UNL     1      -0.265   9.871  21.606  0.00  0.00    +0.000 C 
ENDROOT
BRANCH   5  12
ATOM     12  N   UNL     1       4.097   5.619  17.512  0.00  0.00    +0.000 N 
ATOM     13  H   UNL     1       3.770   5.196  16.648  0.00  0.00    +0.000 HD
BRANCH  12  14
ATOM     14  C   UNL     1       5.093   4.910  18.141  0.00  0.00    +0.000 C 
ATOM     15  S   UNL     1       6.344   5.513  19.067  0.00  0.00    +0.000 S 
BRANCH  14  16
ATOM     16  N   UNL     1       4.991   3.550  18.009  0.00  0.00    +0.000 N 
ATOM     17  H   UNL     1       5.787   3.124  17.546  0.00  0.00    +0.000 HD
BRANCH  16  18
ATOM     18  C   UNL     1       3.726   2.853  17.875  0.00  0.00    +0.000 C 
BRANCH  18  19
ATOM     19  C   UNL     1       2.896   2.942  19.117  0.00  0.00    +0.000 A 
ATOM     20  C   UNL     1       3.416   2.563  20.362  0.00  0.00    +0.000 A 
ATOM     21  C   UNL     1       2.612   2.609  21.503  0.00  0.00    +0.000 A 
ATOM     22  C   UNL     1       1.290   3.044  21.413  0.00  0.00    +0.000 A 
ATOM     23  C   UNL     1       0.770   3.443  20.183  0.00  0.00    +0.000 A 
ATOM     24  C   UNL     1       1.575   3.392  19.051  0.00  0.00    +0.000 A 
ATOM     25  F   UNL     1       1.058   3.774  17.873  0.00  0.00    +0.000 F 
ENDBRANCH  18  19
ENDBRANCH  16  18
ENDBRANCH  14  16
ENDBRANCH  12  14
ENDBRANCH   5  12
BRANCH   1  26
ATOM     26  C   UNL     1       0.263  10.819  18.733  0.00  0.00    +0.000 C 
BRANCH  26  33
ATOM     27  C   UNL     1      -0.658  15.754  19.485  0.00  0.00    +0.000 C 
ATOM     28  C   UNL     1       0.307  14.646  19.178  0.00  0.00    +0.000 A 
ATOM     29  C   UNL     1       1.635  14.931  18.839  0.00  0.00    +0.000 A 
ATOM     30  C   UNL     1       2.523  13.902  18.512  0.00  0.00    +0.000 A 
ATOM     31  C   UNL     1       3.950  14.201  18.155  0.00  0.00    +0.000 C 
ATOM     32  C   UNL     1       2.065  12.574  18.510  0.00  0.00    +0.000 A 
ATOM     33  C   UNL     1       0.741  12.258  18.856  0.00  0.00    +0.000 A 
ATOM     34  C   UNL     1      -0.127  13.310  19.191  0.00  0.00    +0.000 A 
ENDBRANCH  26  33
ENDBRANCH   1  26
TORSDOF 7
ENDMDL
MODEL 4
REMARK VINA RESULT:      -8.7      2.056      3.490
REMARK  Name = 
REMARK  10 active torsions:
REMARK  status: ('A' for Active; 'I' for Inactive)
REMARK    1  A    between atoms: C_1  and  C_2
REMARK    2  A    between atoms: C_4  and  C_5
REMARK    3  A    between atoms: C_7  and  C_8
REMARK    4  A    between atoms: C_8  and  N_9
REMARK    5  A    between atoms: C_13  and  N_14
REMARK    6  A    between atoms: N_14  and  C_15
REMARK    7  A    between atoms: C_15  and  N_17
REMARK    8  A    between atoms: N_17  and  C_18
REMARK    9  A    between atoms: C_18  and  C_19
REMARK   10  A    between atoms: N_30  and  C_31
REMARK                            x       y       z     vdW  Elec       q    Type
REMARK                         _______ _______ _______ _____ _____    ______ ____
ROOT
ATOM      1  N   UNL     1       0.400  11.037  19.958  0.00  0.00    +0.000 N 
ATOM      2  C   UNL     1       1.025   9.818  19.672  0.00  0.00    +0.000 A 
ATOM      3  C   UNL     1       1.710   9.437  18.536  0.00  0.00    +0.000 A 
ATOM      4  C   UNL     1       2.287   8.162  18.492  0.00  0.00    +0.000 A 
ATOM      5  C   UNL     1       2.200   7.273  19.584  0.00  0.00    +0.000 A 
ATOM      6  C   UNL     1       1.461   7.634  20.715  0.00  0.00    +0.000 A 
ATOM      7  C   UNL     1       0.895   8.901  20.718  0.00  0.00    +0.000 A 
ATOM      8  C   UNL     1       0.002   9.535  21.693  0.00  0.00    +0.000 A 
ATOM      9  O   UNL     1      -0.327   9.047  22.755  0.00  0.00    +0.000 OA
ATOM     10  N   UNL     1      -0.384  10.744  21.116  0.00  0.00    +0.000 N 
ATOM     11  C   UNL     1      -1.122  11.788  21.783  0.00  0.00    +0.000 C 
ENDROOT
BRANCH   5  12
ATOM     12  N   UNL     1       2.740   5.975  19.511  0.00  0.00    +0.000 N 
ATOM     13  H   UNL     1       3.748   5.894  19.619  0.00  0.00    +0.000 HD
BRANCH  12  14
ATOM     14  C   UNL     1       2.118   4.801  19.156  0.00  0.00    +0.000 C 
ATOM     15  S   UNL     1       1.068   3.885  20.075  0.00  0.00    +0.000 S 
BRANCH  14  16
ATOM     16  N   UNL     1       2.378   4.388  17.876  0.00  0.00    +0.000 N 
ATOM     17  H   UNL     1       1.581   4.461  17.253  0.00  0.00    +0.000 HD
BRANCH  16  18
ATOM     18  C   UNL     1       3.351   3.362  17.550  0.00  0.00    +0.000 C 
BRANCH  18  19
ATOM     19  C   UNL     1       4.683   3.939  17.189  0.00  0.00    +0.000 A 
ATOM     20  C   UNL     1       5.024   4.191  15.853  0.00  0.00    +0.000 A 
ATOM     21  C   UNL     1       6.289   4.686  15.530  0.00  0.00    +0.000 A 
ATOM     22  C   UNL     1       7.218   4.946  16.538  0.00  0.00    +0.000 A 
ATOM     23  C   UNL     1       6.882   4.719  17.870  0.00  0.00    +0.000 A 
ATOM     24  C   UNL     1       5.622   4.223  18.184  0.00  0.00    +0.000 A 
ATOM     25  F   UNL     1       5.316   4.004  19.472  0.00  0.00    +0.000 F 
ENDBRANCH  18  19
ENDBRANCH  16  18
ENDBRANCH  14  16
ENDBRANCH  12  14
ENDBRANCH   5  12
BRANCH   1  26
ATOM     26  C   UNL     1      -0.158  11.842  18.868  0.00  0.00    +0.000 C 
BRANCH  26  33
ATOM     27  C   UNL     1      -0.660  16.893  18.779  0.00  0.00    +0.000 C 
ATOM     28  C   UNL     1       0.216  15.674  18.729  0.00  0.00    +0.000 A 
ATOM     29  C   UNL     1       1.587  15.792  18.467  0.00  0.00    +0.000 A 
ATOM     30  C   UNL     1       2.395  14.655  18.379  0.00  0.00    +0.000 A 
ATOM     31  C   UNL     1       3.866  14.775  18.105  0.00  0.00    +0.000 C 
ATOM     32  C   UNL     1       1.815  13.386  18.539  0.00  0.00    +0.000 A 
ATOM     33  C   UNL     1       0.445  13.238  18.812  0.00  0.00    +0.000 A 
ATOM     34  C   UNL     1      -0.342  14.399  18.907  0.00  0.00    +0.000 A 
ENDBRANCH  26  33
ENDBRANCH   1  26
TORSDOF 7
ENDMDL
MODEL 5
REMARK VINA RESULT:      -8.6      3.808      9.603
REMARK  Name = 
REMARK  10 active torsions:
REMARK  status: ('A' for Active; 'I' for Inactive)
REMARK    1  A    between atoms: C_1  and  C_2
REMARK    2  A    between atoms: C_4  and  C_5
REMARK    3  A    between atoms: C_7  and  C_8
REMARK    4  A    between atoms: C_8  and  N_9
REMARK    5  A    between atoms: C_13  and  N_14
REMARK    6  A    between atoms: N_14  and  C_15
REMARK    7  A    between atoms: C_15  and  N_17
REMARK    8  A    between atoms: N_17  and  C_18
REMARK    9  A    between atoms: C_18  and  C_19
REMARK   10  A    between atoms: N_30  and  C_31
REMARK                            x       y       z     vdW  Elec       q    Type
REMARK                         _______ _______ _______ _____ _____    ______ ____
ROOT
ATOM      1  N   UNL     1       4.318   4.210  16.818  0.00  0.00    +0.000 N 
ATOM      2  C   UNL     1       3.950   5.516  17.161  0.00  0.00    +0.000 A 
ATOM      3  C   UNL     1       4.505   6.711  16.750  0.00  0.00    +0.000 A 
ATOM      4  C   UNL     1       3.939   7.909  17.202  0.00  0.00    +0.000 A 
ATOM      5  C   UNL     1       2.809   7.919  18.047  0.00  0.00    +0.000 A 
ATOM      6  C   UNL     1       2.278   6.712  18.510  0.00  0.00    +0.000 A 
ATOM      7  C   UNL     1       2.872   5.546  18.048  0.00  0.00    +0.000 A 
ATOM      8  C   UNL     1       2.616   4.147  18.408  0.00  0.00    +0.000 A 
ATOM      9  O   UNL     1       1.730   3.771  19.147  0.00  0.00    +0.000 OA
ATOM     10  N   UNL     1       3.607   3.408  17.764  0.00  0.00    +0.000 N 
ATOM     11  C   UNL     1       3.653   1.969  17.684  0.00  0.00    +0.000 C 
ENDROOT
BRANCH   5  12
ATOM     12  N   UNL     1       2.278   9.127  18.538  0.00  0.00    +0.000 N 
ATOM     13  H   UNL     1       2.878   9.946  18.478  0.00  0.00    +0.000 HD
BRANCH  12  14
ATOM     14  C   UNL     1       1.114   9.336  19.239  0.00  0.00    +0.000 C 
ATOM     15  S   UNL     1       0.906   9.321  20.896  0.00  0.00    +0.000 S 
BRANCH  14  16
ATOM     16  N   UNL     1       0.027   9.631  18.459  0.00  0.00    +0.000 N 
ATOM     17  H   UNL     1       0.217   9.594  17.464  0.00  0.00    +0.000 HD
BRANCH  16  18
ATOM     18  C   UNL     1      -1.033  10.529  18.874  0.00  0.00    +0.000 C 
BRANCH  18  19
ATOM     19  C   UNL     1      -2.126  10.625  17.857  0.00  0.00    +0.000 A 
ATOM     20  C   UNL     1      -2.037   9.944  16.635  0.00  0.00    +0.000 A 
ATOM     21  C   UNL     1      -3.045  10.082  15.678  0.00  0.00    +0.000 A 
ATOM     22  C   UNL     1      -4.153  10.889  15.937  0.00  0.00    +0.000 A 
ATOM     23  C   UNL     1      -4.260  11.553  17.157  0.00  0.00    +0.000 A 
ATOM     24  C   UNL     1      -3.252  11.415  18.104  0.00  0.00    +0.000 A 
ATOM     25  F   UNL     1      -3.367  12.066  19.271  0.00  0.00    +0.000 F 
ENDBRANCH  18  19
ENDBRANCH  16  18
ENDBRANCH  14  16
ENDBRANCH  12  14
ENDBRANCH   5  12
BRANCH   1  26
ATOM     26  C   UNL     1       5.713   3.908  16.490  0.00  0.00    +0.000 C 
BRANCH  26  33
ATOM     27  C   UNL     1       4.899   2.799  11.603  0.00  0.00    +0.000 C 
ATOM     28  C   UNL     1       5.662   3.553  12.654  0.00  0.00    +0.000 A 
ATOM     29  C   UNL     1       6.774   4.330  12.307  0.00  0.00    +0.000 A 
ATOM     30  C   UNL     1       7.510   4.999  13.290  0.00  0.00    +0.000 A 
ATOM     31  C   UNL     1       8.699   5.838  12.923  0.00  0.00    +0.000 C 
ATOM     32  C   UNL     1       7.134   4.871  14.636  0.00  0.00    +0.000 A 
ATOM     33  C   UNL     1       6.017   4.106  15.012  0.00  0.00    +0.000 A 
ATOM     34  C   UNL     1       5.288   3.454  14.004  0.00  0.00    +0.000 A 
ENDBRANCH  26  33
ENDBRANCH   1  26
TORSDOF 7
ENDMDL
MODEL 6
REMARK VINA RESULT:      -8.6      2.601      4.553
REMARK  Name = 
REMARK  10 active torsions:
REMARK  status: ('A' for Active; 'I' for Inactive)
REMARK    1  A    between atoms: C_1  and  C_2
REMARK    2  A    between atoms: C_4  and  C_5
REMARK    3  A    between atoms: C_7  and  C_8
REMARK    4  A    between atoms: C_8  and  N_9
REMARK    5  A    between atoms: C_13  and  N_14
REMARK    6  A    between atoms: N_14  and  C_15
REMARK    7  A    between atoms: C_15  and  N_17
REMARK    8  A    between atoms: N_17  and  C_18
REMARK    9  A    between atoms: C_18  and  C_19
REMARK   10  A    between atoms: N_30  and  C_31
REMARK                            x       y       z     vdW  Elec       q    Type
REMARK                         _______ _______ _______ _____ _____    ______ ____
ROOT
ATOM      1  N   UNL     1       0.520  11.220  19.770  0.00  0.00    +0.000 N 
ATOM      2  C   UNL     1       1.153  10.079  19.262  0.00  0.00    +0.000 A 
ATOM      3  C   UNL     1       1.712   9.877  18.016  0.00  0.00    +0.000 A 
ATOM      4  C   UNL     1       2.329   8.650  17.745  0.00  0.00    +0.000 A 
ATOM      5  C   UNL     1       2.408   7.631  18.718  0.00  0.00    +0.000 A 
ATOM      6  C   UNL     1       1.796   7.811  19.962  0.00  0.00    +0.000 A 
ATOM      7  C   UNL     1       1.185   9.036  20.190  0.00  0.00    +0.000 A 
ATOM      8  C   UNL     1       0.391   9.498  21.334  0.00  0.00    +0.000 A 
ATOM      9  O   UNL     1       0.211   8.867  22.355  0.00  0.00    +0.000 OA
ATOM     10  N   UNL     1      -0.107  10.745  20.963  0.00  0.00    +0.000 N 
ATOM     11  C   UNL     1      -0.800  11.660  21.837  0.00  0.00    +0.000 C 
ENDROOT
BRANCH   5  12
ATOM     12  N   UNL     1       2.985   6.382  18.419  0.00  0.00    +0.000 N 
ATOM     13  H   UNL     1       2.376   5.572  18.486  0.00  0.00    +0.000 HD
BRANCH  12  14
ATOM     14  C   UNL     1       4.307   6.073  18.201  0.00  0.00    +0.000 C 
ATOM     15  S   UNL     1       5.285   6.603  16.955  0.00  0.00    +0.000 S 
BRANCH  14  16
ATOM     16  N   UNL     1       4.868   5.271  19.159  0.00  0.00    +0.000 N 
ATOM     17  H   UNL     1       5.760   5.608  19.503  0.00  0.00    +0.000 HD
BRANCH  16  18
ATOM     18  C   UNL     1       4.660   3.837  19.222  0.00  0.00    +0.000 C 
BRANCH  18  19
ATOM     19  C   UNL     1       3.229   3.483  19.479  0.00  0.00    +0.000 A 
ATOM     20  C   UNL     1       2.655   3.665  20.745  0.00  0.00    +0.000 A 
ATOM     21  C   UNL     1       1.332   3.287  20.979  0.00  0.00    +0.000 A 
ATOM     22  C   UNL     1       0.567   2.734  19.951  0.00  0.00    +0.000 A 
ATOM     23  C   UNL     1       1.122   2.568  18.684  0.00  0.00    +0.000 A 
ATOM     24  C   UNL     1       2.441   2.944  18.458  0.00  0.00    +0.000 A 
ATOM     25  F   UNL     1       2.962   2.772  17.234  0.00  0.00    +0.000 F 
ENDBRANCH  18  19
ENDBRANCH  16  18
ENDBRANCH  14  16
ENDBRANCH  12  14
ENDBRANCH   5  12
BRANCH   1  26
ATOM     26  C   UNL     1      -0.194  12.120  18.862  0.00  0.00    +0.000 C 
BRANCH  26  33
ATOM     27  C   UNL     1      -0.622  17.179  18.843  0.00  0.00    +0.000 C 
ATOM     28  C   UNL     1       0.235  15.948  18.764  0.00  0.00    +0.000 A 
ATOM     29  C   UNL     1       1.602  16.048  18.481  0.00  0.00    +0.000 A 
ATOM     30  C   UNL     1       2.392  14.900  18.365  0.00  0.00    +0.000 A 
ATOM     31  C   UNL     1       3.859  15.002  18.068  0.00  0.00    +0.000 C 
ATOM     32  C   UNL     1       1.795  13.638  18.519  0.00  0.00    +0.000 A 
ATOM     33  C   UNL     1       0.428  13.508  18.813  0.00  0.00    +0.000 A 
ATOM     34  C   UNL     1      -0.340  14.678  18.935  0.00  0.00    +0.000 A 
ENDBRANCH  26  33
ENDBRANCH   1  26
TORSDOF 7
ENDMDL
MODEL 7
REMARK VINA RESULT:      -8.6      2.328      3.800
REMARK  Name = 
REMARK  10 active torsions:
REMARK  status: ('A' for Active; 'I' for Inactive)
REMARK    1  A    between atoms: C_1  and  C_2
REMARK    2  A    between atoms: C_4  and  C_5
REMARK    3  A    between atoms: C_7  and  C_8
REMARK    4  A    between atoms: C_8  and  N_9
REMARK    5  A    between atoms: C_13  and  N_14
REMARK    6  A    between atoms: N_14  and  C_15
REMARK    7  A    between atoms: C_15  and  N_17
REMARK    8  A    between atoms: N_17  and  C_18
REMARK    9  A    between atoms: C_18  and  C_19
REMARK   10  A    between atoms: N_30  and  C_31
REMARK                            x       y       z     vdW  Elec       q    Type
REMARK                         _______ _______ _______ _____ _____    ______ ____
ROOT
ATOM      1  N   UNL     1       0.526  11.376  19.985  0.00  0.00    +0.000 N 
ATOM      2  C   UNL     1       1.066  10.183  19.492  0.00  0.00    +0.000 A 
ATOM      3  C   UNL     1       1.495   9.884  18.215  0.00  0.00    +0.000 A 
ATOM      4  C   UNL     1       2.039   8.619  17.964  0.00  0.00    +0.000 A 
ATOM      5  C   UNL     1       2.174   7.657  18.987  0.00  0.00    +0.000 A 
ATOM      6  C   UNL     1       1.691   7.935  20.269  0.00  0.00    +0.000 A 
ATOM      7  C   UNL     1       1.149   9.196  20.477  0.00  0.00    +0.000 A 
ATOM      8  C   UNL     1       0.485   9.756  21.658  0.00  0.00    +0.000 A 
ATOM      9  O   UNL     1       0.381   9.195  22.729  0.00  0.00    +0.000 OA
ATOM     10  N   UNL     1      -0.001  10.999  21.259  0.00  0.00    +0.000 N 
ATOM     11  C   UNL     1      -0.574  11.992  22.135  0.00  0.00    +0.000 C 
ENDROOT
BRANCH   5  12
ATOM     12  N   UNL     1       2.674   6.369  18.714  0.00  0.00    +0.000 N 
ATOM     13  H   UNL     1       2.545   6.022  17.767  0.00  0.00    +0.000 HD
BRANCH  12  14
ATOM     14  C   UNL     1       3.178   5.437  19.589  0.00  0.00    +0.000 C 
ATOM     15  S   UNL     1       2.326   4.466  20.646  0.00  0.00    +0.000 S 
BRANCH  14  16
ATOM     16  N   UNL     1       4.538   5.279  19.529  0.00  0.00    +0.000 N 
ATOM     17  H   UNL     1       5.047   6.153  19.450  0.00  0.00    +0.000 HD
BRANCH  16  18
ATOM     18  C   UNL     1       5.182   4.111  18.960  0.00  0.00    +0.000 C 
BRANCH  18  19
ATOM     19  C   UNL     1       5.629   4.340  17.551  0.00  0.00    +0.000 A 
ATOM     20  C   UNL     1       4.727   4.249  16.482  0.00  0.00    +0.000 A 
ATOM     21  C   UNL     1       5.172   4.420  15.169  0.00  0.00    +0.000 A 
ATOM     22  C   UNL     1       6.515   4.695  14.914  0.00  0.00    +0.000 A 
ATOM     23  C   UNL     1       7.416   4.807  15.971  0.00  0.00    +0.000 A 
ATOM     24  C   UNL     1       6.968   4.633  17.275  0.00  0.00    +0.000 A 
ATOM     25  F   UNL     1       7.849   4.739  18.281  0.00  0.00    +0.000 F 
ENDBRANCH  18  19
ENDBRANCH  16  18
ENDBRANCH  14  16
ENDBRANCH  12  14
ENDBRANCH   5  12
BRANCH   1  26
ATOM     26  C   UNL     1      -0.239  12.251  19.094  0.00  0.00    +0.000 C 
BRANCH  26  33
ATOM     27  C   UNL     1      -0.598  17.302  18.726  0.00  0.00    +0.000 C 
ATOM     28  C   UNL     1       0.240  16.056  18.719  0.00  0.00    +0.000 A 
ATOM     29  C   UNL     1       1.604  16.116  18.407  0.00  0.00    +0.000 A 
ATOM     30  C   UNL     1       2.376  14.951  18.360  0.00  0.00    +0.000 A 
ATOM     31  C   UNL     1       3.839  15.010  18.033  0.00  0.00    +0.000 C 
ATOM     32  C   UNL     1       1.765  13.712  18.612  0.00  0.00    +0.000 A 
ATOM     33  C   UNL     1       0.401  13.623  18.937  0.00  0.00    +0.000 A 
ATOM     34  C   UNL     1      -0.349  14.810  18.989  0.00  0.00    +0.000 A 
ENDBRANCH  26  33
ENDBRANCH   1  26
TORSDOF 7
ENDMDL
MODEL 8
REMARK VINA RESULT:      -8.6      2.883      4.630
REMARK  Name = 
REMARK  10 active torsions:
REMARK  status: ('A' for Active; 'I' for Inactive)
REMARK    1  A    between atoms: C_1  and  C_2
REMARK    2  A    between atoms: C_4  and  C_5
REMARK    3  A    between atoms: C_7  and  C_8
REMARK    4  A    between atoms: C_8  and  N_9
REMARK    5  A    between atoms: C_13  and  N_14
REMARK    6  A    between atoms: N_14  and  C_15
REMARK    7  A    between atoms: C_15  and  N_17
REMARK    8  A    between atoms: N_17  and  C_18
REMARK    9  A    between atoms: C_18  and  C_19
REMARK   10  A    between atoms: N_30  and  C_31
REMARK                            x       y       z     vdW  Elec       q    Type
REMARK                         _______ _______ _______ _____ _____    ______ ____
ROOT
ATOM      1  N   UNL     1       1.349   9.340  19.334  0.00  0.00    +0.000 N 
ATOM      2  C   UNL     1       2.234   8.396  18.800  0.00  0.00    +0.000 A 
ATOM      3  C   UNL     1       2.967   8.455  17.632  0.00  0.00    +0.000 A 
ATOM      4  C   UNL     1       3.824   7.393  17.319  0.00  0.00    +0.000 A 
ATOM      5  C   UNL     1       3.966   6.281  18.175  0.00  0.00    +0.000 A 
ATOM      6  C   UNL     1       3.184   6.191  19.331  0.00  0.00    +0.000 A 
ATOM      7  C   UNL     1       2.340   7.258  19.603  0.00  0.00    +0.000 A 
ATOM      8  C   UNL     1       1.343   7.428  20.665  0.00  0.00    +0.000 A 
ATOM      9  O   UNL     1       1.156   6.646  21.575  0.00  0.00    +0.000 OA
ATOM     10  N   UNL     1       0.676   8.615  20.366  0.00  0.00    +0.000 N 
ATOM     11  C   UNL     1      -0.271   9.279  21.227  0.00  0.00    +0.000 C 
ENDROOT
BRANCH   5  12
ATOM     12  N   UNL     1       4.790   5.195  17.827  0.00  0.00    +0.000 N 
ATOM     13  H   UNL     1       5.668   5.109  18.332  0.00  0.00    +0.000 HD
BRANCH  12  14
ATOM     14  C   UNL     1       4.656   4.310  16.783  0.00  0.00    +0.000 C 
ATOM     15  S   UNL     1       5.663   4.131  15.463  0.00  0.00    +0.000 S 
BRANCH  14  16
ATOM     16  N   UNL     1       3.586   3.461  16.892  0.00  0.00    +0.000 N 
ATOM     17  H   UNL     1       2.692   3.908  16.719  0.00  0.00    +0.000 HD
BRANCH  16  18
ATOM     18  C   UNL     1       3.566   2.312  17.776  0.00  0.00    +0.000 C 
BRANCH  18  19
ATOM     19  C   UNL     1       2.759   2.561  19.011  0.00  0.00    +0.000 A 
ATOM     20  C   UNL     1       1.388   2.843  18.934  0.00  0.00    +0.000 A 
ATOM     21  C   UNL     1       0.660   3.118  20.094  0.00  0.00    +0.000 A 
ATOM     22  C   UNL     1       1.291   3.102  21.339  0.00  0.00    +0.000 A 
ATOM     23  C   UNL     1       2.649   2.803  21.427  0.00  0.00    +0.000 A 
ATOM     24  C   UNL     1       3.368   2.533  20.269  0.00  0.00    +0.000 A 
ATOM     25  F   UNL     1       4.676   2.252  20.370  0.00  0.00    +0.000 F 
ENDBRANCH  18  19
ENDBRANCH  16  18
ENDBRANCH  14  16
ENDBRANCH  12  14
ENDBRANCH   5  12
BRANCH   1  26
ATOM     26  C   UNL     1       0.599  10.224  18.438  0.00  0.00    +0.000 C 
BRANCH  26  33
ATOM     27  C   UNL     1      -0.959  14.874  19.750  0.00  0.00    +0.000 C 
ATOM     28  C   UNL     1       0.136  13.950  19.299  0.00  0.00    +0.000 A 
ATOM     29  C   UNL     1       1.399  14.453  18.961  0.00  0.00    +0.000 A 
ATOM     30  C   UNL     1       2.406  13.599  18.502  0.00  0.00    +0.000 A 
ATOM     31  C   UNL     1       3.763  14.132  18.145  0.00  0.00    +0.000 C 
ATOM     32  C   UNL     1       2.134  12.228  18.365  0.00  0.00    +0.000 A 
ATOM     33  C   UNL     1       0.881  11.695  18.706  0.00  0.00    +0.000 A 
ATOM     34  C   UNL     1      -0.110  12.574  19.176  0.00  0.00    +0.000 A 
ENDBRANCH  26  33
ENDBRANCH   1  26
TORSDOF 7
ENDMDL
MODEL 9
REMARK VINA RESULT:      -8.5      2.577      4.509
REMARK  Name = 
REMARK  10 active torsions:
REMARK  status: ('A' for Active; 'I' for Inactive)
REMARK    1  A    between atoms: C_1  and  C_2
REMARK    2  A    between atoms: C_4  and  C_5
REMARK    3  A    between atoms: C_7  and  C_8
REMARK    4  A    between atoms: C_8  and  N_9
REMARK    5  A    between atoms: C_13  and  N_14
REMARK    6  A    between atoms: N_14  and  C_15
REMARK    7  A    between atoms: C_15  and  N_17
REMARK    8  A    between atoms: N_17  and  C_18
REMARK    9  A    between atoms: C_18  and  C_19
REMARK   10  A    between atoms: N_30  and  C_31
REMARK                            x       y       z     vdW  Elec       q    Type
REMARK                         _______ _______ _______ _____ _____    ______ ____
ROOT
ATOM      1  N   UNL     1       0.705  10.928  19.702  0.00  0.00    +0.000 N 
ATOM      2  C   UNL     1       1.320   9.812  19.122  0.00  0.00    +0.000 A 
ATOM      3  C   UNL     1       1.797   9.652  17.836  0.00  0.00    +0.000 A 
ATOM      4  C   UNL     1       2.413   8.444  17.491  0.00  0.00    +0.000 A 
ATOM      5  C   UNL     1       2.574   7.401  18.428  0.00  0.00    +0.000 A 
ATOM      6  C   UNL     1       2.044   7.538  19.715  0.00  0.00    +0.000 A 
ATOM      7  C   UNL     1       1.431   8.746  20.017  0.00  0.00    +0.000 A 
ATOM      8  C   UNL     1       0.709   9.164  21.223  0.00  0.00    +0.000 A 
ATOM      9  O   UNL     1       0.608   8.504  22.237  0.00  0.00    +0.000 OA
ATOM     10  N   UNL     1       0.167  10.412  20.921  0.00  0.00    +0.000 N 
ATOM     11  C   UNL     1      -0.480  11.291  21.864  0.00  0.00    +0.000 C 
ENDROOT
BRANCH   5  12
ATOM     12  N   UNL     1       3.149   6.171  18.058  0.00  0.00    +0.000 N 
ATOM     13  H   UNL     1       2.505   5.416  17.835  0.00  0.00    +0.000 HD
BRANCH  12  14
ATOM     14  C   UNL     1       4.468   5.787  18.104  0.00  0.00    +0.000 C 
ATOM     15  S   UNL     1       5.612   5.925  16.895  0.00  0.00    +0.000 S 
BRANCH  14  16
ATOM     16  N   UNL     1       4.869   5.277  19.311  0.00  0.00    +0.000 N 
ATOM     17  H   UNL     1       5.663   5.760  19.715  0.00  0.00    +0.000 HD
BRANCH  16  18
ATOM     18  C   UNL     1       4.714   3.883  19.679  0.00  0.00    +0.000 C 
BRANCH  18  19
ATOM     19  C   UNL     1       3.297   3.418  19.553  0.00  0.00    +0.000 A 
ATOM     20  C   UNL     1       2.907   2.559  18.516  0.00  0.00    +0.000 A 
ATOM     21  C   UNL     1       1.571   2.172  18.388  0.00  0.00    +0.000 A 
ATOM     22  C   UNL     1       0.618   2.628  19.299  0.00  0.00    +0.000 A 
ATOM     23  C   UNL     1       0.999   3.465  20.345  0.00  0.00    +0.000 A 
ATOM     24  C   UNL     1       2.330   3.849  20.465  0.00  0.00    +0.000 A 
ATOM     25  F   UNL     1       2.680   4.661  21.475  0.00  0.00    +0.000 F 
ENDBRANCH  18  19
ENDBRANCH  16  18
ENDBRANCH  14  16
ENDBRANCH  12  14
ENDBRANCH   5  12
BRANCH   1  26
ATOM     26  C   UNL     1      -0.083  11.839  18.869  0.00  0.00    +0.000 C 
BRANCH  26  33
ATOM     27  C   UNL     1      -0.671  16.881  18.976  0.00  0.00    +0.000 C 
ATOM     28  C   UNL     1       0.223  15.680  18.854  0.00  0.00    +0.000 A 
ATOM     29  C   UNL     1       1.582  15.830  18.553  0.00  0.00    +0.000 A 
ATOM     30  C   UNL     1       2.405  14.711  18.398  0.00  0.00    +0.000 A 
ATOM     31  C   UNL     1       3.864  14.867  18.082  0.00  0.00    +0.000 C 
ATOM     32  C   UNL     1       1.852  13.428  18.531  0.00  0.00    +0.000 A 
ATOM     33  C   UNL     1       0.494  13.247  18.843  0.00  0.00    +0.000 A 
ATOM     34  C   UNL     1      -0.308  14.389  19.005  0.00  0.00    +0.000 A 
ENDBRANCH  26  33
ENDBRANCH   1  26
TORSDOF 7
ENDMDL
