MODEL 1
REMARK VINA RESULT:      -7.1      0.000      0.000
REMARK  Name = 
REMARK  6 active torsions:
REMARK  status: ('A' for Active; 'I' for Inactive)
REMARK    1  A    between atoms: C_1  and  N_2
REMARK    2  A    between atoms: N_2  and  C_3
REMARK    3  A    between atoms: N_5  and  S_6
REMARK    4  A    between atoms: S_6  and  C_9
REMARK    5  A    between atoms: C_12  and  C_13
REMARK    6  A    between atoms: C_15  and  C_16
REMARK                            x       y       z     vdW  Elec       q    Type
REMARK                         _______ _______ _______ _____ _____    ______ ____
ROOT
ATOM      1  C   UNL     1       3.290   4.950  19.125  0.00  0.00    +0.000 A 
ATOM      2  N   UNL     1       3.202   6.040  18.398  0.00  0.00    +0.000 NA
ATOM      3  N   UNL     1       2.431   6.900  19.103  0.00  0.00    +0.000 N 
ATOM      4  C   UNL     1       2.020   8.180  18.859  0.00  0.00    +0.000 A 
ATOM      5  C   UNL     1       1.239   8.498  19.973  0.00  0.00    +0.000 A 
ATOM      6  N   UNL     1       1.245   7.468  20.905  0.00  0.00    +0.000 NA
ATOM      7  C   UNL     1       1.957   6.546  20.322  0.00  0.00    +0.000 A 
ATOM      8  S   UNL     1       2.468   4.964  20.719  0.00  0.00    +0.000 S 
ENDROOT
BRANCH   5   9
ATOM      9  C   UNL     1       0.489   9.732  20.184  0.00  0.00    +0.000 A 
ATOM     10  C   UNL     1       0.834  10.636  21.201  0.00  0.00    +0.000 A 
ATOM     11  C   UNL     1       0.074  11.786  21.429  0.00  0.00    +0.000 A 
ATOM     12  C   UNL     1      -1.018  12.064  20.613  0.00  0.00    +0.000 A 
ATOM     13 CL   UNL     1      -1.958  13.475  20.903  0.00  0.00    +0.000 Cl
ATOM     14  C   UNL     1      -1.344  11.209  19.563  0.00  0.00    +0.000 A 
ATOM     15  C   UNL     1      -0.592  10.048  19.347  0.00  0.00    +0.000 A 
ENDBRANCH   5   9
BRANCH   1  16
ATOM     16  S   UNL     1       4.225   3.525  18.567  0.00  0.00    +0.000 S 
ATOM     17  O   UNL     1       3.290   2.724  17.799  0.00  0.00    +0.000 OA
ATOM     18  O   UNL     1       4.844   2.987  19.764  0.00  0.00    +0.000 OA
BRANCH  16  23
ATOM     19  C   UNL     1       5.911   3.885  13.927  0.00  0.00    +0.000 C 
ATOM     20  N   UNL     1       6.106   4.283  15.311  0.00  0.00    +0.000 N 
ATOM     21  C   UNL     1       7.238   5.139  15.626  0.00  0.00    +0.000 C 
ATOM     22  C   UNL     1       5.255   3.849  16.299  0.00  0.00    +0.000 C 
ATOM     23  N   UNL     1       5.338   4.140  17.552  0.00  0.00    +0.000 NA
ENDBRANCH  16  23
ENDBRANCH   1  16
BRANCH   4  24
ATOM     24  C   UNL     1       2.375   8.945  17.702  0.00  0.00    +0.000 C 
ATOM     25  O   UNL     1       2.364  10.170  17.630  0.00  0.00    +0.000 OA
ENDBRANCH   4  24
TORSDOF 4
ENDMDL
MODEL 2
REMARK VINA RESULT:      -7.1      0.475      1.050
REMARK  Name = 
REMARK  6 active torsions:
REMARK  status: ('A' for Active; 'I' for Inactive)
REMARK    1  A    between atoms: C_1  and  N_2
REMARK    2  A    between atoms: N_2  and  C_3
REMARK    3  A    between atoms: N_5  and  S_6
REMARK    4  A    between atoms: S_6  and  C_9
REMARK    5  A    between atoms: C_12  and  C_13
REMARK    6  A    between atoms: C_15  and  C_16
REMARK                            x       y       z     vdW  Elec       q    Type
REMARK                         _______ _______ _______ _____ _____    ______ ____
ROOT
ATOM      1  C   UNL     1       3.271   4.764  19.322  0.00  0.00    +0.000 A 
ATOM      2  N   UNL     1       3.255   5.919  18.698  0.00  0.00    +0.000 NA
ATOM      3  N   UNL     1       2.427   6.719  19.409  0.00  0.00    +0.000 N 
ATOM      4  C   UNL     1       2.045   8.021  19.253  0.00  0.00    +0.000 A 
ATOM      5  C   UNL     1       1.168   8.243  20.318  0.00  0.00    +0.000 A 
ATOM      6  N   UNL     1       1.085   7.129  21.144  0.00  0.00    +0.000 NA
ATOM      7  C   UNL     1       1.842   6.257  20.541  0.00  0.00    +0.000 A 
ATOM      8  S   UNL     1       2.308   4.638  20.830  0.00  0.00    +0.000 S 
ENDROOT
BRANCH   5   9
ATOM      9  C   UNL     1       0.407   9.461  20.578  0.00  0.00    +0.000 A 
ATOM     10  C   UNL     1      -0.431  10.023  19.603  0.00  0.00    +0.000 A 
ATOM     11  C   UNL     1      -1.110  11.221  19.843  0.00  0.00    +0.000 A 
ATOM     12  C   UNL     1      -0.989  11.846  21.080  0.00  0.00    +0.000 A 
ATOM     13 CL   UNL     1      -1.818  13.325  21.369  0.00  0.00    +0.000 Cl
ATOM     14  C   UNL     1      -0.207  11.275  22.081  0.00  0.00    +0.000 A 
ATOM     15  C   UNL     1       0.487  10.084  21.832  0.00  0.00    +0.000 A 
ENDBRANCH   5   9
BRANCH   1  16
ATOM     16  S   UNL     1       4.247   3.387  18.716  0.00  0.00    +0.000 S 
ATOM     17  O   UNL     1       3.331   2.577  17.934  0.00  0.00    +0.000 OA
ATOM     18  O   UNL     1       4.894   2.836  19.893  0.00  0.00    +0.000 OA
BRANCH  16  23
ATOM     19  C   UNL     1       5.788   4.053  14.060  0.00  0.00    +0.000 C 
ATOM     20  N   UNL     1       6.029   4.357  15.460  0.00  0.00    +0.000 N 
ATOM     21  C   UNL     1       7.173   5.187  15.796  0.00  0.00    +0.000 C 
ATOM     22  C   UNL     1       5.207   3.859  16.443  0.00  0.00    +0.000 C 
ATOM     23  N   UNL     1       5.330   4.066  17.710  0.00  0.00    +0.000 NA
ENDBRANCH  16  23
ENDBRANCH   1  16
BRANCH   4  24
ATOM     24  C   UNL     1       2.507   8.888  18.212  0.00  0.00    +0.000 C 
ATOM     25  O   UNL     1       1.858   9.222  17.225  0.00  0.00    +0.000 OA
ENDBRANCH   4  24
TORSDOF 4
ENDMDL
MODEL 3
REMARK VINA RESULT:      -7.0      2.346      3.074
REMARK  Name = 
REMARK  6 active torsions:
REMARK  status: ('A' for Active; 'I' for Inactive)
REMARK    1  A    between atoms: C_1  and  N_2
REMARK    2  A    between atoms: N_2  and  C_3
REMARK    3  A    between atoms: N_5  and  S_6
REMARK    4  A    between atoms: S_6  and  C_9
REMARK    5  A    between atoms: C_12  and  C_13
REMARK    6  A    between atoms: C_15  and  C_16
REMARK                            x       y       z     vdW  Elec       q    Type
REMARK                         _______ _______ _______ _____ _____    ______ ____
ROOT
ATOM      1  C   UNL     1       2.331   6.814  19.598  0.00  0.00    +0.000 A 
ATOM      2  N   UNL     1       1.708   7.247  20.670  0.00  0.00    +0.000 NA
ATOM      3  N   UNL     1       1.310   8.509  20.390  0.00  0.00    +0.000 N 
ATOM      4  C   UNL     1       0.608   9.435  21.109  0.00  0.00    +0.000 A 
ATOM      5  C   UNL     1       0.539  10.539  20.255  0.00  0.00    +0.000 A 
ATOM      6  N   UNL     1       1.112  10.260  19.020  0.00  0.00    +0.000 NA
ATOM      7  C   UNL     1       1.563   9.048  19.172  0.00  0.00    +0.000 A 
ATOM      8  S   UNL     1       2.405   7.927  18.193  0.00  0.00    +0.000 S 
ENDROOT
BRANCH   5   9
ATOM      9  C   UNL     1      -0.042  11.841  20.565  0.00  0.00    +0.000 A 
ATOM     10  C   UNL     1       0.749  12.910  21.014  0.00  0.00    +0.000 A 
ATOM     11  C   UNL     1       0.174  14.135  21.362  0.00  0.00    +0.000 A 
ATOM     12  C   UNL     1      -1.199  14.316  21.224  0.00  0.00    +0.000 A 
ATOM     13 CL   UNL     1      -1.905  15.820  21.664  0.00  0.00    +0.000 Cl
ATOM     14  C   UNL     1      -1.995  13.287  20.728  0.00  0.00    +0.000 A 
ATOM     15  C   UNL     1      -1.419  12.054  20.396  0.00  0.00    +0.000 A 
ENDBRANCH   5   9
BRANCH   1  16
ATOM     16  S   UNL     1       3.039   5.169  19.527  0.00  0.00    +0.000 S 
ATOM     17  O   UNL     1       2.622   4.621  18.250  0.00  0.00    +0.000 OA
ATOM     18  O   UNL     1       2.635   4.531  20.767  0.00  0.00    +0.000 OA
BRANCH  16  23
ATOM     19  C   UNL     1       7.311   4.541  17.107  0.00  0.00    +0.000 C 
ATOM     20  N   UNL     1       6.668   5.093  18.288  0.00  0.00    +0.000 N 
ATOM     21  C   UNL     1       7.501   5.764  19.272  0.00  0.00    +0.000 C 
ATOM     22  C   UNL     1       5.313   4.968  18.480  0.00  0.00    +0.000 C 
ATOM     23  N   UNL     1       4.646   5.418  19.488  0.00  0.00    +0.000 NA
ENDBRANCH  16  23
ENDBRANCH   1  16
BRANCH   4  24
ATOM     24  C   UNL     1       0.088   9.222  22.425  0.00  0.00    +0.000 C 
ATOM     25  O   UNL     1       0.561   9.684  23.460  0.00  0.00    +0.000 OA
ENDBRANCH   4  24
TORSDOF 4
ENDMDL
MODEL 4
REMARK VINA RESULT:      -6.9      1.382      1.786
REMARK  Name = 
REMARK  6 active torsions:
REMARK  status: ('A' for Active; 'I' for Inactive)
REMARK    1  A    between atoms: C_1  and  N_2
REMARK    2  A    between atoms: N_2  and  C_3
REMARK    3  A    between atoms: N_5  and  S_6
REMARK    4  A    between atoms: S_6  and  C_9
REMARK    5  A    between atoms: C_12  and  C_13
REMARK    6  A    between atoms: C_15  and  C_16
REMARK                            x       y       z     vdW  Elec       q    Type
REMARK                         _______ _______ _______ _____ _____    ______ ____
ROOT
ATOM      1  C   UNL     1       2.684   4.652  18.943  0.00  0.00    +0.000 A 
ATOM      2  N   UNL     1       2.679   5.860  18.428  0.00  0.00    +0.000 NA
ATOM      3  N   UNL     1       2.099   6.660  19.353  0.00  0.00    +0.000 N 
ATOM      4  C   UNL     1       1.845   8.002  19.380  0.00  0.00    +0.000 A 
ATOM      5  C   UNL     1       1.220   8.199  20.615  0.00  0.00    +0.000 A 
ATOM      6  N   UNL     1       1.172   7.021  21.350  0.00  0.00    +0.000 NA
ATOM      7  C   UNL     1       1.695   6.146  20.540  0.00  0.00    +0.000 A 
ATOM      8  S   UNL     1       2.021   4.469  20.599  0.00  0.00    +0.000 S 
ENDROOT
BRANCH   5   9
ATOM      9  C   UNL     1       0.666   9.452  21.118  0.00  0.00    +0.000 A 
ATOM     10  C   UNL     1       0.892  10.670  20.459  0.00  0.00    +0.000 A 
ATOM     11  C   UNL     1       0.405  11.872  20.981  0.00  0.00    +0.000 A 
ATOM     12  C   UNL     1      -0.351  11.859  22.149  0.00  0.00    +0.000 A 
ATOM     13 CL   UNL     1      -0.940  13.340  22.795  0.00  0.00    +0.000 Cl
ATOM     14  C   UNL     1      -0.634  10.655  22.789  0.00  0.00    +0.000 A 
ATOM     15  C   UNL     1      -0.129   9.454  22.273  0.00  0.00    +0.000 A 
ENDBRANCH   5   9
BRANCH   1  16
ATOM     16  S   UNL     1       3.362   3.256  18.046  0.00  0.00    +0.000 S 
ATOM     17  O   UNL     1       2.402   2.965  16.997  0.00  0.00    +0.000 OA
ATOM     18  O   UNL     1       3.663   2.264  19.062  0.00  0.00    +0.000 OA
BRANCH  16  23
ATOM     19  C   UNL     1       7.716   5.528  18.661  0.00  0.00    +0.000 C 
ATOM     20  N   UNL     1       6.800   4.922  17.709  0.00  0.00    +0.000 N 
ATOM     21  C   UNL     1       7.177   4.912  16.306  0.00  0.00    +0.000 C 
ATOM     22  C   UNL     1       5.602   4.389  18.120  0.00  0.00    +0.000 C 
ATOM     23  N   UNL     1       4.721   3.831  17.362  0.00  0.00    +0.000 NA
ENDBRANCH  16  23
ENDBRANCH   1  16
BRANCH   4  24
ATOM     24  C   UNL     1       2.193   8.920  18.339  0.00  0.00    +0.000 C 
ATOM     25  O   UNL     1       1.535   9.125  17.323  0.00  0.00    +0.000 OA
ENDBRANCH   4  24
TORSDOF 4
ENDMDL
MODEL 5
REMARK VINA RESULT:      -6.9      4.236      8.663
REMARK  Name = 
REMARK  6 active torsions:
REMARK  status: ('A' for Active; 'I' for Inactive)
REMARK    1  A    between atoms: C_1  and  N_2
REMARK    2  A    between atoms: N_2  and  C_3
REMARK    3  A    between atoms: N_5  and  S_6
REMARK    4  A    between atoms: S_6  and  C_9
REMARK    5  A    between atoms: C_12  and  C_13
REMARK    6  A    between atoms: C_15  and  C_16
REMARK                            x       y       z     vdW  Elec       q    Type
REMARK                         _______ _______ _______ _____ _____    ______ ____
ROOT
ATOM      1  C   UNL     1       0.891   8.781  20.953  0.00  0.00    +0.000 A 
ATOM      2  N   UNL     1       1.473   7.608  21.041  0.00  0.00    +0.000 NA
ATOM      3  N   UNL     1       2.113   7.416  19.864  0.00  0.00    +0.000 N 
ATOM      4  C   UNL     1       2.893   6.397  19.395  0.00  0.00    +0.000 A 
ATOM      5  C   UNL     1       3.239   6.808  18.105  0.00  0.00    +0.000 A 
ATOM      6  N   UNL     1       2.750   8.079  17.831  0.00  0.00    +0.000 NA
ATOM      7  C   UNL     1       2.079   8.375  18.908  0.00  0.00    +0.000 A 
ATOM      8  S   UNL     1       1.152   9.710  19.440  0.00  0.00    +0.000 S 
ENDROOT
BRANCH   5   9
ATOM      9  C   UNL     1       4.008   6.045  17.128  0.00  0.00    +0.000 A 
ATOM     10  C   UNL     1       3.937   4.644  17.072  0.00  0.00    +0.000 A 
ATOM     11  C   UNL     1       4.721   3.920  16.169  0.00  0.00    +0.000 A 
ATOM     12  C   UNL     1       5.555   4.595  15.283  0.00  0.00    +0.000 A 
ATOM     13 CL   UNL     1       6.526   3.701  14.181  0.00  0.00    +0.000 Cl
ATOM     14  C   UNL     1       5.598   5.988  15.284  0.00  0.00    +0.000 A 
ATOM     15  C   UNL     1       4.825   6.711  16.202  0.00  0.00    +0.000 A 
ENDBRANCH   5   9
BRANCH   1  16
ATOM     16  S   UNL     1      -0.086   9.445  22.302  0.00  0.00    +0.000 S 
ATOM     17  O   UNL     1       0.871   9.840  23.318  0.00  0.00    +0.000 OA
ATOM     18  O   UNL     1      -1.080   8.425  22.585  0.00  0.00    +0.000 OA
BRANCH  16  23
ATOM     19  C   UNL     1      -0.449  14.380  22.393  0.00  0.00    +0.000 C 
ATOM     20  N   UNL     1      -0.911  13.153  21.768  0.00  0.00    +0.000 N 
ATOM     21  C   UNL     1      -1.909  13.251  20.715  0.00  0.00    +0.000 C 
ATOM     22  C   UNL     1      -0.433  11.929  22.171  0.00  0.00    +0.000 C 
ATOM     23  N   UNL     1      -0.774  10.784  21.686  0.00  0.00    +0.000 NA
ENDBRANCH  16  23
ENDBRANCH   1  16
BRANCH   4  24
ATOM     24  C   UNL     1       3.236   5.223  20.139  0.00  0.00    +0.000 C 
ATOM     25  O   UNL     1       2.483   4.280  20.365  0.00  0.00    +0.000 OA
ENDBRANCH   4  24
TORSDOF 4
ENDMDL
MODEL 6
REMARK VINA RESULT:      -6.9      1.074      1.183
REMARK  Name = 
REMARK  6 active torsions:
REMARK  status: ('A' for Active; 'I' for Inactive)
REMARK    1  A    between atoms: C_1  and  N_2
REMARK    2  A    between atoms: N_2  and  C_3
REMARK    3  A    between atoms: N_5  and  S_6
REMARK    4  A    between atoms: S_6  and  C_9
REMARK    5  A    between atoms: C_12  and  C_13
REMARK    6  A    between atoms: C_15  and  C_16
REMARK                            x       y       z     vdW  Elec       q    Type
REMARK                         _______ _______ _______ _____ _____    ______ ____
ROOT
ATOM      1  C   UNL     1       2.737   4.708  19.063  0.00  0.00    +0.000 A 
ATOM      2  N   UNL     1       2.704   5.906  18.526  0.00  0.00    +0.000 NA
ATOM      3  N   UNL     1       2.124   6.713  19.444  0.00  0.00    +0.000 N 
ATOM      4  C   UNL     1       1.847   8.051  19.449  0.00  0.00    +0.000 A 
ATOM      5  C   UNL     1       1.237   8.261  20.689  0.00  0.00    +0.000 A 
ATOM      6  N   UNL     1       1.219   7.096  21.447  0.00  0.00    +0.000 NA
ATOM      7  C   UNL     1       1.746   6.215  20.646  0.00  0.00    +0.000 A 
ATOM      8  S   UNL     1       2.101   4.545  20.732  0.00  0.00    +0.000 S 
ENDROOT
BRANCH   5   9
ATOM      9  C   UNL     1       0.669   9.513  21.177  0.00  0.00    +0.000 A 
ATOM     10  C   UNL     1      -0.208   9.544  22.272  0.00  0.00    +0.000 A 
ATOM     11  C   UNL     1      -0.790  10.743  22.694  0.00  0.00    +0.000 A 
ATOM     12  C   UNL     1      -0.466  11.931  22.048  0.00  0.00    +0.000 A 
ATOM     13 CL   UNL     1      -1.192  13.403  22.563  0.00  0.00    +0.000 Cl
ATOM     14  C   UNL     1       0.445  11.931  20.995  0.00  0.00    +0.000 A 
ATOM     15  C   UNL     1       1.013  10.726  20.562  0.00  0.00    +0.000 A 
ENDBRANCH   5   9
BRANCH   1  16
ATOM     16  S   UNL     1       3.426   3.306  18.182  0.00  0.00    +0.000 S 
ATOM     17  O   UNL     1       2.524   3.064  17.072  0.00  0.00    +0.000 OA
ATOM     18  O   UNL     1       3.634   2.288  19.197  0.00  0.00    +0.000 OA
BRANCH  16  23
ATOM     19  C   UNL     1       6.315   4.016  14.227  0.00  0.00    +0.000 C 
ATOM     20  N   UNL     1       6.189   4.171  15.666  0.00  0.00    +0.000 N 
ATOM     21  C   UNL     1       7.302   4.756  16.394  0.00  0.00    +0.000 C 
ATOM     22  C   UNL     1       5.055   3.760  16.325  0.00  0.00    +0.000 C 
ATOM     23  N   UNL     1       4.842   3.850  17.594  0.00  0.00    +0.000 NA
ENDBRANCH  16  23
ENDBRANCH   1  16
BRANCH   4  24
ATOM     24  C   UNL     1       2.165   8.955  18.386  0.00  0.00    +0.000 C 
ATOM     25  O   UNL     1       1.423   9.240  17.450  0.00  0.00    +0.000 OA
ENDBRANCH   4  24
TORSDOF 4
ENDMDL
MODEL 7
REMARK VINA RESULT:      -6.8      3.015      4.219
REMARK  Name = 
REMARK  6 active torsions:
REMARK  status: ('A' for Active; 'I' for Inactive)
REMARK    1  A    between atoms: C_1  and  N_2
REMARK    2  A    between atoms: N_2  and  C_3
REMARK    3  A    between atoms: N_5  and  S_6
REMARK    4  A    between atoms: S_6  and  C_9
REMARK    5  A    between atoms: C_12  and  C_13
REMARK    6  A    between atoms: C_15  and  C_16
REMARK                            x       y       z     vdW  Elec       q    Type
REMARK                         _______ _______ _______ _____ _____    ______ ____
ROOT
ATOM      1  C   UNL     1       2.517   7.423  18.977  0.00  0.00    +0.000 A 
ATOM      2  N   UNL     1       2.011   7.632  20.170  0.00  0.00    +0.000 NA
ATOM      3  N   UNL     1       1.344   8.807  20.094  0.00  0.00    +0.000 N 
ATOM      4  C   UNL     1       0.612   9.511  21.008  0.00  0.00    +0.000 A 
ATOM      5  C   UNL     1       0.198  10.645  20.303  0.00  0.00    +0.000 A 
ATOM      6  N   UNL     1       0.601  10.588  18.974  0.00  0.00    +0.000 NA
ATOM      7  C   UNL     1       1.288   9.483  18.921  0.00  0.00    +0.000 A 
ATOM      8  S   UNL     1       2.151   8.639  17.710  0.00  0.00    +0.000 S 
ENDROOT
BRANCH   5   9
ATOM      9  C   UNL     1      -0.555  11.774  20.839  0.00  0.00    +0.000 A 
ATOM     10  C   UNL     1       0.042  12.715  21.692  0.00  0.00    +0.000 A 
ATOM     11  C   UNL     1      -0.704  13.760  22.244  0.00  0.00    +0.000 A 
ATOM     12  C   UNL     1      -2.049  13.897  21.914  0.00  0.00    +0.000 A 
ATOM     13 CL   UNL     1      -2.967  15.177  22.604  0.00  0.00    +0.000 Cl
ATOM     14  C   UNL     1      -2.647  13.006  21.025  0.00  0.00    +0.000 A 
ATOM     15  C   UNL     1      -1.901  11.949  20.487  0.00  0.00    +0.000 A 
ENDBRANCH   5   9
BRANCH   1  16
ATOM     16  S   UNL     1       3.497   5.964  18.619  0.00  0.00    +0.000 S 
ATOM     17  O   UNL     1       4.463   5.871  19.697  0.00  0.00    +0.000 OA
ATOM     18  O   UNL     1       3.940   6.135  17.247  0.00  0.00    +0.000 OA
BRANCH  16  23
ATOM     19  C   UNL     1       1.399   2.551  21.526  0.00  0.00    +0.000 C 
ATOM     20  N   UNL     1       1.470   3.109  20.186  0.00  0.00    +0.000 N 
ATOM     21  C   UNL     1       0.644   2.514  19.150  0.00  0.00    +0.000 C 
ATOM     22  C   UNL     1       2.310   4.160  19.900  0.00  0.00    +0.000 C 
ATOM     23  N   UNL     1       2.449   4.727  18.751  0.00  0.00    +0.000 NA
ENDBRANCH  16  23
ENDBRANCH   1  16
BRANCH   4  24
ATOM     24  C   UNL     1       0.365   9.091  22.354  0.00  0.00    +0.000 C 
ATOM     25  O   UNL     1       0.744   9.680  23.363  0.00  0.00    +0.000 OA
ENDBRANCH   4  24
TORSDOF 4
ENDMDL
MODEL 8
REMARK VINA RESULT:      -6.7      4.741      9.038
REMARK  Name = 
REMARK  6 active torsions:
REMARK  status: ('A' for Active; 'I' for Inactive)
REMARK    1  A    between atoms: C_1  and  N_2
REMARK    2  A    between atoms: N_2  and  C_3
REMARK    3  A    between atoms: N_5  and  S_6
REMARK    4  A    between atoms: S_6  and  C_9
REMARK    5  A    between atoms: C_12  and  C_13
REMARK    6  A    between atoms: C_15  and  C_16
REMARK                            x       y       z     vdW  Elec       q    Type
REMARK                         _______ _______ _______ _____ _____    ______ ____
ROOT
ATOM      1  C   UNL     1      -0.089  10.845  21.600  0.00  0.00    +0.000 A 
ATOM      2  N   UNL     1       0.334  10.832  20.358  0.00  0.00    +0.000 NA
ATOM      3  N   UNL     1       0.918   9.625  20.172  0.00  0.00    +0.000 N 
ATOM      4  C   UNL     1       1.509   9.045  19.086  0.00  0.00    +0.000 A 
ATOM      5  C   UNL     1       1.917   7.794  19.555  0.00  0.00    +0.000 A 
ATOM      6  N   UNL     1       1.510   7.590  20.868  0.00  0.00    +0.000 NA
ATOM      7  C   UNL     1       0.938   8.717  21.178  0.00  0.00    +0.000 A 
ATOM      8  S   UNL     1       0.174   9.357  22.567  0.00  0.00    +0.000 S 
ENDROOT
BRANCH   5   9
ATOM      9  C   UNL     1       2.677   6.793  18.813  0.00  0.00    +0.000 A 
ATOM     10  C   UNL     1       3.710   7.159  17.936  0.00  0.00    +0.000 A 
ATOM     11  C   UNL     1       4.392   6.196  17.187  0.00  0.00    +0.000 A 
ATOM     12  C   UNL     1       4.074   4.850  17.340  0.00  0.00    +0.000 A 
ATOM     13 CL   UNL     1       4.907   3.669  16.410  0.00  0.00    +0.000 Cl
ATOM     14  C   UNL     1       3.090   4.461  18.246  0.00  0.00    +0.000 A 
ATOM     15  C   UNL     1       2.395   5.430  18.983  0.00  0.00    +0.000 A 
ENDBRANCH   5   9
BRANCH   1  16
ATOM     16  S   UNL     1      -0.928  12.272  22.288  0.00  0.00    +0.000 S 
ATOM     17  O   UNL     1      -0.043  13.397  22.049  0.00  0.00    +0.000 OA
ATOM     18  O   UNL     1      -1.278  11.887  23.644  0.00  0.00    +0.000 OA
BRANCH  16  23
ATOM     19  C   UNL     1      -5.839  12.861  22.090  0.00  0.00    +0.000 C 
ATOM     20  N   UNL     1      -4.612  12.732  21.322  0.00  0.00    +0.000 N 
ATOM     21  C   UNL     1      -4.704  12.757  19.872  0.00  0.00    +0.000 C 
ATOM     22  C   UNL     1      -3.399  12.572  21.948  0.00  0.00    +0.000 C 
ATOM     23  N   UNL     1      -2.256  12.448  21.364  0.00  0.00    +0.000 NA
ENDBRANCH  16  23
ENDBRANCH   1  16
BRANCH   4  24
ATOM     24  C   UNL     1       1.622   9.655  17.795  0.00  0.00    +0.000 C 
ATOM     25  O   UNL     1       2.378  10.578  17.509  0.00  0.00    +0.000 OA
ENDBRANCH   4  24
TORSDOF 4
ENDMDL
MODEL 9
REMARK VINA RESULT:      -6.7      0.783      1.150
REMARK  Name = 
REMARK  6 active torsions:
REMARK  status: ('A' for Active; 'I' for Inactive)
REMARK    1  A    between atoms: C_1  and  N_2
REMARK    2  A    between atoms: N_2  and  C_3
REMARK    3  A    between atoms: N_5  and  S_6
REMARK    4  A    between atoms: S_6  and  C_9
REMARK    5  A    between atoms: C_12  and  C_13
REMARK    6  A    between atoms: C_15  and  C_16
REMARK                            x       y       z     vdW  Elec       q    Type
REMARK                         _______ _______ _______ _____ _____    ______ ____
ROOT
ATOM      1  C   UNL     1       3.169   4.881  19.183  0.00  0.00    +0.000 A 
ATOM      2  N   UNL     1       3.033   5.951  18.434  0.00  0.00    +0.000 NA
ATOM      3  N   UNL     1       2.307   6.830  19.163  0.00  0.00    +0.000 N 
ATOM      4  C   UNL     1       1.878   8.102  18.912  0.00  0.00    +0.000 A 
ATOM      5  C   UNL     1       1.170   8.450  20.065  0.00  0.00    +0.000 A 
ATOM      6  N   UNL     1       1.238   7.445  21.023  0.00  0.00    +0.000 NA
ATOM      7  C   UNL     1       1.912   6.509  20.419  0.00  0.00    +0.000 A 
ATOM      8  S   UNL     1       2.451   4.938  20.826  0.00  0.00    +0.000 S 
ENDROOT
BRANCH   5   9
ATOM      9  C   UNL     1       0.432   9.689  20.291  0.00  0.00    +0.000 A 
ATOM     10  C   UNL     1       0.701  10.513  21.395  0.00  0.00    +0.000 A 
ATOM     11  C   UNL     1      -0.050  11.667  21.631  0.00  0.00    +0.000 A 
ATOM     12  C   UNL     1      -1.053  12.031  20.739  0.00  0.00    +0.000 A 
ATOM     13 CL   UNL     1      -1.983  13.447  21.038  0.00  0.00    +0.000 Cl
ATOM     14  C   UNL     1      -1.300  11.258  19.607  0.00  0.00    +0.000 A 
ATOM     15  C   UNL     1      -0.558  10.092  19.382  0.00  0.00    +0.000 A 
ENDBRANCH   5   9
BRANCH   1  16
ATOM     16  S   UNL     1       4.069   3.442  18.604  0.00  0.00    +0.000 S 
ATOM     17  O   UNL     1       3.083   2.606  17.945  0.00  0.00    +0.000 OA
ATOM     18  O   UNL     1       4.788   2.953  19.767  0.00  0.00    +0.000 OA
BRANCH  16  23
ATOM     19  C   UNL     1       7.561   6.752  17.443  0.00  0.00    +0.000 C 
ATOM     20  N   UNL     1       6.764   5.632  16.974  0.00  0.00    +0.000 N 
ATOM     21  C   UNL     1       6.949   5.184  15.604  0.00  0.00    +0.000 C 
ATOM     22  C   UNL     1       5.847   5.022  17.796  0.00  0.00    +0.000 C 
ATOM     23  N   UNL     1       5.091   4.025  17.481  0.00  0.00    +0.000 NA
ENDBRANCH  16  23
ENDBRANCH   1  16
BRANCH   4  24
ATOM     24  C   UNL     1       2.157   8.836  17.715  0.00  0.00    +0.000 C 
ATOM     25  O   UNL     1       2.492  10.016  17.667  0.00  0.00    +0.000 OA
ENDBRANCH   4  24
TORSDOF 4
ENDMDL
