MODEL 1
REMARK VINA RESULT:      -8.2      0.000      0.000
REMARK  Name = 
REMARK  9 active torsions:
REMARK  status: ('A' for Active; 'I' for Inactive)
REMARK    1  A    between atoms: C_2  and  O_3
REMARK    2  A    between atoms: C_2  and  C_4
REMARK    3  A    between atoms: C_4  and  C_5
REMARK    4  A    between atoms: C_5  and  C_6
REMARK    5  A    between atoms: C_11  and  C_12
REMARK    6  A    between atoms: C_12  and  C_13
REMARK    7  A    between atoms: C_19  and  C_20
REMARK    8  A    between atoms: C_22  and  C_23
REMARK    9  A    between atoms: C_23  and  O_24
REMARK                            x       y       z     vdW  Elec       q    Type
REMARK                         _______ _______ _______ _____ _____    ______ ____
ROOT
ATOM      1  C   UNK     1       3.306   4.300  17.853  0.00  0.00    +0.000 C 
ATOM      2  C   UNK     1       2.282   3.195  17.495  0.00  0.00    +0.000 C 
ATOM      3  C   UNK     1       2.252   2.003  18.448  0.00  0.00    +0.000 C 
ATOM      4  C   UNK     1       1.689   2.615  19.730  0.00  0.00    +0.000 C 
ATOM      5  C   UNK     1       1.383   4.043  19.286  0.00  0.00    +0.000 C 
ATOM      6  O   UNK     1       1.040   3.842  17.891  0.00  0.00    +0.000 OA
ATOM      7  C   UNK     1       2.690   4.848  19.173  0.00  0.00    +0.000 C 
ENDROOT
BRANCH   7   8
ATOM      8  C   UNK     1       2.363   6.306  19.213  0.00  0.00    +0.000 A 
ATOM      9  N   UNK     1       2.438   7.151  18.201  0.00  0.00    +0.000 NA
ATOM     10  C   UNK     1       1.982   8.345  18.724  0.00  0.00    +0.000 A 
ATOM     11  C   UNK     1       1.653   8.166  20.045  0.00  0.00    +0.000 A 
ATOM     12  O   UNK     1       1.881   6.860  20.368  0.00  0.00    +0.000 OA
BRANCH  10  13
ATOM     13  C   UNK     1       1.880   9.545  17.854  0.00  0.00    +0.000 C 
BRANCH  13  14
ATOM     14  O   UNK     1       0.523   9.968  17.715  0.00  0.00    +0.000 OA
ATOM     15  H   UNK     1       0.586  10.891  17.390  0.00  0.00    +0.000 HD
ENDBRANCH  13  14
ENDBRANCH  10  13
ENDBRANCH   7   8
BRANCH   1  16
ATOM     16  C   UNK     1       4.799   3.877  18.023  0.00  0.00    +0.000 C 
BRANCH  16  22
ATOM     17  C   UNK     1       6.307   5.713  16.961  0.00  0.00    +0.000 A 
ATOM     18  C   UNK     1       7.303   6.699  17.138  0.00  0.00    +0.000 A 
ATOM     19  C   UNK     1       7.992   6.839  18.340  0.00  0.00    +0.000 A 
ATOM     20  C   UNK     1       7.681   6.023  19.400  0.00  0.00    +0.000 A 
ATOM     21  C   UNK     1       6.645   5.088  19.279  0.00  0.00    +0.000 A 
ATOM     22  C   UNK     1       5.915   4.924  18.084  0.00  0.00    +0.000 A 
BRANCH  17  23
ATOM     23  C   UNK     1       5.718   5.629  15.555  0.00  0.00    +0.000 C 
BRANCH  23  24
ATOM     24  C   UNK     1       6.118   4.401  14.707  0.00  0.00    +0.000 C 
BRANCH  24  26
ATOM     25  O   UNK     1       6.855   4.068  12.405  0.00  0.00    +0.000 OA
ATOM     26  C   UNK     1       6.962   4.649  13.474  0.00  0.00    +0.000 C 
BRANCH  26  27
ATOM     27  O   UNK     1       7.970   5.532  13.702  0.00  0.00    +0.000 OA
ATOM     28  H   UNK     1       7.989   5.907  14.600  0.00  0.00    +0.000 HD
ENDBRANCH  26  27
ENDBRANCH  24  26
ENDBRANCH  23  24
ENDBRANCH  17  23
ENDBRANCH  16  22
ENDBRANCH   1  16
TORSDOF 9
ENDMDL
MODEL 2
REMARK VINA RESULT:      -8.1      1.179      1.474
REMARK  Name = 
REMARK  9 active torsions:
REMARK  status: ('A' for Active; 'I' for Inactive)
REMARK    1  A    between atoms: C_2  and  O_3
REMARK    2  A    between atoms: C_2  and  C_4
REMARK    3  A    between atoms: C_4  and  C_5
REMARK    4  A    between atoms: C_5  and  C_6
REMARK    5  A    between atoms: C_11  and  C_12
REMARK    6  A    between atoms: C_12  and  C_13
REMARK    7  A    between atoms: C_19  and  C_20
REMARK    8  A    between atoms: C_22  and  C_23
REMARK    9  A    between atoms: C_23  and  O_24
REMARK                            x       y       z     vdW  Elec       q    Type
REMARK                         _______ _______ _______ _____ _____    ______ ____
ROOT
ATOM      1  C   UNK     1       3.007   4.357  18.629  0.00  0.00    +0.000 C 
ATOM      2  C   UNK     1       2.020   3.331  19.238  0.00  0.00    +0.000 C 
ATOM      3  C   UNK     1       2.466   2.705  20.557  0.00  0.00    +0.000 C 
ATOM      4  C   UNK     1       2.403   3.886  21.525  0.00  0.00    +0.000 C 
ATOM      5  C   UNK     1       1.831   4.988  20.637  0.00  0.00    +0.000 C 
ATOM      6  O   UNK     1       0.985   4.223  19.740  0.00  0.00    +0.000 OA
ATOM      7  C   UNK     1       2.917   5.504  19.676  0.00  0.00    +0.000 C 
ENDROOT
BRANCH   7   8
ATOM      8  C   UNK     1       2.513   6.852  19.171  0.00  0.00    +0.000 A 
ATOM      9  N   UNK     1       1.813   7.755  19.832  0.00  0.00    +0.000 NA
ATOM     10  C   UNK     1       1.756   8.834  18.972  0.00  0.00    +0.000 A 
ATOM     11  C   UNK     1       2.430   8.528  17.815  0.00  0.00    +0.000 A 
ATOM     12  O   UNK     1       2.931   7.265  17.935  0.00  0.00    +0.000 OA
BRANCH  10  13
ATOM     13  C   UNK     1       1.070  10.083  19.393  0.00  0.00    +0.000 C 
BRANCH  13  14
ATOM     14  O   UNK     1      -0.135  10.284  18.653  0.00  0.00    +0.000 OA
ATOM     15  H   UNK     1      -0.210  11.259  18.567  0.00  0.00    +0.000 HD
ENDBRANCH  13  14
ENDBRANCH  10  13
ENDBRANCH   7   8
BRANCH   1  16
ATOM     16  C   UNK     1       4.477   3.890  18.382  0.00  0.00    +0.000 C 
BRANCH  16  22
ATOM     17  C   UNK     1       5.917   5.651  17.117  0.00  0.00    +0.000 A 
ATOM     18  C   UNK     1       6.955   6.608  17.162  0.00  0.00    +0.000 A 
ATOM     19  C   UNK     1       7.772   6.755  18.280  0.00  0.00    +0.000 A 
ATOM     20  C   UNK     1       7.551   5.974  19.389  0.00  0.00    +0.000 A 
ATOM     21  C   UNK     1       6.481   5.070  19.403  0.00  0.00    +0.000 A 
ATOM     22  C   UNK     1       5.624   4.902  18.296  0.00  0.00    +0.000 A 
BRANCH  17  23
ATOM     23  C   UNK     1       5.180   5.552  15.784  0.00  0.00    +0.000 C 
BRANCH  23  24
ATOM     24  C   UNK     1       5.426   4.277  14.947  0.00  0.00    +0.000 C 
BRANCH  24  26
ATOM     25  O   UNK     1       7.359   5.209  13.786  0.00  0.00    +0.000 OA
ATOM     26  C   UNK     1       6.521   4.329  13.901  0.00  0.00    +0.000 C 
BRANCH  26  27
ATOM     27  O   UNK     1       6.418   3.325  12.990  0.00  0.00    +0.000 OA
ATOM     28  H   UNK     1       5.906   3.549  12.193  0.00  0.00    +0.000 HD
ENDBRANCH  26  27
ENDBRANCH  24  26
ENDBRANCH  23  24
ENDBRANCH  17  23
ENDBRANCH  16  22
ENDBRANCH   1  16
TORSDOF 9
ENDMDL
MODEL 3
REMARK VINA RESULT:      -8.0      1.089      1.415
REMARK  Name = 
REMARK  9 active torsions:
REMARK  status: ('A' for Active; 'I' for Inactive)
REMARK    1  A    between atoms: C_2  and  O_3
REMARK    2  A    between atoms: C_2  and  C_4
REMARK    3  A    between atoms: C_4  and  C_5
REMARK    4  A    between atoms: C_5  and  C_6
REMARK    5  A    between atoms: C_11  and  C_12
REMARK    6  A    between atoms: C_12  and  C_13
REMARK    7  A    between atoms: C_19  and  C_20
REMARK    8  A    between atoms: C_22  and  C_23
REMARK    9  A    between atoms: C_23  and  O_24
REMARK                            x       y       z     vdW  Elec       q    Type
REMARK                         _______ _______ _______ _____ _____    ______ ____
ROOT
ATOM      1  C   UNK     1       3.325   4.364  17.962  0.00  0.00    +0.000 C 
ATOM      2  C   UNK     1       2.380   3.304  17.345  0.00  0.00    +0.000 C 
ATOM      3  C   UNK     1       2.369   1.952  18.053  0.00  0.00    +0.000 C 
ATOM      4  C   UNK     1       1.715   2.283  19.394  0.00  0.00    +0.000 C 
ATOM      5  C   UNK     1       1.355   3.755  19.211  0.00  0.00    +0.000 C 
ATOM      6  O   UNK     1       1.087   3.810  17.786  0.00  0.00    +0.000 OA
ATOM      7  C   UNK     1       2.621   4.623  19.325  0.00  0.00    +0.000 C 
ENDROOT
BRANCH   7   8
ATOM      8  C   UNK     1       2.216   6.031  19.622  0.00  0.00    +0.000 A 
ATOM      9  N   UNK     1       1.692   6.470  20.751  0.00  0.00    +0.000 NA
ATOM     10  C   UNK     1       1.551   7.830  20.552  0.00  0.00    +0.000 A 
ATOM     11  C   UNK     1       1.999   8.152  19.294  0.00  0.00    +0.000 A 
ATOM     12  O   UNK     1       2.440   7.010  18.692  0.00  0.00    +0.000 OA
BRANCH  10  13
ATOM     13  C   UNK     1       1.021   8.688  21.641  0.00  0.00    +0.000 C 
BRANCH  13  14
ATOM     14  O   UNK     1      -0.399   8.571  21.747  0.00  0.00    +0.000 OA
ATOM     15  H   UNK     1      -0.553   7.622  21.940  0.00  0.00    +0.000 HD
ENDBRANCH  13  14
ENDBRANCH  10  13
ENDBRANCH   7   8
BRANCH   1  16
ATOM     16  C   UNK     1       4.830   3.982  18.132  0.00  0.00    +0.000 C 
BRANCH  16  22
ATOM     17  C   UNK     1       6.191   5.895  17.008  0.00  0.00    +0.000 A 
ATOM     18  C   UNK     1       7.177   6.899  17.132  0.00  0.00    +0.000 A 
ATOM     19  C   UNK     1       7.971   7.012  18.270  0.00  0.00    +0.000 A 
ATOM     20  C   UNK     1       7.778   6.149  19.321  0.00  0.00    +0.000 A 
ATOM     21  C   UNK     1       6.757   5.193  19.259  0.00  0.00    +0.000 A 
ATOM     22  C   UNK     1       5.923   5.054  18.131  0.00  0.00    +0.000 A 
BRANCH  17  23
ATOM     23  C   UNK     1       5.476   5.847  15.661  0.00  0.00    +0.000 C 
BRANCH  23  24
ATOM     24  C   UNK     1       5.642   4.555  14.831  0.00  0.00    +0.000 C 
BRANCH  24  26
ATOM     25  O   UNK     1       6.648   3.890  12.709  0.00  0.00    +0.000 OA
ATOM     26  C   UNK     1       6.681   4.561  13.728  0.00  0.00    +0.000 C 
BRANCH  26  27
ATOM     27  O   UNK     1       7.761   5.328  14.035  0.00  0.00    +0.000 OA
ATOM     28  H   UNK     1       8.077   5.240  14.952  0.00  0.00    +0.000 HD
ENDBRANCH  26  27
ENDBRANCH  24  26
ENDBRANCH  23  24
ENDBRANCH  17  23
ENDBRANCH  16  22
ENDBRANCH   1  16
TORSDOF 9
ENDMDL
MODEL 4
REMARK VINA RESULT:      -8.0      2.261      6.968
REMARK  Name = 
REMARK  9 active torsions:
REMARK  status: ('A' for Active; 'I' for Inactive)
REMARK    1  A    between atoms: C_2  and  O_3
REMARK    2  A    between atoms: C_2  and  C_4
REMARK    3  A    between atoms: C_4  and  C_5
REMARK    4  A    between atoms: C_5  and  C_6
REMARK    5  A    between atoms: C_11  and  C_12
REMARK    6  A    between atoms: C_12  and  C_13
REMARK    7  A    between atoms: C_19  and  C_20
REMARK    8  A    between atoms: C_22  and  C_23
REMARK    9  A    between atoms: C_23  and  O_24
REMARK                            x       y       z     vdW  Elec       q    Type
REMARK                         _______ _______ _______ _____ _____    ______ ____
ROOT
ATOM      1  C   UNK     1       5.296   5.893  16.589  0.00  0.00    +0.000 C 
ATOM      2  C   UNK     1       6.332   6.715  17.394  0.00  0.00    +0.000 C 
ATOM      3  C   UNK     1       6.763   6.096  18.722  0.00  0.00    +0.000 C 
ATOM      4  C   UNK     1       7.548   4.864  18.276  0.00  0.00    +0.000 C 
ATOM      5  C   UNK     1       7.538   5.019  16.757  0.00  0.00    +0.000 C 
ATOM      6  O   UNK     1       7.536   6.463  16.617  0.00  0.00    +0.000 OA
ATOM      7  C   UNK     1       6.150   4.650  16.202  0.00  0.00    +0.000 C 
ENDROOT
BRANCH   7   8
ATOM      8  C   UNK     1       6.279   4.344  14.745  0.00  0.00    +0.000 A 
ATOM      9  N   UNK     1       5.536   3.499  14.056  0.00  0.00    +0.000 NA
ATOM     10  C   UNK     1       6.002   3.615  12.761  0.00  0.00    +0.000 A 
ATOM     11  C   UNK     1       7.022   4.534  12.728  0.00  0.00    +0.000 A 
ATOM     12  O   UNK     1       7.200   5.019  13.991  0.00  0.00    +0.000 OA
BRANCH  10  13
ATOM     13  C   UNK     1       5.368   2.830  11.671  0.00  0.00    +0.000 C 
BRANCH  13  14
ATOM     14  O   UNK     1       6.004   1.561  11.511  0.00  0.00    +0.000 OA
ATOM     15  H   UNK     1       6.068   1.440  10.540  0.00  0.00    +0.000 HD
ENDBRANCH  13  14
ENDBRANCH  10  13
ENDBRANCH   7   8
BRANCH   1  16
ATOM     16  C   UNK     1       3.965   5.500  17.307  0.00  0.00    +0.000 C 
BRANCH  16  22
ATOM     17  C   UNK     1       2.613   6.286  19.388  0.00  0.00    +0.000 A 
ATOM     18  C   UNK     1       1.937   7.332  20.054  0.00  0.00    +0.000 A 
ATOM     19  C   UNK     1       1.683   8.555  19.437  0.00  0.00    +0.000 A 
ATOM     20  C   UNK     1       2.126   8.772  18.154  0.00  0.00    +0.000 A 
ATOM     21  C   UNK     1       2.866   7.782  17.496  0.00  0.00    +0.000 A 
ATOM     22  C   UNK     1       3.155   6.537  18.091  0.00  0.00    +0.000 A 
BRANCH  17  23
ATOM     23  C   UNK     1       2.724   4.981  20.170  0.00  0.00    +0.000 C 
BRANCH  23  24
ATOM     24  C   UNK     1       1.487   4.056  20.156  0.00  0.00    +0.000 C 
BRANCH  24  26
ATOM     25  O   UNK     1       1.733   1.801  19.254  0.00  0.00    +0.000 OA
ATOM     26  C   UNK     1       1.434   2.975  19.096  0.00  0.00    +0.000 C 
BRANCH  26  27
ATOM     27  O   UNK     1       1.121   3.466  17.867  0.00  0.00    +0.000 OA
ATOM     28  H   UNK     1       1.800   3.321  17.185  0.00  0.00    +0.000 HD
ENDBRANCH  26  27
ENDBRANCH  24  26
ENDBRANCH  23  24
ENDBRANCH  17  23
ENDBRANCH  16  22
ENDBRANCH   1  16
TORSDOF 9
ENDMDL
MODEL 5
REMARK VINA RESULT:      -7.9      1.094      1.270
REMARK  Name = 
REMARK  9 active torsions:
REMARK  status: ('A' for Active; 'I' for Inactive)
REMARK    1  A    between atoms: C_2  and  O_3
REMARK    2  A    between atoms: C_2  and  C_4
REMARK    3  A    between atoms: C_4  and  C_5
REMARK    4  A    between atoms: C_5  and  C_6
REMARK    5  A    between atoms: C_11  and  C_12
REMARK    6  A    between atoms: C_12  and  C_13
REMARK    7  A    between atoms: C_19  and  C_20
REMARK    8  A    between atoms: C_22  and  C_23
REMARK    9  A    between atoms: C_23  and  O_24
REMARK                            x       y       z     vdW  Elec       q    Type
REMARK                         _______ _______ _______ _____ _____    ______ ____
ROOT
ATOM      1  C   UNK     1       2.748   3.951  18.170  0.00  0.00    +0.000 C 
ATOM      2  C   UNK     1       1.645   2.879  18.349  0.00  0.00    +0.000 C 
ATOM      3  C   UNK     1       1.925   1.832  19.424  0.00  0.00    +0.000 C 
ATOM      4  C   UNK     1       1.847   2.648  20.713  0.00  0.00    +0.000 C 
ATOM      5  C   UNK     1       1.432   4.020  20.190  0.00  0.00    +0.000 C 
ATOM      6  O   UNK     1       0.626   3.656  19.040  0.00  0.00    +0.000 OA
ATOM      7  C   UNK     1       2.634   4.713  19.522  0.00  0.00    +0.000 C 
ENDROOT
BRANCH   7   8
ATOM      8  C   UNK     1       2.365   6.182  19.451  0.00  0.00    +0.000 A 
ATOM      9  N   UNK     1       2.497   6.948  18.385  0.00  0.00    +0.000 NA
ATOM     10  C   UNK     1       2.078   8.194  18.809  0.00  0.00    +0.000 A 
ATOM     11  C   UNK     1       1.712   8.123  20.132  0.00  0.00    +0.000 A 
ATOM     12  O   UNK     1       1.878   6.835  20.551  0.00  0.00    +0.000 OA
BRANCH  10  13
ATOM     13  C   UNK     1       2.045   9.331  17.855  0.00  0.00    +0.000 C 
BRANCH  13  14
ATOM     14  O   UNK     1       0.711   9.808  17.666  0.00  0.00    +0.000 OA
ATOM     15  H   UNK     1       0.495   9.573  16.739  0.00  0.00    +0.000 HD
ENDBRANCH  13  14
ENDBRANCH  10  13
ENDBRANCH   7   8
BRANCH   1  16
ATOM     16  C   UNK     1       4.202   3.455  17.888  0.00  0.00    +0.000 C 
BRANCH  16  22
ATOM     17  C   UNK     1       5.815   4.717  16.280  0.00  0.00    +0.000 A 
ATOM     18  C   UNK     1       6.816   5.698  16.112  0.00  0.00    +0.000 A 
ATOM     19  C   UNK     1       7.425   6.320  17.200  0.00  0.00    +0.000 A 
ATOM     20  C   UNK     1       7.027   6.000  18.475  0.00  0.00    +0.000 A 
ATOM     21  C   UNK     1       5.984   5.087  18.671  0.00  0.00    +0.000 A 
ATOM     22  C   UNK     1       5.332   4.447  17.597  0.00  0.00    +0.000 A 
BRANCH  17  23
ATOM     23  C   UNK     1       5.320   4.065  14.992  0.00  0.00    +0.000 C 
BRANCH  23  24
ATOM     24  C   UNK     1       6.279   4.102  13.782  0.00  0.00    +0.000 C 
BRANCH  24  26
ATOM     25  O   UNK     1       4.734   3.499  11.992  0.00  0.00    +0.000 OA
ATOM     26  C   UNK     1       5.833   3.400  12.515  0.00  0.00    +0.000 C 
BRANCH  26  27
ATOM     27  O   UNK     1       6.762   2.523  12.051  0.00  0.00    +0.000 OA
ATOM     28  H   UNK     1       6.629   2.236  11.130  0.00  0.00    +0.000 HD
ENDBRANCH  26  27
ENDBRANCH  24  26
ENDBRANCH  23  24
ENDBRANCH  17  23
ENDBRANCH  16  22
ENDBRANCH   1  16
TORSDOF 9
ENDMDL
MODEL 6
REMARK VINA RESULT:      -7.9      1.625      2.924
REMARK  Name = 
REMARK  9 active torsions:
REMARK  status: ('A' for Active; 'I' for Inactive)
REMARK    1  A    between atoms: C_2  and  O_3
REMARK    2  A    between atoms: C_2  and  C_4
REMARK    3  A    between atoms: C_4  and  C_5
REMARK    4  A    between atoms: C_5  and  C_6
REMARK    5  A    between atoms: C_11  and  C_12
REMARK    6  A    between atoms: C_12  and  C_13
REMARK    7  A    between atoms: C_19  and  C_20
REMARK    8  A    between atoms: C_22  and  C_23
REMARK    9  A    between atoms: C_23  and  O_24
REMARK                            x       y       z     vdW  Elec       q    Type
REMARK                         _______ _______ _______ _____ _____    ______ ____
ROOT
ATOM      1  C   UNK     1       3.137   4.344  18.191  0.00  0.00    +0.000 C 
ATOM      2  C   UNK     1       2.135   3.167  18.096  0.00  0.00    +0.000 C 
ATOM      3  C   UNK     1       2.358   2.040  19.101  0.00  0.00    +0.000 C 
ATOM      4  C   UNK     1       2.009   2.705  20.431  0.00  0.00    +0.000 C 
ATOM      5  C   UNK     1       1.537   4.084  19.977  0.00  0.00    +0.000 C 
ATOM      6  O   UNK     1       0.951   3.776  18.686  0.00  0.00    +0.000 OA
ATOM      7  C   UNK     1       2.748   4.946  19.572  0.00  0.00    +0.000 C 
ENDROOT
BRANCH   7   8
ATOM      8  C   UNK     1       2.344   6.385  19.595  0.00  0.00    +0.000 A 
ATOM      9  N   UNK     1       2.422   7.233  18.586  0.00  0.00    +0.000 NA
ATOM     10  C   UNK     1       1.881   8.402  19.085  0.00  0.00    +0.000 A 
ATOM     11  C   UNK     1       1.501   8.205  20.390  0.00  0.00    +0.000 A 
ATOM     12  O   UNK     1       1.780   6.912  20.725  0.00  0.00    +0.000 OA
BRANCH  10  13
ATOM     13  C   UNK     1       1.758   9.595  18.209  0.00  0.00    +0.000 C 
BRANCH  13  14
ATOM     14  O   UNK     1       0.488   9.627  17.556  0.00  0.00    +0.000 OA
ATOM     15  H   UNK     1       0.541   8.918  16.880  0.00  0.00    +0.000 HD
ENDBRANCH  13  14
ENDBRANCH  10  13
ENDBRANCH   7   8
BRANCH   1  16
ATOM     16  C   UNK     1       4.659   4.009  18.095  0.00  0.00    +0.000 C 
BRANCH  16  22
ATOM     17  C   UNK     1       6.822   4.559  16.755  0.00  0.00    +0.000 A 
ATOM     18  C   UNK     1       7.460   4.669  15.500  0.00  0.00    +0.000 A 
ATOM     19  C   UNK     1       6.752   4.577  14.304  0.00  0.00    +0.000 A 
ATOM     20  C   UNK     1       5.399   4.341  14.334  0.00  0.00    +0.000 A 
ATOM     21  C   UNK     1       4.751   4.151  15.561  0.00  0.00    +0.000 A 
ATOM     22  C   UNK     1       5.435   4.223  16.792  0.00  0.00    +0.000 A 
BRANCH  17  23
ATOM     23  C   UNK     1       7.725   4.780  17.966  0.00  0.00    +0.000 C 
BRANCH  23  24
ATOM     24  C   UNK     1       7.492   6.073  18.779  0.00  0.00    +0.000 C 
BRANCH  24  26
ATOM     25  O   UNK     1       7.708   7.737  17.007  0.00  0.00    +0.000 OA
ATOM     26  C   UNK     1       7.934   7.380  18.153  0.00  0.00    +0.000 C 
BRANCH  26  27
ATOM     27  O   UNK     1       8.738   8.105  18.975  0.00  0.00    +0.000 OA
ATOM     28  H   UNK     1       8.273   8.579  19.686  0.00  0.00    +0.000 HD
ENDBRANCH  26  27
ENDBRANCH  24  26
ENDBRANCH  23  24
ENDBRANCH  17  23
ENDBRANCH  16  22
ENDBRANCH   1  16
TORSDOF 9
ENDMDL
MODEL 7
REMARK VINA RESULT:      -7.8      0.979      1.188
REMARK  Name = 
REMARK  9 active torsions:
REMARK  status: ('A' for Active; 'I' for Inactive)
REMARK    1  A    between atoms: C_2  and  O_3
REMARK    2  A    between atoms: C_2  and  C_4
REMARK    3  A    between atoms: C_4  and  C_5
REMARK    4  A    between atoms: C_5  and  C_6
REMARK    5  A    between atoms: C_11  and  C_12
REMARK    6  A    between atoms: C_12  and  C_13
REMARK    7  A    between atoms: C_19  and  C_20
REMARK    8  A    between atoms: C_22  and  C_23
REMARK    9  A    between atoms: C_23  and  O_24
REMARK                            x       y       z     vdW  Elec       q    Type
REMARK                         _______ _______ _______ _____ _____    ______ ____
ROOT
ATOM      1  C   UNK     1       3.368   4.529  18.681  0.00  0.00    +0.000 C 
ATOM      2  C   UNK     1       2.401   3.322  18.599  0.00  0.00    +0.000 C 
ATOM      3  C   UNK     1       2.483   2.342  19.767  0.00  0.00    +0.000 C 
ATOM      4  C   UNK     1       1.934   3.166  20.931  0.00  0.00    +0.000 C 
ATOM      5  C   UNK     1       1.523   4.459  20.233  0.00  0.00    +0.000 C 
ATOM      6  O   UNK     1       1.138   3.968  18.923  0.00  0.00    +0.000 OA
ATOM      7  C   UNK     1       2.772   5.295  19.898  0.00  0.00    +0.000 C 
ENDROOT
BRANCH   7   8
ATOM      8  C   UNK     1       2.357   6.712  19.669  0.00  0.00    +0.000 A 
ATOM      9  N   UNK     1       2.517   7.402  18.555  0.00  0.00    +0.000 NA
ATOM     10  C   UNK     1       1.925   8.620  18.823  0.00  0.00    +0.000 A 
ATOM     11  C   UNK     1       1.433   8.612  20.105  0.00  0.00    +0.000 A 
ATOM     12  O   UNK     1       1.691   7.390  20.654  0.00  0.00    +0.000 OA
BRANCH  10  13
ATOM     13  C   UNK     1       1.870   9.666  17.771  0.00  0.00    +0.000 C 
BRANCH  13  14
ATOM     14  O   UNK     1       1.443  10.919  18.309  0.00  0.00    +0.000 OA
ATOM     15  H   UNK     1       1.428  10.777  19.279  0.00  0.00    +0.000 HD
ENDBRANCH  13  14
ENDBRANCH  10  13
ENDBRANCH   7   8
BRANCH   1  16
ATOM     16  C   UNK     1       4.890   4.228  18.855  0.00  0.00    +0.000 C 
BRANCH  16  22
ATOM     17  C   UNK     1       5.907   6.155  17.430  0.00  0.00    +0.000 A 
ATOM     18  C   UNK     1       6.891   7.159  17.298  0.00  0.00    +0.000 A 
ATOM     19  C   UNK     1       7.959   7.262  18.186  0.00  0.00    +0.000 A 
ATOM     20  C   UNK     1       8.051   6.388  19.242  0.00  0.00    +0.000 A 
ATOM     21  C   UNK     1       7.049   5.431  19.443  0.00  0.00    +0.000 A 
ATOM     22  C   UNK     1       5.945   5.302  18.575  0.00  0.00    +0.000 A 
BRANCH  17  23
ATOM     23  C   UNK     1       4.860   6.120  16.320  0.00  0.00    +0.000 C 
BRANCH  23  24
ATOM     24  C   UNK     1       5.341   5.660  14.926  0.00  0.00    +0.000 C 
BRANCH  24  26
ATOM     25  O   UNK     1       7.704   5.134  14.618  0.00  0.00    +0.000 OA
ATOM     26  C   UNK     1       6.565   4.770  14.868  0.00  0.00    +0.000 C 
BRANCH  26  27
ATOM     27  O   UNK     1       6.259   3.454  15.012  0.00  0.00    +0.000 OA
ATOM     28  H   UNK     1       5.438   3.175  14.569  0.00  0.00    +0.000 HD
ENDBRANCH  26  27
ENDBRANCH  24  26
ENDBRANCH  23  24
ENDBRANCH  17  23
ENDBRANCH  16  22
ENDBRANCH   1  16
TORSDOF 9
ENDMDL
MODEL 8
REMARK VINA RESULT:      -7.8      2.534      6.854
REMARK  Name = 
REMARK  9 active torsions:
REMARK  status: ('A' for Active; 'I' for Inactive)
REMARK    1  A    between atoms: C_2  and  O_3
REMARK    2  A    between atoms: C_2  and  C_4
REMARK    3  A    between atoms: C_4  and  C_5
REMARK    4  A    between atoms: C_5  and  C_6
REMARK    5  A    between atoms: C_11  and  C_12
REMARK    6  A    between atoms: C_12  and  C_13
REMARK    7  A    between atoms: C_19  and  C_20
REMARK    8  A    between atoms: C_22  and  C_23
REMARK    9  A    between atoms: C_23  and  O_24
REMARK                            x       y       z     vdW  Elec       q    Type
REMARK                         _______ _______ _______ _____ _____    ______ ____
ROOT
ATOM      1  C   UNK     1       5.115   5.372  16.274  0.00  0.00    +0.000 C 
ATOM      2  C   UNK     1       6.157   6.283  16.968  0.00  0.00    +0.000 C 
ATOM      3  C   UNK     1       6.813   5.690  18.212  0.00  0.00    +0.000 C 
ATOM      4  C   UNK     1       7.656   4.554  17.634  0.00  0.00    +0.000 C 
ATOM      5  C   UNK     1       7.436   4.733  16.135  0.00  0.00    +0.000 C 
ATOM      6  O   UNK     1       7.272   6.171  16.039  0.00  0.00    +0.000 OA
ATOM      7  C   UNK     1       6.033   4.232  15.746  0.00  0.00    +0.000 C 
ENDROOT
BRANCH   7   8
ATOM      8  C   UNK     1       6.006   3.967  14.275  0.00  0.00    +0.000 A 
ATOM      9  N   UNK     1       5.008   3.429  13.598  0.00  0.00    +0.000 NA
ATOM     10  C   UNK     1       5.440   3.451  12.286  0.00  0.00    +0.000 A 
ATOM     11  C   UNK     1       6.696   4.003  12.232  0.00  0.00    +0.000 A 
ATOM     12  O   UNK     1       7.065   4.350  13.499  0.00  0.00    +0.000 OA
BRANCH  10  13
ATOM     13  C   UNK     1       4.551   2.955  11.205  0.00  0.00    +0.000 C 
BRANCH  13  14
ATOM     14  O   UNK     1       3.733   4.005  10.686  0.00  0.00    +0.000 OA
ATOM     15  H   UNK     1       2.863   3.876  11.119  0.00  0.00    +0.000 HD
ENDBRANCH  13  14
ENDBRANCH  10  13
ENDBRANCH   7   8
BRANCH   1  16
ATOM     16  C   UNK     1       3.933   4.832  17.141  0.00  0.00    +0.000 C 
BRANCH  16  22
ATOM     17  C   UNK     1       2.881   5.275  19.480  0.00  0.00    +0.000 A 
ATOM     18  C   UNK     1       2.302   6.196  20.380  0.00  0.00    +0.000 A 
ATOM     19  C   UNK     1       1.962   7.490  19.991  0.00  0.00    +0.000 A 
ATOM     20  C   UNK     1       2.221   7.902  18.706  0.00  0.00    +0.000 A 
ATOM     21  C   UNK     1       2.865   7.036  17.813  0.00  0.00    +0.000 A 
ATOM     22  C   UNK     1       3.237   5.724  18.173  0.00  0.00    +0.000 A 
BRANCH  17  23
ATOM     23  C   UNK     1       3.103   3.872  20.038  0.00  0.00    +0.000 C 
BRANCH  23  24
ATOM     24  C   UNK     1       1.856   2.967  20.158  0.00  0.00    +0.000 C 
BRANCH  24  26
ATOM     25  O   UNK     1       0.212   2.238  18.508  0.00  0.00    +0.000 OA
ATOM     26  C   UNK     1       1.369   2.279  18.899  0.00  0.00    +0.000 C 
BRANCH  26  27
ATOM     27  O   UNK     1       2.353   1.582  18.273  0.00  0.00    +0.000 OA
ATOM     28  H   UNK     1       3.257   1.883  18.471  0.00  0.00    +0.000 HD
ENDBRANCH  26  27
ENDBRANCH  24  26
ENDBRANCH  23  24
ENDBRANCH  17  23
ENDBRANCH  16  22
ENDBRANCH   1  16
TORSDOF 9
ENDMDL
MODEL 9
REMARK VINA RESULT:      -7.8      1.965      3.268
REMARK  Name = 
REMARK  9 active torsions:
REMARK  status: ('A' for Active; 'I' for Inactive)
REMARK    1  A    between atoms: C_2  and  O_3
REMARK    2  A    between atoms: C_2  and  C_4
REMARK    3  A    between atoms: C_4  and  C_5
REMARK    4  A    between atoms: C_5  and  C_6
REMARK    5  A    between atoms: C_11  and  C_12
REMARK    6  A    between atoms: C_12  and  C_13
REMARK    7  A    between atoms: C_19  and  C_20
REMARK    8  A    between atoms: C_22  and  C_23
REMARK    9  A    between atoms: C_23  and  O_24
REMARK                            x       y       z     vdW  Elec       q    Type
REMARK                         _______ _______ _______ _____ _____    ______ ____
ROOT
ATOM      1  C   UNK     1       3.196   4.291  17.913  0.00  0.00    +0.000 C 
ATOM      2  C   UNK     1       2.227   3.093  17.760  0.00  0.00    +0.000 C 
ATOM      3  C   UNK     1       2.485   1.923  18.705  0.00  0.00    +0.000 C 
ATOM      4  C   UNK     1       2.123   2.509  20.069  0.00  0.00    +0.000 C 
ATOM      5  C   UNK     1       1.611   3.896  19.687  0.00  0.00    +0.000 C 
ATOM      6  O   UNK     1       1.029   3.637  18.383  0.00  0.00    +0.000 OA
ATOM      7  C   UNK     1       2.796   4.810  19.324  0.00  0.00    +0.000 C 
ENDROOT
BRANCH   7   8
ATOM      8  C   UNK     1       2.353   6.235  19.421  0.00  0.00    +0.000 A 
ATOM      9  N   UNK     1       1.895   6.837  20.503  0.00  0.00    +0.000 NA
ATOM     10  C   UNK     1       1.682   8.141  20.099  0.00  0.00    +0.000 A 
ATOM     11  C   UNK     1       2.021   8.266  18.774  0.00  0.00    +0.000 A 
ATOM     12  O   UNK     1       2.465   7.054  18.331  0.00  0.00    +0.000 OA
BRANCH  10  13
ATOM     13  C   UNK     1       1.197   9.150  21.075  0.00  0.00    +0.000 C 
BRANCH  13  14
ATOM     14  O   UNK     1       1.732   8.908  22.377  0.00  0.00    +0.000 OA
ATOM     15  H   UNK     1       2.688   8.750  22.225  0.00  0.00    +0.000 HD
ENDBRANCH  13  14
ENDBRANCH  10  13
ENDBRANCH   7   8
BRANCH   1  16
ATOM     16  C   UNK     1       4.727   4.004  17.796  0.00  0.00    +0.000 C 
BRANCH  16  22
ATOM     17  C   UNK     1       6.239   5.577  16.377  0.00  0.00    +0.000 A 
ATOM     18  C   UNK     1       6.976   5.782  15.189  0.00  0.00    +0.000 A 
ATOM     19  C   UNK     1       6.910   4.892  14.120  0.00  0.00    +0.000 A 
ATOM     20  C   UNK     1       6.134   3.764  14.223  0.00  0.00    +0.000 A 
ATOM     21  C   UNK     1       5.452   3.494  15.416  0.00  0.00    +0.000 A 
ATOM     22  C   UNK     1       5.504   4.362  16.526  0.00  0.00    +0.000 A 
BRANCH  17  23
ATOM     23  C   UNK     1       6.347   6.693  17.412  0.00  0.00    +0.000 C 
BRANCH  23  24
ATOM     24  C   UNK     1       7.633   6.724  18.267  0.00  0.00    +0.000 C 
BRANCH  24  26
ATOM     25  O   UNK     1       8.277   4.391  18.578  0.00  0.00    +0.000 OA
ATOM     26  C   UNK     1       7.980   5.476  19.053  0.00  0.00    +0.000 C 
BRANCH  26  27
ATOM     27  O   UNK     1       7.814   5.640  20.392  0.00  0.00    +0.000 OA
ATOM     28  H   UNK     1       7.009   5.232  20.757  0.00  0.00    +0.000 HD
ENDBRANCH  26  27
ENDBRANCH  24  26
ENDBRANCH  23  24
ENDBRANCH  17  23
ENDBRANCH  16  22
ENDBRANCH   1  16
TORSDOF 9
ENDMDL
