MODEL 1
REMARK VINA RESULT:      -8.3      0.000      0.000
REMARK  Name = 
REMARK  10 active torsions:
REMARK  status: ('A' for Active; 'I' for Inactive)
REMARK    1  A    between atoms: C_2  and  C_19
REMARK    2  A    between atoms: N_3  and  C_4
REMARK    3  A    between atoms: C_4  and  C_5
REMARK    4  A    between atoms: C_5  and  N_6
REMARK    5  A    between atoms: C_5  and  C_16
REMARK    6  A    between atoms: N_6  and  S_7
REMARK    7  A    between atoms: S_7  and  C_10
REMARK    8  A    between atoms: C_16  and  O_18
REMARK    9  A    between atoms: C_22  and  C_23
REMARK   10  A    between atoms: C_23  and  N_24
REMARK                            x       y       z     vdW  Elec       q    Type
REMARK                         _______ _______ _______ _____ _____    ______ ____
ROOT
ATOM      1  O   UNL     1       2.372   4.912  20.247  0.00  0.00    +0.000 OA
ATOM      2  C   UNL     1       2.967   5.790  19.647  0.00  0.00    +0.000 C 
ATOM      3  N   UNL     1       4.235   5.640  19.102  0.00  0.00    +0.000 N 
ATOM      4  H   UNL     1       4.771   6.491  18.969  0.00  0.00    +0.000 HD
ENDROOT
BRANCH   2   5
ATOM      5  C   UNL     1       2.378   7.131  19.451  0.00  0.00    +0.000 A 
ATOM      6  C   UNL     1       2.451   7.738  18.203  0.00  0.00    +0.000 A 
ATOM      7  C   UNL     1       1.765   8.932  17.995  0.00  0.00    +0.000 A 
ATOM      8  C   UNL     1       1.002   9.523  19.021  0.00  0.00    +0.000 A 
ATOM      9  C   UNL     1       1.053   8.959  20.306  0.00  0.00    +0.000 A 
ATOM     10  C   UNL     1       1.740   7.763  20.522  0.00  0.00    +0.000 A 
BRANCH   8  11
ATOM     11  C   UNL     1       0.164  10.775  18.799  0.00  0.00    +0.000 C 
BRANCH  11  12
ATOM     12  N   UNL     1       0.172  11.714  19.928  0.00  0.00    +0.000 NA
ATOM     13  C   UNL     1       0.698  13.053  19.598  0.00  0.00    +0.000 C 
ATOM     14  C   UNL     1      -0.261  13.972  18.817  0.00  0.00    +0.000 C 
ATOM     15  N   UNL     1      -1.572  14.128  19.447  0.00  0.00    +0.000 NA
ATOM     16  C   UNL     1      -2.143  12.852  19.885  0.00  0.00    +0.000 C 
ATOM     17  C   UNL     1      -1.158  11.856  20.548  0.00  0.00    +0.000 C 
ATOM     18  H   UNL     1      -2.213  14.585  18.798  0.00  0.00    +0.000 HD
ENDBRANCH  11  12
ENDBRANCH   8  11
ENDBRANCH   2   5
BRANCH   3  19
ATOM     19  C   UNL     1       4.869   4.336  19.100  0.00  0.00    +0.000 C 
BRANCH  19  20
ATOM     20  C   UNL     1       4.775   3.637  17.723  0.00  0.00    +0.000 C 
BRANCH  20  21
ATOM     21  N   UNL     1       4.911   4.687  16.674  0.00  0.00    +0.000 NA
ATOM     22  H   UNL     1       4.358   4.527  15.835  0.00  0.00    +0.000 HD
BRANCH  21  23
ATOM     23  S   UNL     1       6.481   5.196  16.273  0.00  0.00    +0.000 S 
ATOM     24  O   UNL     1       6.467   6.642  16.343  0.00  0.00    +0.000 OA
ATOM     25  O   UNL     1       7.442   4.410  17.002  0.00  0.00    +0.000 OA
BRANCH  23  26
ATOM     26  C   UNL     1       6.552   4.791  14.545  0.00  0.00    +0.000 A 
ATOM     27  C   UNL     1       5.578   3.931  14.027  0.00  0.00    +0.000 A 
ATOM     28  C   UNL     1       5.686   3.487  12.713  0.00  0.00    +0.000 A 
ATOM     29  C   UNL     1       6.756   3.911  11.922  0.00  0.00    +0.000 A 
ATOM     30  C   UNL     1       7.694   4.812  12.428  0.00  0.00    +0.000 A 
ATOM     31  C   UNL     1       7.583   5.273  13.739  0.00  0.00    +0.000 A 
ENDBRANCH  23  26
ENDBRANCH  21  23
ENDBRANCH  20  21
BRANCH  20  32
ATOM     32  C   UNL     1       3.534   2.744  17.587  0.00  0.00    +0.000 C 
ATOM     33  O   UNL     1       3.480   1.597  18.006  0.00  0.00    +0.000 OA
BRANCH  32  34
ATOM     34  O   UNL     1       2.458   3.252  16.941  0.00  0.00    +0.000 OA
ATOM     35  H   UNL     1       2.493   4.198  16.725  0.00  0.00    +0.000 HD
ENDBRANCH  32  34
ENDBRANCH  20  32
ENDBRANCH  19  20
ENDBRANCH   3  19
TORSDOF 10
ENDMDL
MODEL 2
REMARK VINA RESULT:      -8.2      2.645      4.857
REMARK  Name = 
REMARK  10 active torsions:
REMARK  status: ('A' for Active; 'I' for Inactive)
REMARK    1  A    between atoms: C_2  and  C_19
REMARK    2  A    between atoms: N_3  and  C_4
REMARK    3  A    between atoms: C_4  and  C_5
REMARK    4  A    between atoms: C_5  and  N_6
REMARK    5  A    between atoms: C_5  and  C_16
REMARK    6  A    between atoms: N_6  and  S_7
REMARK    7  A    between atoms: S_7  and  C_10
REMARK    8  A    between atoms: C_16  and  O_18
REMARK    9  A    between atoms: C_22  and  C_23
REMARK   10  A    between atoms: C_23  and  N_24
REMARK                            x       y       z     vdW  Elec       q    Type
REMARK                         _______ _______ _______ _____ _____    ______ ____
ROOT
ATOM      1  O   UNL     1       4.524   7.115  16.513  0.00  0.00    +0.000 OA
ATOM      2  C   UNL     1       3.821   6.555  17.336  0.00  0.00    +0.000 C 
ATOM      3  N   UNL     1       3.727   5.177  17.473  0.00  0.00    +0.000 N 
ATOM      4  H   UNL     1       2.877   4.824  17.899  0.00  0.00    +0.000 HD
ENDROOT
BRANCH   2   5
ATOM      5  C   UNL     1       2.976   7.316  18.281  0.00  0.00    +0.000 A 
ATOM      6  C   UNL     1       2.463   8.550  17.903  0.00  0.00    +0.000 A 
ATOM      7  C   UNL     1       1.551   9.186  18.742  0.00  0.00    +0.000 A 
ATOM      8  C   UNL     1       1.143   8.596  19.954  0.00  0.00    +0.000 A 
ATOM      9  C   UNL     1       1.774   7.413  20.373  0.00  0.00    +0.000 A 
ATOM     10  C   UNL     1       2.691   6.772  19.536  0.00  0.00    +0.000 A 
BRANCH   8  11
ATOM     11  C   UNL     1       0.078   9.218  20.848  0.00  0.00    +0.000 C 
BRANCH  11  12
ATOM     12  N   UNL     1       0.606  10.127  21.873  0.00  0.00    +0.000 NA
ATOM     13  C   UNL     1       0.844  11.503  21.397  0.00  0.00    +0.000 C 
ATOM     14  C   UNL     1      -0.413  12.381  21.241  0.00  0.00    +0.000 C 
ATOM     15  N   UNL     1      -1.245  12.440  22.443  0.00  0.00    +0.000 NA
ATOM     16  C   UNL     1      -1.470  11.121  23.038  0.00  0.00    +0.000 C 
ATOM     17  C   UNL     1      -0.247  10.171  23.075  0.00  0.00    +0.000 C 
ATOM     18  H   UNL     1      -2.141  12.873  22.219  0.00  0.00    +0.000 HD
ENDBRANCH  11  12
ENDBRANCH   8  11
ENDBRANCH   2   5
BRANCH   3  19
ATOM     19  C   UNL     1       4.606   4.315  16.707  0.00  0.00    +0.000 C 
BRANCH  19  20
ATOM     20  C   UNL     1       5.771   3.756  17.556  0.00  0.00    +0.000 C 
BRANCH  20  21
ATOM     21  N   UNL     1       5.282   3.618  18.958  0.00  0.00    +0.000 NA
ATOM     22  H   UNL     1       5.922   3.962  19.670  0.00  0.00    +0.000 HD
BRANCH  21  23
ATOM     23  S   UNL     1       4.621   2.121  19.413  0.00  0.00    +0.000 S 
ATOM     24  O   UNL     1       4.571   1.318  18.211  0.00  0.00    +0.000 OA
ATOM     25  O   UNL     1       5.269   1.655  20.612  0.00  0.00    +0.000 OA
BRANCH  23  26
ATOM     26  C   UNL     1       2.940   2.573  19.769  0.00  0.00    +0.000 A 
ATOM     27  C   UNL     1       1.964   2.300  18.806  0.00  0.00    +0.000 A 
ATOM     28  C   UNL     1       0.666   2.765  18.996  0.00  0.00    +0.000 A 
ATOM     29  C   UNL     1       0.349   3.488  20.147  0.00  0.00    +0.000 A 
ATOM     30  C   UNL     1       1.315   3.710  21.130  0.00  0.00    +0.000 A 
ATOM     31  C   UNL     1       2.613   3.234  20.953  0.00  0.00    +0.000 A 
ENDBRANCH  23  26
ENDBRANCH  21  23
ENDBRANCH  20  21
BRANCH  20  32
ATOM     32  C   UNL     1       7.069   4.562  17.401  0.00  0.00    +0.000 C 
ATOM     33  O   UNL     1       8.115   4.270  17.963  0.00  0.00    +0.000 OA
BRANCH  32  34
ATOM     34  O   UNL     1       7.035   5.668  16.623  0.00  0.00    +0.000 OA
ATOM     35  H   UNL     1       6.844   6.507  17.073  0.00  0.00    +0.000 HD
ENDBRANCH  32  34
ENDBRANCH  20  32
ENDBRANCH  19  20
ENDBRANCH   3  19
TORSDOF 10
ENDMDL
MODEL 3
REMARK VINA RESULT:      -8.0      2.566      4.714
REMARK  Name = 
REMARK  10 active torsions:
REMARK  status: ('A' for Active; 'I' for Inactive)
REMARK    1  A    between atoms: C_2  and  C_19
REMARK    2  A    between atoms: N_3  and  C_4
REMARK    3  A    between atoms: C_4  and  C_5
REMARK    4  A    between atoms: C_5  and  N_6
REMARK    5  A    between atoms: C_5  and  C_16
REMARK    6  A    between atoms: N_6  and  S_7
REMARK    7  A    between atoms: S_7  and  C_10
REMARK    8  A    between atoms: C_16  and  O_18
REMARK    9  A    between atoms: C_22  and  C_23
REMARK   10  A    between atoms: C_23  and  N_24
REMARK                            x       y       z     vdW  Elec       q    Type
REMARK                         _______ _______ _______ _____ _____    ______ ____
ROOT
ATOM      1  O   UNL     1       1.878   5.173  17.610  0.00  0.00    +0.000 OA
ATOM      2  C   UNL     1       2.721   5.993  17.928  0.00  0.00    +0.000 C 
ATOM      3  N   UNL     1       4.089   5.797  17.794  0.00  0.00    +0.000 N 
ATOM      4  H   UNL     1       4.684   6.344  18.407  0.00  0.00    +0.000 HD
ENDROOT
BRANCH   2   5
ATOM      5  C   UNL     1       2.351   7.300  18.511  0.00  0.00    +0.000 A 
ATOM      6  C   UNL     1       2.268   8.419  17.691  0.00  0.00    +0.000 A 
ATOM      7  C   UNL     1       1.776   9.608  18.224  0.00  0.00    +0.000 A 
ATOM      8  C   UNL     1       1.362   9.687  19.567  0.00  0.00    +0.000 A 
ATOM      9  C   UNL     1       1.578   8.582  20.405  0.00  0.00    +0.000 A 
ATOM     10  C   UNL     1       2.073   7.387  19.878  0.00  0.00    +0.000 A 
BRANCH   8  11
ATOM     11  C   UNL     1       0.731  10.943  20.154  0.00  0.00    +0.000 C 
BRANCH  11  12
ATOM     12  N   UNL     1      -0.646  10.761  20.629  0.00  0.00    +0.000 NA
ATOM     13  C   UNL     1      -0.830  11.023  22.070  0.00  0.00    +0.000 C 
ATOM     14  C   UNL     1      -0.866  12.509  22.478  0.00  0.00    +0.000 C 
ATOM     15  N   UNL     1      -1.844  13.301  21.732  0.00  0.00    +0.000 NA
ATOM     16  C   UNL     1      -1.793  13.048  20.290  0.00  0.00    +0.000 C 
ATOM     17  C   UNL     1      -1.614  11.569  19.864  0.00  0.00    +0.000 C 
ATOM     18  H   UNL     1      -1.689  14.294  21.910  0.00  0.00    +0.000 HD
ENDBRANCH  11  12
ENDBRANCH   8  11
ENDBRANCH   2   5
BRANCH   3  19
ATOM     19  C   UNL     1       4.584   4.618  17.109  0.00  0.00    +0.000 C 
BRANCH  19  20
ATOM     20  C   UNL     1       5.763   3.953  17.858  0.00  0.00    +0.000 C 
BRANCH  20  21
ATOM     21  N   UNL     1       5.314   3.678  19.253  0.00  0.00    +0.000 NA
ATOM     22  H   UNL     1       5.990   3.916  19.975  0.00  0.00    +0.000 HD
BRANCH  21  23
ATOM     23  S   UNL     1       4.604   2.167  19.565  0.00  0.00    +0.000 S 
ATOM     24  O   UNL     1       4.607   1.451  18.308  0.00  0.00    +0.000 OA
ATOM     25  O   UNL     1       5.177   1.606  20.761  0.00  0.00    +0.000 OA
BRANCH  23  26
ATOM     26  C   UNL     1       2.914   2.628  19.861  0.00  0.00    +0.000 A 
ATOM     27  C   UNL     1       1.920   2.042  19.069  0.00  0.00    +0.000 A 
ATOM     28  C   UNL     1       0.605   2.483  19.184  0.00  0.00    +0.000 A 
ATOM     29  C   UNL     1       0.289   3.495  20.091  0.00  0.00    +0.000 A 
ATOM     30  C   UNL     1       1.275   4.038  20.917  0.00  0.00    +0.000 A 
ATOM     31  C   UNL     1       2.592   3.589  20.818  0.00  0.00    +0.000 A 
ENDBRANCH  23  26
ENDBRANCH  21  23
ENDBRANCH  20  21
BRANCH  20  32
ATOM     32  C   UNL     1       7.072   4.748  17.745  0.00  0.00    +0.000 C 
ATOM     33  O   UNL     1       7.996   4.422  17.015  0.00  0.00    +0.000 OA
BRANCH  32  34
ATOM     34  O   UNL     1       7.211   5.848  18.521  0.00  0.00    +0.000 OA
ATOM     35  H   UNL     1       7.956   5.846  19.143  0.00  0.00    +0.000 HD
ENDBRANCH  32  34
ENDBRANCH  20  32
ENDBRANCH  19  20
ENDBRANCH   3  19
TORSDOF 10
ENDMDL
MODEL 4
REMARK VINA RESULT:      -7.9      2.295      4.706
REMARK  Name = 
REMARK  10 active torsions:
REMARK  status: ('A' for Active; 'I' for Inactive)
REMARK    1  A    between atoms: C_2  and  C_19
REMARK    2  A    between atoms: N_3  and  C_4
REMARK    3  A    between atoms: C_4  and  C_5
REMARK    4  A    between atoms: C_5  and  N_6
REMARK    5  A    between atoms: C_5  and  C_16
REMARK    6  A    between atoms: N_6  and  S_7
REMARK    7  A    between atoms: S_7  and  C_10
REMARK    8  A    between atoms: C_16  and  O_18
REMARK    9  A    between atoms: C_22  and  C_23
REMARK   10  A    between atoms: C_23  and  N_24
REMARK                            x       y       z     vdW  Elec       q    Type
REMARK                         _______ _______ _______ _____ _____    ______ ____
ROOT
ATOM      1  O   UNL     1       4.519   7.125  17.023  0.00  0.00    +0.000 OA
ATOM      2  C   UNL     1       4.042   6.998  18.137  0.00  0.00    +0.000 C 
ATOM      3  N   UNL     1       4.579   6.186  19.127  0.00  0.00    +0.000 N 
ATOM      4  H   UNL     1       3.936   5.866  19.844  0.00  0.00    +0.000 HD
ENDROOT
BRANCH   2   5
ATOM      5  C   UNL     1       2.811   7.710  18.540  0.00  0.00    +0.000 A 
ATOM      6  C   UNL     1       2.259   7.475  19.793  0.00  0.00    +0.000 A 
ATOM      7  C   UNL     1       1.188   8.260  20.215  0.00  0.00    +0.000 A 
ATOM      8  C   UNL     1       0.667   9.280  19.397  0.00  0.00    +0.000 A 
ATOM      9  C   UNL     1       1.156   9.409  18.087  0.00  0.00    +0.000 A 
ATOM     10  C   UNL     1       2.229   8.624  17.657  0.00  0.00    +0.000 A 
BRANCH   8  11
ATOM     11  C   UNL     1      -0.439  10.218  19.865  0.00  0.00    +0.000 C 
BRANCH  11  12
ATOM     12  N   UNL     1      -0.062  11.080  20.992  0.00  0.00    +0.000 NA
ATOM     13  C   UNL     1       1.003  12.052  20.682  0.00  0.00    +0.000 C 
ATOM     14  C   UNL     1       0.565  13.282  19.864  0.00  0.00    +0.000 C 
ATOM     15  N   UNL     1      -0.569  14.003  20.444  0.00  0.00    +0.000 NA
ATOM     16  C   UNL     1      -1.652  13.108  20.861  0.00  0.00    +0.000 C 
ATOM     17  C   UNL     1      -1.220  11.795  21.561  0.00  0.00    +0.000 C 
ATOM     18  H   UNL     1      -0.926  14.681  19.770  0.00  0.00    +0.000 HD
ENDBRANCH  11  12
ENDBRANCH   8  11
ENDBRANCH   2   5
BRANCH   3  19
ATOM     19  C   UNL     1       5.860   5.541  18.914  0.00  0.00    +0.000 C 
BRANCH  19  20
ATOM     20  C   UNL     1       5.837   4.567  17.713  0.00  0.00    +0.000 C 
BRANCH  20  21
ATOM     21  N   UNL     1       5.286   3.268  18.195  0.00  0.00    +0.000 NA
ATOM     22  H   UNL     1       5.907   2.471  18.078  0.00  0.00    +0.000 HD
BRANCH  21  23
ATOM     23  S   UNL     1       3.700   2.871  17.735  0.00  0.00    +0.000 S 
ATOM     24  O   UNL     1       3.270   3.909  16.824  0.00  0.00    +0.000 OA
ATOM     25  O   UNL     1       3.637   1.476  17.382  0.00  0.00    +0.000 OA
BRANCH  23  26
ATOM     26  C   UNL     1       2.815   3.153  19.250  0.00  0.00    +0.000 A 
ATOM     27  C   UNL     1       3.315   2.581  20.425  0.00  0.00    +0.000 A 
ATOM     28  C   UNL     1       2.572   2.670  21.598  0.00  0.00    +0.000 A 
ATOM     29  C   UNL     1       1.345   3.334  21.595  0.00  0.00    +0.000 A 
ATOM     30  C   UNL     1       0.876   3.949  20.433  0.00  0.00    +0.000 A 
ATOM     31  C   UNL     1       1.623   3.877  19.257  0.00  0.00    +0.000 A 
ENDBRANCH  23  26
ENDBRANCH  21  23
ENDBRANCH  20  21
BRANCH  20  32
ATOM     32  C   UNL     1       7.189   4.468  16.993  0.00  0.00    +0.000 C 
ATOM     33  O   UNL     1       7.339   4.712  15.804  0.00  0.00    +0.000 OA
BRANCH  32  34
ATOM     34  O   UNL     1       8.259   4.061  17.714  0.00  0.00    +0.000 OA
ATOM     35  H   UNL     1       9.127   4.379  17.415  0.00  0.00    +0.000 HD
ENDBRANCH  32  34
ENDBRANCH  20  32
ENDBRANCH  19  20
ENDBRANCH   3  19
TORSDOF 10
ENDMDL
MODEL 5
REMARK VINA RESULT:      -7.9      2.678      4.766
REMARK  Name = 
REMARK  10 active torsions:
REMARK  status: ('A' for Active; 'I' for Inactive)
REMARK    1  A    between atoms: C_2  and  C_19
REMARK    2  A    between atoms: N_3  and  C_4
REMARK    3  A    between atoms: C_4  and  C_5
REMARK    4  A    between atoms: C_5  and  N_6
REMARK    5  A    between atoms: C_5  and  C_16
REMARK    6  A    between atoms: N_6  and  S_7
REMARK    7  A    between atoms: S_7  and  C_10
REMARK    8  A    between atoms: C_16  and  O_18
REMARK    9  A    between atoms: C_22  and  C_23
REMARK   10  A    between atoms: C_23  and  N_24
REMARK                            x       y       z     vdW  Elec       q    Type
REMARK                         _______ _______ _______ _____ _____    ______ ____
ROOT
ATOM      1  O   UNL     1       2.624   5.463  17.661  0.00  0.00    +0.000 OA
ATOM      2  C   UNL     1       3.151   6.490  18.053  0.00  0.00    +0.000 C 
ATOM      3  N   UNL     1       4.523   6.696  18.090  0.00  0.00    +0.000 N 
ATOM      4  H   UNL     1       4.856   7.389  18.753  0.00  0.00    +0.000 HD
ENDROOT
BRANCH   2   5
ATOM      5  C   UNL     1       2.353   7.632  18.545  0.00  0.00    +0.000 A 
ATOM      6  C   UNL     1       1.918   7.650  19.865  0.00  0.00    +0.000 A 
ATOM      7  C   UNL     1       1.297   8.796  20.354  0.00  0.00    +0.000 A 
ATOM      8  C   UNL     1       1.111   9.928  19.537  0.00  0.00    +0.000 A 
ATOM      9  C   UNL     1       1.440   9.837  18.175  0.00  0.00    +0.000 A 
ATOM     10  C   UNL     1       2.062   8.689  17.678  0.00  0.00    +0.000 A 
BRANCH   8  11
ATOM     11  C   UNL     1       0.522  11.230  20.066  0.00  0.00    +0.000 C 
BRANCH  11  12
ATOM     12  N   UNL     1      -0.729  11.636  19.413  0.00  0.00    +0.000 NA
ATOM     13  C   UNL     1      -1.772  12.107  20.343  0.00  0.00    +0.000 C 
ATOM     14  C   UNL     1      -1.578  13.532  20.896  0.00  0.00    +0.000 C 
ATOM     15  N   UNL     1      -1.385  14.546  19.860  0.00  0.00    +0.000 NA
ATOM     16  C   UNL     1      -0.419  14.132  18.839  0.00  0.00    +0.000 C 
ATOM     17  C   UNL     1      -0.511  12.658  18.372  0.00  0.00    +0.000 C 
ATOM     18  H   UNL     1      -1.077  15.420  20.287  0.00  0.00    +0.000 HD
ENDBRANCH  11  12
ENDBRANCH   8  11
ENDBRANCH   2   5
BRANCH   3  19
ATOM     19  C   UNL     1       5.416   5.713  17.507  0.00  0.00    +0.000 C 
BRANCH  19  20
ATOM     20  C   UNL     1       6.203   4.923  18.579  0.00  0.00    +0.000 C 
BRANCH  20  21
ATOM     21  N   UNL     1       5.216   4.390  19.561  0.00  0.00    +0.000 NA
ATOM     22  H   UNL     1       5.451   4.557  20.537  0.00  0.00    +0.000 HD
BRANCH  21  23
ATOM     23  S   UNL     1       4.668   2.798  19.337  0.00  0.00    +0.000 S 
ATOM     24  O   UNL     1       4.800   2.520  17.923  0.00  0.00    +0.000 OA
ATOM     25  O   UNL     1       5.252   1.943  20.337  0.00  0.00    +0.000 OA
BRANCH  23  26
ATOM     26  C   UNL     1       2.926   2.981  19.639  0.00  0.00    +0.000 A 
ATOM     27  C   UNL     1       2.036   2.260  18.835  0.00  0.00    +0.000 A 
ATOM     28  C   UNL     1       0.669   2.486  18.956  0.00  0.00    +0.000 A 
ATOM     29  C   UNL     1       0.198   3.420  19.880  0.00  0.00    +0.000 A 
ATOM     30  C   UNL     1       1.087   4.097  20.716  0.00  0.00    +0.000 A 
ATOM     31  C   UNL     1       2.458   3.863  20.611  0.00  0.00    +0.000 A 
ENDBRANCH  23  26
ENDBRANCH  21  23
ENDBRANCH  20  21
BRANCH  20  32
ATOM     32  C   UNL     1       7.356   5.728  19.193  0.00  0.00    +0.000 C 
ATOM     33  O   UNL     1       7.882   6.683  18.639  0.00  0.00    +0.000 OA
BRANCH  32  34
ATOM     34  O   UNL     1       7.828   5.335  20.399  0.00  0.00    +0.000 OA
ATOM     35  H   UNL     1       7.259   5.515  21.165  0.00  0.00    +0.000 HD
ENDBRANCH  32  34
ENDBRANCH  20  32
ENDBRANCH  19  20
ENDBRANCH   3  19
TORSDOF 10
ENDMDL
MODEL 6
REMARK VINA RESULT:      -7.9      1.465      1.627
REMARK  Name = 
REMARK  10 active torsions:
REMARK  status: ('A' for Active; 'I' for Inactive)
REMARK    1  A    between atoms: C_2  and  C_19
REMARK    2  A    between atoms: N_3  and  C_4
REMARK    3  A    between atoms: C_4  and  C_5
REMARK    4  A    between atoms: C_5  and  N_6
REMARK    5  A    between atoms: C_5  and  C_16
REMARK    6  A    between atoms: N_6  and  S_7
REMARK    7  A    between atoms: S_7  and  C_10
REMARK    8  A    between atoms: C_16  and  O_18
REMARK    9  A    between atoms: C_22  and  C_23
REMARK   10  A    between atoms: C_23  and  N_24
REMARK                            x       y       z     vdW  Elec       q    Type
REMARK                         _______ _______ _______ _____ _____    ______ ____
ROOT
ATOM      1  O   UNL     1       2.052   5.423  20.832  0.00  0.00    +0.000 OA
ATOM      2  C   UNL     1       2.276   6.043  19.807  0.00  0.00    +0.000 C 
ATOM      3  N   UNL     1       2.891   5.502  18.687  0.00  0.00    +0.000 N 
ATOM      4  H   UNL     1       3.355   6.157  18.067  0.00  0.00    +0.000 HD
ENDROOT
BRANCH   2   5
ATOM      5  C   UNL     1       1.912   7.469  19.668  0.00  0.00    +0.000 A 
ATOM      6  C   UNL     1       2.091   8.109  18.449  0.00  0.00    +0.000 A 
ATOM      7  C   UNL     1       1.607   9.405  18.291  0.00  0.00    +0.000 A 
ATOM      8  C   UNL     1       0.941  10.066  19.341  0.00  0.00    +0.000 A 
ATOM      9  C   UNL     1       0.889   9.448  20.600  0.00  0.00    +0.000 A 
ATOM     10  C   UNL     1       1.374   8.148  20.765  0.00  0.00    +0.000 A 
BRANCH   8  11
ATOM     11  C   UNL     1       0.316  11.445  19.172  0.00  0.00    +0.000 C 
BRANCH  11  12
ATOM     12  N   UNL     1      -0.006  12.121  20.435  0.00  0.00    +0.000 NA
ATOM     13  C   UNL     1       0.379  13.544  20.476  0.00  0.00    +0.000 C 
ATOM     14  C   UNL     1      -0.545  14.507  19.705  0.00  0.00    +0.000 C 
ATOM     15  N   UNL     1      -1.955  14.395  20.077  0.00  0.00    +0.000 NA
ATOM     16  C   UNL     1      -2.412  13.004  20.142  0.00  0.00    +0.000 C 
ATOM     17  C   UNL     1      -1.432  11.995  20.790  0.00  0.00    +0.000 C 
ATOM     18  H   UNL     1      -2.528  14.912  19.410  0.00  0.00    +0.000 HD
ENDBRANCH  11  12
ENDBRANCH   8  11
ENDBRANCH   2   5
BRANCH   3  19
ATOM     19  C   UNL     1       3.173   4.080  18.636  0.00  0.00    +0.000 C 
BRANCH  19  20
ATOM     20  C   UNL     1       4.470   3.709  19.394  0.00  0.00    +0.000 C 
BRANCH  20  21
ATOM     21  N   UNL     1       5.528   3.450  18.377  0.00  0.00    +0.000 NA
ATOM     22  H   UNL     1       6.083   2.612  18.540  0.00  0.00    +0.000 HD
BRANCH  21  23
ATOM     23  S   UNL     1       6.522   4.753  17.929  0.00  0.00    +0.000 S 
ATOM     24  O   UNL     1       5.816   5.953  18.323  0.00  0.00    +0.000 OA
ATOM     25  O   UNL     1       7.874   4.493  18.349  0.00  0.00    +0.000 OA
BRANCH  23  26
ATOM     26  C   UNL     1       6.414   4.683  16.157  0.00  0.00    +0.000 A 
ATOM     27  C   UNL     1       5.284   4.087  15.586  0.00  0.00    +0.000 A 
ATOM     28  C   UNL     1       5.234   3.895  14.209  0.00  0.00    +0.000 A 
ATOM     29  C   UNL     1       6.304   4.305  13.411  0.00  0.00    +0.000 A 
ATOM     30  C   UNL     1       7.404   4.948  13.980  0.00  0.00    +0.000 A 
ATOM     31  C   UNL     1       7.453   5.157  15.358  0.00  0.00    +0.000 A 
ENDBRANCH  23  26
ENDBRANCH  21  23
ENDBRANCH  20  21
BRANCH  20  32
ATOM     32  C   UNL     1       4.266   2.583  20.417  0.00  0.00    +0.000 C 
ATOM     33  O   UNL     1       5.084   1.695  20.613  0.00  0.00    +0.000 OA
BRANCH  32  34
ATOM     34  O   UNL     1       3.106   2.565  21.113  0.00  0.00    +0.000 OA
ATOM     35  H   UNL     1       2.876   3.379  21.590  0.00  0.00    +0.000 HD
ENDBRANCH  32  34
ENDBRANCH  20  32
ENDBRANCH  19  20
ENDBRANCH   3  19
TORSDOF 10
ENDMDL
MODEL 7
REMARK VINA RESULT:      -7.9      4.963     11.561
REMARK  Name = 
REMARK  10 active torsions:
REMARK  status: ('A' for Active; 'I' for Inactive)
REMARK    1  A    between atoms: C_2  and  C_19
REMARK    2  A    between atoms: N_3  and  C_4
REMARK    3  A    between atoms: C_4  and  C_5
REMARK    4  A    between atoms: C_5  and  N_6
REMARK    5  A    between atoms: C_5  and  C_16
REMARK    6  A    between atoms: N_6  and  S_7
REMARK    7  A    between atoms: S_7  and  C_10
REMARK    8  A    between atoms: C_16  and  O_18
REMARK    9  A    between atoms: C_22  and  C_23
REMARK   10  A    between atoms: C_23  and  N_24
REMARK                            x       y       z     vdW  Elec       q    Type
REMARK                         _______ _______ _______ _____ _____    ______ ____
ROOT
ATOM      1  O   UNL     1      -0.620  10.186  19.101  0.00  0.00    +0.000 OA
ATOM      2  C   UNL     1       0.438   9.936  19.650  0.00  0.00    +0.000 C 
ATOM      3  N   UNL     1       0.927  10.624  20.752  0.00  0.00    +0.000 N 
ATOM      4  H   UNL     1       1.932  10.597  20.889  0.00  0.00    +0.000 HD
ENDROOT
BRANCH   2   5
ATOM      5  C   UNL     1       1.323   8.852  19.172  0.00  0.00    +0.000 A 
ATOM      6  C   UNL     1       1.867   8.922  17.895  0.00  0.00    +0.000 A 
ATOM      7  C   UNL     1       2.813   7.973  17.514  0.00  0.00    +0.000 A 
ATOM      8  C   UNL     1       3.223   6.958  18.399  0.00  0.00    +0.000 A 
ATOM      9  C   UNL     1       2.564   6.833  19.632  0.00  0.00    +0.000 A 
ATOM     10  C   UNL     1       1.613   7.780  20.020  0.00  0.00    +0.000 A 
BRANCH   8  11
ATOM     11  C   UNL     1       4.323   5.964  18.048  0.00  0.00    +0.000 C 
BRANCH  11  12
ATOM     12  N   UNL     1       5.302   6.465  17.076  0.00  0.00    +0.000 NA
ATOM     13  C   UNL     1       6.655   6.668  17.628  0.00  0.00    +0.000 C 
ATOM     14  C   UNL     1       7.489   5.389  17.835  0.00  0.00    +0.000 C 
ATOM     15  N   UNL     1       7.595   4.554  16.639  0.00  0.00    +0.000 NA
ATOM     16  C   UNL     1       6.305   4.361  15.970  0.00  0.00    +0.000 C 
ATOM     17  C   UNL     1       5.392   5.609  15.878  0.00  0.00    +0.000 C 
ATOM     18  H   UNL     1       7.990   3.647  16.887  0.00  0.00    +0.000 HD
ENDBRANCH  11  12
ENDBRANCH   8  11
ENDBRANCH   2   5
BRANCH   3  19
ATOM     19  C   UNL     1       0.098  11.616  21.408  0.00  0.00    +0.000 C 
BRANCH  19  20
ATOM     20  C   UNL     1      -0.893  10.985  22.414  0.00  0.00    +0.000 C 
BRANCH  20  21
ATOM     21  N   UNL     1      -1.294  12.047  23.380  0.00  0.00    +0.000 NA
ATOM     22  H   UNL     1      -1.054  11.856  24.350  0.00  0.00    +0.000 HD
BRANCH  21  23
ATOM     23  S   UNL     1      -2.874  12.660  23.259  0.00  0.00    +0.000 S 
ATOM     24  O   UNL     1      -3.109  12.896  21.851  0.00  0.00    +0.000 OA
ATOM     25  O   UNL     1      -3.764  11.854  24.054  0.00  0.00    +0.000 OA
BRANCH  23  26
ATOM     26  C   UNL     1      -2.685  14.264  23.999  0.00  0.00    +0.000 A 
ATOM     27  C   UNL     1      -1.392  14.707  24.297  0.00  0.00    +0.000 A 
ATOM     28  C   UNL     1      -1.221  15.896  25.000  0.00  0.00    +0.000 A 
ATOM     29  C   UNL     1      -2.336  16.638  25.391  0.00  0.00    +0.000 A 
ATOM     30  C   UNL     1      -3.622  16.219  25.044  0.00  0.00    +0.000 A 
ATOM     31  C   UNL     1      -3.799  15.036  24.326  0.00  0.00    +0.000 A 
ENDBRANCH  23  26
ENDBRANCH  21  23
ENDBRANCH  20  21
BRANCH  20  32
ATOM     32  C   UNL     1      -0.357   9.696  23.055  0.00  0.00    +0.000 C 
ATOM     33  O   UNL     1       0.526   9.681  23.900  0.00  0.00    +0.000 OA
BRANCH  32  34
ATOM     34  O   UNL     1      -0.878   8.520  22.636  0.00  0.00    +0.000 OA
ATOM     35  H   UNL     1      -1.818   8.370  22.828  0.00  0.00    +0.000 HD
ENDBRANCH  32  34
ENDBRANCH  20  32
ENDBRANCH  19  20
ENDBRANCH   3  19
TORSDOF 10
ENDMDL
MODEL 8
REMARK VINA RESULT:      -7.8      2.644      4.956
REMARK  Name = 
REMARK  10 active torsions:
REMARK  status: ('A' for Active; 'I' for Inactive)
REMARK    1  A    between atoms: C_2  and  C_19
REMARK    2  A    between atoms: N_3  and  C_4
REMARK    3  A    between atoms: C_4  and  C_5
REMARK    4  A    between atoms: C_5  and  N_6
REMARK    5  A    between atoms: C_5  and  C_16
REMARK    6  A    between atoms: N_6  and  S_7
REMARK    7  A    between atoms: S_7  and  C_10
REMARK    8  A    between atoms: C_16  and  O_18
REMARK    9  A    between atoms: C_22  and  C_23
REMARK   10  A    between atoms: C_23  and  N_24
REMARK                            x       y       z     vdW  Elec       q    Type
REMARK                         _______ _______ _______ _____ _____    ______ ____
ROOT
ATOM      1  O   UNL     1       4.884   7.274  16.991  0.00  0.00    +0.000 OA
ATOM      2  C   UNL     1       3.994   6.583  17.454  0.00  0.00    +0.000 C 
ATOM      3  N   UNL     1       3.906   5.209  17.284  0.00  0.00    +0.000 N 
ATOM      4  H   UNL     1       2.980   4.802  17.373  0.00  0.00    +0.000 HD
ENDROOT
BRANCH   2   5
ATOM      5  C   UNL     1       2.895   7.166  18.252  0.00  0.00    +0.000 A 
ATOM      6  C   UNL     1       2.556   6.599  19.474  0.00  0.00    +0.000 A 
ATOM      7  C   UNL     1       1.622   7.244  20.281  0.00  0.00    +0.000 A 
ATOM      8  C   UNL     1       1.027   8.456  19.879  0.00  0.00    +0.000 A 
ATOM      9  C   UNL     1       1.288   8.938  18.586  0.00  0.00    +0.000 A 
ATOM     10  C   UNL     1       2.223   8.294  17.771  0.00  0.00    +0.000 A 
BRANCH   8  11
ATOM     11  C   UNL     1       0.075   9.236  20.776  0.00  0.00    +0.000 C 
BRANCH  11  12
ATOM     12  N   UNL     1       0.742  10.030  21.816  0.00  0.00    +0.000 NA
ATOM     13  C   UNL     1       1.091  11.402  21.400  0.00  0.00    +0.000 C 
ATOM     14  C   UNL     1      -0.079  12.404  21.358  0.00  0.00    +0.000 C 
ATOM     15  N   UNL     1      -0.839  12.475  22.606  0.00  0.00    +0.000 NA
ATOM     16  C   UNL     1      -1.165  11.152  23.144  0.00  0.00    +0.000 C 
ATOM     17  C   UNL     1      -0.041  10.088  23.064  0.00  0.00    +0.000 C 
ATOM     18  H   UNL     1      -1.698  13.004  22.456  0.00  0.00    +0.000 HD
ENDBRANCH  11  12
ENDBRANCH   8  11
ENDBRANCH   2   5
BRANCH   3  19
ATOM     19  C   UNL     1       4.991   4.491  16.642  0.00  0.00    +0.000 C 
BRANCH  19  20
ATOM     20  C   UNL     1       5.932   3.810  17.663  0.00  0.00    +0.000 C 
BRANCH  20  21
ATOM     21  N   UNL     1       5.207   3.733  18.964  0.00  0.00    +0.000 NA
ATOM     22  H   UNL     1       5.687   4.169  19.748  0.00  0.00    +0.000 HD
BRANCH  21  23
ATOM     23  S   UNL     1       4.561   2.227  19.414  0.00  0.00    +0.000 S 
ATOM     24  O   UNL     1       4.545   1.419  18.213  0.00  0.00    +0.000 OA
ATOM     25  O   UNL     1       5.195   1.776  20.625  0.00  0.00    +0.000 OA
BRANCH  23  26
ATOM     26  C   UNL     1       2.868   2.655  19.738  0.00  0.00    +0.000 A 
ATOM     27  C   UNL     1       1.955   2.589  18.680  0.00  0.00    +0.000 A 
ATOM     28  C   UNL     1       0.655   3.047  18.868  0.00  0.00    +0.000 A 
ATOM     29  C   UNL     1       0.271   3.558  20.110  0.00  0.00    +0.000 A 
ATOM     30  C   UNL     1       1.171   3.571  21.177  0.00  0.00    +0.000 A 
ATOM     31  C   UNL     1       2.471   3.098  20.999  0.00  0.00    +0.000 A 
ENDBRANCH  23  26
ENDBRANCH  21  23
ENDBRANCH  20  21
BRANCH  20  32
ATOM     32  C   UNL     1       7.318   4.466  17.734  0.00  0.00    +0.000 C 
ATOM     33  O   UNL     1       8.134   4.415  16.825  0.00  0.00    +0.000 OA
BRANCH  32  34
ATOM     34  O   UNL     1       7.655   5.108  18.876  0.00  0.00    +0.000 OA
ATOM     35  H   UNL     1       7.451   4.646  19.707  0.00  0.00    +0.000 HD
ENDBRANCH  32  34
ENDBRANCH  20  32
ENDBRANCH  19  20
ENDBRANCH   3  19
TORSDOF 10
ENDMDL
MODEL 9
REMARK VINA RESULT:      -7.8      1.363      2.142
REMARK  Name = 
REMARK  10 active torsions:
REMARK  status: ('A' for Active; 'I' for Inactive)
REMARK    1  A    between atoms: C_2  and  C_19
REMARK    2  A    between atoms: N_3  and  C_4
REMARK    3  A    between atoms: C_4  and  C_5
REMARK    4  A    between atoms: C_5  and  N_6
REMARK    5  A    between atoms: C_5  and  C_16
REMARK    6  A    between atoms: N_6  and  S_7
REMARK    7  A    between atoms: S_7  and  C_10
REMARK    8  A    between atoms: C_16  and  O_18
REMARK    9  A    between atoms: C_22  and  C_23
REMARK   10  A    between atoms: C_23  and  N_24
REMARK                            x       y       z     vdW  Elec       q    Type
REMARK                         _______ _______ _______ _____ _____    ______ ____
ROOT
ATOM      1  O   UNL     1       2.160   5.639  20.357  0.00  0.00    +0.000 OA
ATOM      2  C   UNL     1       2.255   6.610  19.626  0.00  0.00    +0.000 C 
ATOM      3  N   UNL     1       2.906   6.603  18.401  0.00  0.00    +0.000 N 
ATOM      4  H   UNL     1       3.245   7.499  18.066  0.00  0.00    +0.000 HD
ENDROOT
BRANCH   2   5
ATOM      5  C   UNL     1       1.676   7.918  19.997  0.00  0.00    +0.000 A 
ATOM      6  C   UNL     1       1.470   8.882  19.018  0.00  0.00    +0.000 A 
ATOM      7  C   UNL     1       0.790  10.050  19.354  0.00  0.00    +0.000 A 
ATOM      8  C   UNL     1       0.309  10.261  20.661  0.00  0.00    +0.000 A 
ATOM      9  C   UNL     1       0.644   9.333  21.660  0.00  0.00    +0.000 A 
ATOM     10  C   UNL     1       1.328   8.161  21.329  0.00  0.00    +0.000 A 
BRANCH   8  11
ATOM     11  C   UNL     1      -0.520  11.482  21.038  0.00  0.00    +0.000 C 
BRANCH  11  12
ATOM     12  N   UNL     1      -0.981  12.276  19.893  0.00  0.00    +0.000 NA
ATOM     13  C   UNL     1      -2.409  12.098  19.567  0.00  0.00    +0.000 C 
ATOM     14  C   UNL     1      -3.400  12.826  20.494  0.00  0.00    +0.000 C 
ATOM     15  N   UNL     1      -3.131  14.257  20.638  0.00  0.00    +0.000 NA
ATOM     16  C   UNL     1      -1.715  14.542  20.884  0.00  0.00    +0.000 C 
ATOM     17  C   UNL     1      -0.699  13.714  20.058  0.00  0.00    +0.000 C 
ATOM     18  H   UNL     1      -3.694  14.638  21.398  0.00  0.00    +0.000 HD
ENDBRANCH  11  12
ENDBRANCH   8  11
ENDBRANCH   2   5
BRANCH   3  19
ATOM     19  C   UNL     1       3.396   5.353  17.852  0.00  0.00    +0.000 C 
BRANCH  19  20
ATOM     20  C   UNL     1       4.935   5.229  17.953  0.00  0.00    +0.000 C 
BRANCH  20  21
ATOM     21  N   UNL     1       5.423   4.625  16.681  0.00  0.00    +0.000 NA
ATOM     22  H   UNL     1       5.278   3.621  16.600  0.00  0.00    +0.000 HD
BRANCH  21  23
ATOM     23  S   UNL     1       6.981   5.054  16.157  0.00  0.00    +0.000 S 
ATOM     24  O   UNL     1       7.023   6.501  16.153  0.00  0.00    +0.000 OA
ATOM     25  O   UNL     1       7.959   4.267  16.862  0.00  0.00    +0.000 OA
BRANCH  23  26
ATOM     26  C   UNL     1       6.925   4.563  14.450  0.00  0.00    +0.000 A 
ATOM     27  C   UNL     1       7.811   5.173  13.556  0.00  0.00    +0.000 A 
ATOM     28  C   UNL     1       7.699   4.911  12.195  0.00  0.00    +0.000 A 
ATOM     29  C   UNL     1       6.713   4.037  11.735  0.00  0.00    +0.000 A 
ATOM     30  C   UNL     1       5.866   3.389  12.636  0.00  0.00    +0.000 A 
ATOM     31  C   UNL     1       5.984   3.636  14.004  0.00  0.00    +0.000 A 
ENDBRANCH  23  26
ENDBRANCH  21  23
ENDBRANCH  20  21
BRANCH  20  32
ATOM     32  C   UNL     1       5.397   4.510  19.229  0.00  0.00    +0.000 C 
ATOM     33  O   UNL     1       4.870   3.495  19.659  0.00  0.00    +0.000 OA
BRANCH  32  34
ATOM     34  O   UNL     1       6.425   5.054  19.921  0.00  0.00    +0.000 OA
ATOM     35  H   UNL     1       6.204   5.462  20.774  0.00  0.00    +0.000 HD
ENDBRANCH  32  34
ENDBRANCH  20  32
ENDBRANCH  19  20
ENDBRANCH   3  19
TORSDOF 10
ENDMDL
