MODEL 1
REMARK VINA RESULT:      -6.9      0.000      0.000
REMARK  Name = 
REMARK  4 active torsions:
REMARK  status: ('A' for Active; 'I' for Inactive)
REMARK    1  A    between atoms: C_2  and  C_11
REMARK    2  A    between atoms: N_3  and  C_4
REMARK    3  A    between atoms: C_4  and  C_5
REMARK    4  A    between atoms: C_14  and  C_15
REMARK                            x       y       z     vdW  Elec       q    Type
REMARK                         _______ _______ _______ _____ _____    ______ ____
ROOT
ATOM      1  C   UNL     1       0.852   9.353  20.603  0.00  0.00    +0.000 A 
ATOM      2  C   UNL     1       1.053   9.346  21.977  0.00  0.00    +0.000 A 
ATOM      3  N   UNL     1       0.380  10.173  22.818  0.00  0.00    +0.000 NA
ATOM      4  C   UNL     1      -0.509  11.018  22.234  0.00  0.00    +0.000 A 
ATOM      5  C   UNL     1      -0.703  11.007  20.848  0.00  0.00    +0.000 A 
ATOM      6  N   UNL     1      -0.032  10.188  19.998  0.00  0.00    +0.000 NA
ENDROOT
BRANCH   4   7
ATOM      7  C   UNL     1      -1.298  11.944  23.132  0.00  0.00    +0.000 C 
ATOM      8  C   UNL     1      -2.646  12.330  22.538  0.00  0.00    +0.000 C 
ATOM      9  C   UNL     1      -3.031  13.556  23.346  0.00  0.00    +0.000 C 
ATOM     10  C   UNL     1      -1.705  14.201  23.724  0.00  0.00    +0.000 C 
ATOM     11  N   UNL     1      -0.655  13.252  23.358  0.00  0.00    +0.000 NA
ATOM     12  H   UNL     1       0.048  13.177  24.092  0.00  0.00    +0.000 HD
ENDBRANCH   4   7
BRANCH   1  14
ATOM     13  O   UNL     1       1.838   8.683  18.567  0.00  0.00    +0.000 OA
ATOM     14  C   UNL     1       1.641   8.424  19.748  0.00  0.00    +0.000 C 
ATOM     15  N   UNL     1       2.111   7.285  20.364  0.00  0.00    +0.000 N 
ATOM     16  H   UNL     1       1.991   7.193  21.370  0.00  0.00    +0.000 HD
BRANCH  15  17
ATOM     17  C   UNL     1       2.893   6.305  19.640  0.00  0.00    +0.000 C 
BRANCH  17  18
ATOM     18  C   UNL     1       2.184   4.977  19.498  0.00  0.00    +0.000 A 
ATOM     19  C   UNL     1       1.620   4.364  20.618  0.00  0.00    +0.000 A 
ATOM     20  C   UNL     1       0.960   3.149  20.465  0.00  0.00    +0.000 A 
ATOM     21  C   UNL     1       0.873   2.580  19.201  0.00  0.00    +0.000 A 
ATOM     22  C   UNL     1       1.456   3.252  18.139  0.00  0.00    +0.000 A 
ATOM     23  N   UNL     1       2.105   4.433  18.256  0.00  0.00    +0.000 NA
ENDBRANCH  17  18
ENDBRANCH  15  17
ENDBRANCH   1  14
TORSDOF 4
ENDMDL
MODEL 2
REMARK VINA RESULT:      -6.8      4.602      6.388
REMARK  Name = 
REMARK  4 active torsions:
REMARK  status: ('A' for Active; 'I' for Inactive)
REMARK    1  A    between atoms: C_2  and  C_11
REMARK    2  A    between atoms: N_3  and  C_4
REMARK    3  A    between atoms: C_4  and  C_5
REMARK    4  A    between atoms: C_14  and  C_15
REMARK                            x       y       z     vdW  Elec       q    Type
REMARK                         _______ _______ _______ _____ _____    ______ ____
ROOT
ATOM      1  C   UNL     1       3.737   6.386  18.079  0.00  0.00    +0.000 A 
ATOM      2  C   UNL     1       3.640   7.442  17.182  0.00  0.00    +0.000 A 
ATOM      3  N   UNL     1       2.832   8.512  17.397  0.00  0.00    +0.000 NA
ATOM      4  C   UNL     1       2.114   8.492  18.550  0.00  0.00    +0.000 A 
ATOM      5  C   UNL     1       2.229   7.422  19.445  0.00  0.00    +0.000 A 
ATOM      6  N   UNL     1       3.029   6.346  19.238  0.00  0.00    +0.000 NA
ENDROOT
BRANCH   4   7
ATOM      7  C   UNL     1       1.215   9.671  18.843  0.00  0.00    +0.000 C 
ATOM      8  C   UNL     1       0.436   9.507  20.142  0.00  0.00    +0.000 C 
ATOM      9  C   UNL     1      -0.675  10.530  19.999  0.00  0.00    +0.000 C 
ATOM     10  C   UNL     1      -0.928  10.618  18.500  0.00  0.00    +0.000 C 
ATOM     11  N   UNL     1       0.148   9.875  17.846  0.00  0.00    +0.000 NA
ATOM     12  H   UNL     1       0.510  10.381  17.040  0.00  0.00    +0.000 HD
ENDBRANCH   4   7
BRANCH   1  14
ATOM     13  O   UNL     1       4.687   4.269  18.504  0.00  0.00    +0.000 OA
ATOM     14  C   UNL     1       4.636   5.243  17.762  0.00  0.00    +0.000 C 
ATOM     15  N   UNL     1       5.386   5.362  16.613  0.00  0.00    +0.000 N 
ATOM     16  H   UNL     1       5.212   6.155  16.000  0.00  0.00    +0.000 HD
BRANCH  15  17
ATOM     17  C   UNL     1       6.297   4.316  16.196  0.00  0.00    +0.000 C 
BRANCH  17  18
ATOM     18  C   UNL     1       6.664   4.408  14.731  0.00  0.00    +0.000 A 
ATOM     19  C   UNL     1       6.000   3.614  13.796  0.00  0.00    +0.000 A 
ATOM     20  C   UNL     1       6.342   3.722  12.452  0.00  0.00    +0.000 A 
ATOM     21  C   UNL     1       7.332   4.621  12.074  0.00  0.00    +0.000 A 
ATOM     22  C   UNL     1       7.942   5.375  13.064  0.00  0.00    +0.000 A 
ATOM     23  N   UNL     1       7.632   5.293  14.377  0.00  0.00    +0.000 NA
ENDBRANCH  17  18
ENDBRANCH  15  17
ENDBRANCH   1  14
TORSDOF 4
ENDMDL
MODEL 3
REMARK VINA RESULT:      -6.8      0.619      1.048
REMARK  Name = 
REMARK  4 active torsions:
REMARK  status: ('A' for Active; 'I' for Inactive)
REMARK    1  A    between atoms: C_2  and  C_11
REMARK    2  A    between atoms: N_3  and  C_4
REMARK    3  A    between atoms: C_4  and  C_5
REMARK    4  A    between atoms: C_14  and  C_15
REMARK                            x       y       z     vdW  Elec       q    Type
REMARK                         _______ _______ _______ _____ _____    ______ ____
ROOT
ATOM      1  C   UNL     1       0.847   9.362  20.664  0.00  0.00    +0.000 A 
ATOM      2  C   UNL     1       0.953   9.270  22.046  0.00  0.00    +0.000 A 
ATOM      3  N   UNL     1       0.285  10.101  22.887  0.00  0.00    +0.000 NA
ATOM      4  C   UNL     1      -0.499  11.039  22.297  0.00  0.00    +0.000 A 
ATOM      5  C   UNL     1      -0.598  11.114  20.903  0.00  0.00    +0.000 A 
ATOM      6  N   UNL     1       0.068  10.292  20.053  0.00  0.00    +0.000 NA
ENDROOT
BRANCH   4   7
ATOM      7  C   UNL     1      -1.278  11.975  23.193  0.00  0.00    +0.000 C 
ATOM      8  C   UNL     1      -2.647  12.327  22.626  0.00  0.00    +0.000 C 
ATOM      9  C   UNL     1      -3.029  13.566  23.415  0.00  0.00    +0.000 C 
ATOM     10  C   UNL     1      -1.704  14.239  23.743  0.00  0.00    +0.000 C 
ATOM     11  N   UNL     1      -0.649  13.297  23.372  0.00  0.00    +0.000 NA
ATOM     12  H   UNL     1       0.075  13.250  24.088  0.00  0.00    +0.000 HD
ENDBRANCH   4   7
BRANCH   1  14
ATOM     13  O   UNL     1       1.793   8.659  18.621  0.00  0.00    +0.000 OA
ATOM     14  C   UNL     1       1.623   8.421  19.810  0.00  0.00    +0.000 C 
ATOM     15  N   UNL     1       2.113   7.298  20.438  0.00  0.00    +0.000 N 
ATOM     16  H   UNL     1       2.015   7.224  21.447  0.00  0.00    +0.000 HD
BRANCH  15  17
ATOM     17  C   UNL     1       2.886   6.308  19.716  0.00  0.00    +0.000 C 
BRANCH  17  18
ATOM     18  C   UNL     1       2.160   4.989  19.570  0.00  0.00    +0.000 A 
ATOM     19  C   UNL     1       1.946   4.448  18.302  0.00  0.00    +0.000 A 
ATOM     20  C   UNL     1       1.289   3.227  18.189  0.00  0.00    +0.000 A 
ATOM     21  C   UNL     1       0.867   2.575  19.340  0.00  0.00    +0.000 A 
ATOM     22  C   UNL     1       1.120   3.177  20.562  0.00  0.00    +0.000 A 
ATOM     23  N   UNL     1       1.755   4.362  20.705  0.00  0.00    +0.000 NA
ENDBRANCH  17  18
ENDBRANCH  15  17
ENDBRANCH   1  14
TORSDOF 4
ENDMDL
MODEL 4
REMARK VINA RESULT:      -6.7      4.599      6.338
REMARK  Name = 
REMARK  4 active torsions:
REMARK  status: ('A' for Active; 'I' for Inactive)
REMARK    1  A    between atoms: C_2  and  C_11
REMARK    2  A    between atoms: N_3  and  C_4
REMARK    3  A    between atoms: C_4  and  C_5
REMARK    4  A    between atoms: C_14  and  C_15
REMARK                            x       y       z     vdW  Elec       q    Type
REMARK                         _______ _______ _______ _____ _____    ______ ____
ROOT
ATOM      1  C   UNL     1       4.009   6.174  18.214  0.00  0.00    +0.000 A 
ATOM      2  C   UNL     1       3.765   7.294  17.431  0.00  0.00    +0.000 A 
ATOM      3  N   UNL     1       2.824   8.219  17.752  0.00  0.00    +0.000 NA
ATOM      4  C   UNL     1       2.126   7.985  18.893  0.00  0.00    +0.000 A 
ATOM      5  C   UNL     1       2.390   6.854  19.673  0.00  0.00    +0.000 A 
ATOM      6  N   UNL     1       3.324   5.920  19.360  0.00  0.00    +0.000 NA
ENDROOT
BRANCH   4   7
ATOM      7  C   UNL     1       1.081   8.998  19.303  0.00  0.00    +0.000 C 
ATOM      8  C   UNL     1       1.287  10.354  18.642  0.00  0.00    +0.000 C 
ATOM      9  C   UNL     1       0.454  11.280  19.509  0.00  0.00    +0.000 C 
ATOM     10  C   UNL     1       0.490  10.649  20.894  0.00  0.00    +0.000 C 
ATOM     11  N   UNL     1       1.098   9.329  20.740  0.00  0.00    +0.000 NA
ATOM     12  H   UNL     1       0.589   8.623  21.271  0.00  0.00    +0.000 HD
ENDBRANCH   4   7
BRANCH   1  14
ATOM     13  O   UNL     1       5.036   4.049  18.209  0.00  0.00    +0.000 OA
ATOM     14  C   UNL     1       5.049   5.199  17.785  0.00  0.00    +0.000 C 
ATOM     15  N   UNL     1       6.001   5.673  16.910  0.00  0.00    +0.000 N 
ATOM     16  H   UNL     1       5.885   6.608  16.528  0.00  0.00    +0.000 HD
BRANCH  15  17
ATOM     17  C   UNL     1       7.064   4.822  16.417  0.00  0.00    +0.000 C 
BRANCH  17  18
ATOM     18  C   UNL     1       7.028   4.648  14.915  0.00  0.00    +0.000 A 
ATOM     19  C   UNL     1       6.118   3.761  14.338  0.00  0.00    +0.000 A 
ATOM     20  C   UNL     1       6.090   3.625  12.954  0.00  0.00    +0.000 A 
ATOM     21  C   UNL     1       6.965   4.377  12.181  0.00  0.00    +0.000 A 
ATOM     22  C   UNL     1       7.837   5.237  12.830  0.00  0.00    +0.000 A 
ATOM     23  N   UNL     1       7.888   5.392  14.173  0.00  0.00    +0.000 NA
ENDBRANCH  17  18
ENDBRANCH  15  17
ENDBRANCH   1  14
TORSDOF 4
ENDMDL
MODEL 5
REMARK VINA RESULT:      -6.7      6.965      7.956
REMARK  Name = 
REMARK  4 active torsions:
REMARK  status: ('A' for Active; 'I' for Inactive)
REMARK    1  A    between atoms: C_2  and  C_11
REMARK    2  A    between atoms: N_3  and  C_4
REMARK    3  A    between atoms: C_4  and  C_5
REMARK    4  A    between atoms: C_14  and  C_15
REMARK                            x       y       z     vdW  Elec       q    Type
REMARK                         _______ _______ _______ _____ _____    ______ ____
ROOT
ATOM      1  C   UNL     1       6.437   5.616  17.940  0.00  0.00    +0.000 A 
ATOM      2  C   UNL     1       6.129   6.643  17.059  0.00  0.00    +0.000 A 
ATOM      3  N   UNL     1       6.821   7.811  17.027  0.00  0.00    +0.000 NA
ATOM      4  C   UNL     1       7.842   7.921  17.916  0.00  0.00    +0.000 A 
ATOM      5  C   UNL     1       8.142   6.873  18.793  0.00  0.00    +0.000 A 
ATOM      6  N   UNL     1       7.454   5.704  18.837  0.00  0.00    +0.000 NA
ENDROOT
BRANCH   4   7
ATOM      7  C   UNL     1       8.655   9.195  17.905  0.00  0.00    +0.000 C 
ATOM      8  C   UNL     1       9.143   9.593  19.291  0.00  0.00    +0.000 C 
ATOM      9  C   UNL     1       9.512  11.054  19.112  0.00  0.00    +0.000 C 
ATOM     10  C   UNL     1       8.572  11.559  18.026  0.00  0.00    +0.000 C 
ATOM     11  N   UNL     1       7.900  10.385  17.470  0.00  0.00    +0.000 NA
ATOM     12  H   UNL     1       7.863  10.428  16.453  0.00  0.00    +0.000 HD
ENDBRANCH   4   7
BRANCH   1  14
ATOM     13  O   UNL     1       5.132   3.965  16.874  0.00  0.00    +0.000 OA
ATOM     14  C   UNL     1       5.620   4.372  17.922  0.00  0.00    +0.000 C 
ATOM     15  N   UNL     1       5.454   3.737  19.132  0.00  0.00    +0.000 N 
ATOM     16  H   UNL     1       5.973   4.082  19.936  0.00  0.00    +0.000 HD
BRANCH  15  17
ATOM     17  C   UNL     1       4.682   2.517  19.245  0.00  0.00    +0.000 C 
BRANCH  17  18
ATOM     18  C   UNL     1       3.237   2.768  19.612  0.00  0.00    +0.000 A 
ATOM     19  C   UNL     1       2.873   2.912  20.951  0.00  0.00    +0.000 A 
ATOM     20  C   UNL     1       1.541   3.156  21.268  0.00  0.00    +0.000 A 
ATOM     21  C   UNL     1       0.607   3.255  20.244  0.00  0.00    +0.000 A 
ATOM     22  C   UNL     1       1.049   3.102  18.940  0.00  0.00    +0.000 A 
ATOM     23  N   UNL     1       2.336   2.864  18.600  0.00  0.00    +0.000 NA
ENDBRANCH  17  18
ENDBRANCH  15  17
ENDBRANCH   1  14
TORSDOF 4
ENDMDL
MODEL 6
REMARK VINA RESULT:      -6.7      3.288      4.641
REMARK  Name = 
REMARK  4 active torsions:
REMARK  status: ('A' for Active; 'I' for Inactive)
REMARK    1  A    between atoms: C_2  and  C_11
REMARK    2  A    between atoms: N_3  and  C_4
REMARK    3  A    between atoms: C_4  and  C_5
REMARK    4  A    between atoms: C_14  and  C_15
REMARK                            x       y       z     vdW  Elec       q    Type
REMARK                         _______ _______ _______ _____ _____    ______ ____
ROOT
ATOM      1  C   UNL     1       2.339   7.403  18.987  0.00  0.00    +0.000 A 
ATOM      2  C   UNL     1       1.790   7.775  20.206  0.00  0.00    +0.000 A 
ATOM      3  N   UNL     1       1.089   8.927  20.372  0.00  0.00    +0.000 NA
ATOM      4  C   UNL     1       0.955   9.704  19.267  0.00  0.00    +0.000 A 
ATOM      5  C   UNL     1       1.510   9.311  18.044  0.00  0.00    +0.000 A 
ATOM      6  N   UNL     1       2.217   8.165  17.868  0.00  0.00    +0.000 NA
ENDROOT
BRANCH   4   7
ATOM      7  C   UNL     1       0.166  10.987  19.396  0.00  0.00    +0.000 C 
ATOM      8  C   UNL     1      -1.313  10.801  19.083  0.00  0.00    +0.000 C 
ATOM      9  C   UNL     1      -1.786  12.222  18.837  0.00  0.00    +0.000 C 
ATOM     10  C   UNL     1      -0.567  12.943  18.280  0.00  0.00    +0.000 C 
ATOM     11  N   UNL     1       0.570  12.039  18.445  0.00  0.00    +0.000 NA
ATOM     12  H   UNL     1       1.389  12.535  18.794  0.00  0.00    +0.000 HD
ENDBRANCH   4   7
BRANCH   1  14
ATOM     13  O   UNL     1       3.841   5.779  19.806  0.00  0.00    +0.000 OA
ATOM     14  C   UNL     1       3.106   6.131  18.892  0.00  0.00    +0.000 C 
ATOM     15  N   UNL     1       2.935   5.405  17.734  0.00  0.00    +0.000 N 
ATOM     16  H   UNL     1       2.231   5.714  17.067  0.00  0.00    +0.000 HD
BRANCH  15  17
ATOM     17  C   UNL     1       3.624   4.149  17.522  0.00  0.00    +0.000 C 
BRANCH  17  18
ATOM     18  C   UNL     1       4.944   4.317  16.803  0.00  0.00    +0.000 A 
ATOM     19  C   UNL     1       4.976   4.374  15.409  0.00  0.00    +0.000 A 
ATOM     20  C   UNL     1       6.198   4.542  14.767  0.00  0.00    +0.000 A 
ATOM     21  C   UNL     1       7.355   4.655  15.527  0.00  0.00    +0.000 A 
ATOM     22  C   UNL     1       7.238   4.591  16.907  0.00  0.00    +0.000 A 
ATOM     23  N   UNL     1       6.066   4.428  17.561  0.00  0.00    +0.000 NA
ENDBRANCH  17  18
ENDBRANCH  15  17
ENDBRANCH   1  14
TORSDOF 4
ENDMDL
MODEL 7
REMARK VINA RESULT:      -6.7      4.640      6.313
REMARK  Name = 
REMARK  4 active torsions:
REMARK  status: ('A' for Active; 'I' for Inactive)
REMARK    1  A    between atoms: C_2  and  C_11
REMARK    2  A    between atoms: N_3  and  C_4
REMARK    3  A    between atoms: C_4  and  C_5
REMARK    4  A    between atoms: C_14  and  C_15
REMARK                            x       y       z     vdW  Elec       q    Type
REMARK                         _______ _______ _______ _____ _____    ______ ____
ROOT
ATOM      1  C   UNL     1       4.054   6.211  18.195  0.00  0.00    +0.000 A 
ATOM      2  C   UNL     1       3.298   5.979  19.336  0.00  0.00    +0.000 A 
ATOM      3  N   UNL     1       2.333   6.835  19.761  0.00  0.00    +0.000 NA
ATOM      4  C   UNL     1       2.148   7.945  19.000  0.00  0.00    +0.000 A 
ATOM      5  C   UNL     1       2.915   8.160  17.849  0.00  0.00    +0.000 A 
ATOM      6  N   UNL     1       3.885   7.313  17.419  0.00  0.00    +0.000 NA
ENDROOT
BRANCH   4   7
ATOM      7  C   UNL     1       1.071   8.919  19.421  0.00  0.00    +0.000 C 
ATOM      8  C   UNL     1       1.210  10.276  18.746  0.00  0.00    +0.000 C 
ATOM      9  C   UNL     1       0.356  11.176  19.620  0.00  0.00    +0.000 C 
ATOM     10  C   UNL     1       0.443  10.560  21.009  0.00  0.00    +0.000 C 
ATOM     11  N   UNL     1       1.100   9.263  20.855  0.00  0.00    +0.000 NA
ATOM     12  H   UNL     1       0.630   8.542  21.401  0.00  0.00    +0.000 HD
ENDBRANCH   4   7
BRANCH   1  14
ATOM     13  O   UNL     1       5.191   4.153  18.383  0.00  0.00    +0.000 OA
ATOM     14  C   UNL     1       5.103   5.229  17.804  0.00  0.00    +0.000 C 
ATOM     15  N   UNL     1       5.942   5.613  16.782  0.00  0.00    +0.000 N 
ATOM     16  H   UNL     1       5.739   6.478  16.287  0.00  0.00    +0.000 HD
BRANCH  15  17
ATOM     17  C   UNL     1       7.000   4.745  16.309  0.00  0.00    +0.000 C 
BRANCH  17  18
ATOM     18  C   UNL     1       7.025   4.616  14.802  0.00  0.00    +0.000 A 
ATOM     19  C   UNL     1       6.151   3.736  14.164  0.00  0.00    +0.000 A 
ATOM     20  C   UNL     1       6.179   3.642  12.776  0.00  0.00    +0.000 A 
ATOM     21  C   UNL     1       7.073   4.428  12.061  0.00  0.00    +0.000 A 
ATOM     22  C   UNL     1       7.907   5.279  12.770  0.00  0.00    +0.000 A 
ATOM     23  N   UNL     1       7.903   5.393  14.117  0.00  0.00    +0.000 NA
ENDBRANCH  17  18
ENDBRANCH  15  17
ENDBRANCH   1  14
TORSDOF 4
ENDMDL
MODEL 8
REMARK VINA RESULT:      -6.7      3.101      4.364
REMARK  Name = 
REMARK  4 active torsions:
REMARK  status: ('A' for Active; 'I' for Inactive)
REMARK    1  A    between atoms: C_2  and  C_11
REMARK    2  A    between atoms: N_3  and  C_4
REMARK    3  A    between atoms: C_4  and  C_5
REMARK    4  A    between atoms: C_14  and  C_15
REMARK                            x       y       z     vdW  Elec       q    Type
REMARK                         _______ _______ _______ _____ _____    ______ ____
ROOT
ATOM      1  C   UNL     1       2.040   7.373  19.594  0.00  0.00    +0.000 A 
ATOM      2  C   UNL     1       2.095   8.198  18.479  0.00  0.00    +0.000 A 
ATOM      3  N   UNL     1       1.577   9.454  18.472  0.00  0.00    +0.000 NA
ATOM      4  C   UNL     1       0.994   9.862  19.629  0.00  0.00    +0.000 A 
ATOM      5  C   UNL     1       0.954   9.019  20.745  0.00  0.00    +0.000 A 
ATOM      6  N   UNL     1       1.463   7.761  20.761  0.00  0.00    +0.000 NA
ENDROOT
BRANCH   4   7
ATOM      7  C   UNL     1       0.421  11.260  19.676  0.00  0.00    +0.000 C 
ATOM      8  C   UNL     1      -1.099  11.268  19.771  0.00  0.00    +0.000 C 
ATOM      9  C   UNL     1      -1.453  12.685  19.358  0.00  0.00    +0.000 C 
ATOM     10  C   UNL     1      -0.351  13.092  18.390  0.00  0.00    +0.000 C 
ATOM     11  N   UNL     1       0.678  12.055  18.461  0.00  0.00    +0.000 NA
ATOM     12  H   UNL     1       1.611  12.462  18.496  0.00  0.00    +0.000 HD
ENDBRANCH   4   7
BRANCH   1  14
ATOM     13  O   UNL     1       1.889   5.026  19.417  0.00  0.00    +0.000 OA
ATOM     14  C   UNL     1       2.620   6.004  19.516  0.00  0.00    +0.000 C 
ATOM     15  N   UNL     1       3.993   5.923  19.568  0.00  0.00    +0.000 N 
ATOM     16  H   UNL     1       4.531   6.787  19.549  0.00  0.00    +0.000 HD
BRANCH  15  17
ATOM     17  C   UNL     1       4.677   4.649  19.498  0.00  0.00    +0.000 C 
BRANCH  17  18
ATOM     18  C   UNL     1       5.514   4.499  18.248  0.00  0.00    +0.000 A 
ATOM     19  C   UNL     1       4.898   4.227  17.026  0.00  0.00    +0.000 A 
ATOM     20  C   UNL     1       5.683   4.106  15.884  0.00  0.00    +0.000 A 
ATOM     21  C   UNL     1       7.059   4.263  15.987  0.00  0.00    +0.000 A 
ATOM     22  C   UNL     1       7.594   4.534  17.237  0.00  0.00    +0.000 A 
ATOM     23  N   UNL     1       6.858   4.657  18.365  0.00  0.00    +0.000 NA
ENDBRANCH  17  18
ENDBRANCH  15  17
ENDBRANCH   1  14
TORSDOF 4
ENDMDL
MODEL 9
REMARK VINA RESULT:      -6.6      2.519      3.789
REMARK  Name = 
REMARK  4 active torsions:
REMARK  status: ('A' for Active; 'I' for Inactive)
REMARK    1  A    between atoms: C_2  and  C_11
REMARK    2  A    between atoms: N_3  and  C_4
REMARK    3  A    between atoms: C_4  and  C_5
REMARK    4  A    between atoms: C_14  and  C_15
REMARK                            x       y       z     vdW  Elec       q    Type
REMARK                         _______ _______ _______ _____ _____    ______ ____
ROOT
ATOM      1  C   UNL     1       1.674   8.100  19.911  0.00  0.00    +0.000 A 
ATOM      2  C   UNL     1       1.277   9.236  19.219  0.00  0.00    +0.000 A 
ATOM      3  N   UNL     1       0.609  10.259  19.813  0.00  0.00    +0.000 NA
ATOM      4  C   UNL     1       0.345  10.106  21.137  0.00  0.00    +0.000 A 
ATOM      5  C   UNL     1       0.758   8.956  21.820  0.00  0.00    +0.000 A 
ATOM      6  N   UNL     1       1.422   7.927  21.235  0.00  0.00    +0.000 NA
ENDROOT
BRANCH   4   7
ATOM      7  C   UNL     1      -0.379  11.226  21.848  0.00  0.00    +0.000 C 
ATOM      8  C   UNL     1      -1.174  10.741  23.052  0.00  0.00    +0.000 C 
ATOM      9  C   UNL     1      -2.130  11.891  23.309  0.00  0.00    +0.000 C 
ATOM     10  C   UNL     1      -2.367  12.510  21.939  0.00  0.00    +0.000 C 
ATOM     11  N   UNL     1      -1.406  11.893  21.026  0.00  0.00    +0.000 NA
ATOM     12  H   UNL     1      -0.975  12.589  20.418  0.00  0.00    +0.000 HD
ENDBRANCH   4   7
BRANCH   1  14
ATOM     13  O   UNL     1       2.220   6.860  17.980  0.00  0.00    +0.000 OA
ATOM     14  C   UNL     1       2.390   7.018  19.183  0.00  0.00    +0.000 C 
ATOM     15  N   UNL     1       3.227   6.229  19.940  0.00  0.00    +0.000 N 
ATOM     16  H   UNL     1       3.391   6.487  20.910  0.00  0.00    +0.000 HD
BRANCH  15  17
ATOM     17  C   UNL     1       3.982   5.144  19.348  0.00  0.00    +0.000 C 
BRANCH  17  18
ATOM     18  C   UNL     1       5.357   5.570  18.883  0.00  0.00    +0.000 A 
ATOM     19  C   UNL     1       5.505   6.242  17.669  0.00  0.00    +0.000 A 
ATOM     20  C   UNL     1       6.776   6.638  17.266  0.00  0.00    +0.000 A 
ATOM     21  C   UNL     1       7.864   6.360  18.082  0.00  0.00    +0.000 A 
ATOM     22  C   UNL     1       7.633   5.690  19.274  0.00  0.00    +0.000 A 
ATOM     23  N   UNL     1       6.411   5.292  19.693  0.00  0.00    +0.000 NA
ENDBRANCH  17  18
ENDBRANCH  15  17
ENDBRANCH   1  14
TORSDOF 4
ENDMDL
