MODEL 1
REMARK VINA RESULT:      -7.1      0.000      0.000
REMARK  Name = 
REMARK  7 active torsions:
REMARK  status: ('A' for Active; 'I' for Inactive)
REMARK    1  A    between atoms: C_1  and  O_2
REMARK    2  A    between atoms: O_2  and  C_3
REMARK    3  A    between atoms: C_6  and  C_7
REMARK    4  A    between atoms: C_14  and  C_15
REMARK    5  A    between atoms: C_16  and  C_17
REMARK    6  A    between atoms: C_23  and  O_24
REMARK    7  A    between atoms: O_24  and  C_25
REMARK                            x       y       z     vdW  Elec       q    Type
REMARK                         _______ _______ _______ _____ _____    ______ ____
ROOT
ATOM      1  C   UNL     1       1.637   7.788  19.714  0.00  0.00    +0.000 A 
ATOM      2  C   UNL     1       1.093   8.356  20.880  0.00  0.00    +0.000 A 
ATOM      3  N   UNL     1       2.110   8.653  21.902  0.00  0.00    +0.000 N 
ATOM      4  N   UNL     1       0.134   9.349  20.718  0.00  0.00    +0.000 N 
ATOM      5  O   UNL     1      -0.790   9.500  21.574  0.00  0.00    +0.000 OA
ATOM      6  C   UNL     1       0.447  10.322  19.786  0.00  0.00    +0.000 A 
ATOM      7  C   UNL     1      -0.057  11.621  19.938  0.00  0.00    +0.000 A 
ATOM      8  C   UNL     1       0.601  12.702  19.338  0.00  0.00    +0.000 A 
ATOM      9  C   UNL     1       0.126  14.091  19.677  0.00  0.00    +0.000 C 
ATOM     10  C   UNL     1       1.739  12.452  18.562  0.00  0.00    +0.000 A 
ATOM     11  C   UNL     1       2.743  13.540  18.256  0.00  0.00    +0.000 C 
ATOM     12  C   UNL     1       2.062  11.122  18.200  0.00  0.00    +0.000 A 
ATOM     13  C   UNL     1       1.427  10.028  18.832  0.00  0.00    +0.000 A 
ATOM     14  N   UNL     1       1.832   8.671  18.651  0.00  0.00    +0.000 N 
ATOM     15  O   UNL     1       2.455   8.357  17.590  0.00  0.00    +0.000 OA
ATOM     16  H   UNL     1       2.777   7.889  22.000  0.00  0.00    +0.000 HD
ATOM     17  H   UNL     1       2.623   9.495  21.621  0.00  0.00    +0.000 HD
ENDROOT
BRANCH   1  21
ATOM     18  C   UNL     1       3.370   3.794  19.665  0.00  0.00    +0.000 A 
ATOM     19  C   UNL     1       4.097   4.906  19.229  0.00  0.00    +0.000 A 
ATOM     20  C   UNL     1       3.554   6.197  19.324  0.00  0.00    +0.000 A 
ATOM     21  C   UNL     1       2.252   6.435  19.827  0.00  0.00    +0.000 A 
ATOM     22  C   UNL     1       1.568   5.309  20.288  0.00  0.00    +0.000 A 
ATOM     23  C   UNL     1       2.090   4.006  20.192  0.00  0.00    +0.000 A 
BRANCH  18  25
ATOM     24  C   UNL     1       3.504   1.786  18.395  0.00  0.00    +0.000 C 
ATOM     25  O   UNL     1       3.845   2.515  19.570  0.00  0.00    +0.000 OA
ENDBRANCH  18  25
BRANCH  23  26
ATOM     26  O   UNL     1       1.207   3.081  20.682  0.00  0.00    +0.000 OA
ATOM     27  C   UNL     1       1.462   2.506  21.951  0.00  0.00    +0.000 C 
ENDBRANCH  23  26
ENDBRANCH   1  21
TORSDOF 3
ENDMDL
MODEL 2
REMARK VINA RESULT:      -7.1      2.639      4.102
REMARK  Name = 
REMARK  7 active torsions:
REMARK  status: ('A' for Active; 'I' for Inactive)
REMARK    1  A    between atoms: C_1  and  O_2
REMARK    2  A    between atoms: O_2  and  C_3
REMARK    3  A    between atoms: C_6  and  C_7
REMARK    4  A    between atoms: C_14  and  C_15
REMARK    5  A    between atoms: C_16  and  C_17
REMARK    6  A    between atoms: C_23  and  O_24
REMARK    7  A    between atoms: O_24  and  C_25
REMARK                            x       y       z     vdW  Elec       q    Type
REMARK                         _______ _______ _______ _____ _____    ______ ____
ROOT
ATOM      1  C   UNL     1       0.706  10.281  19.914  0.00  0.00    +0.000 A 
ATOM      2  C   UNL     1      -0.164  10.856  18.970  0.00  0.00    +0.000 A 
ATOM      3  N   UNL     1      -1.272   9.964  18.591  0.00  0.00    +0.000 N 
ATOM      4  N   UNL     1      -0.534  12.180  19.169  0.00  0.00    +0.000 N 
ATOM      5  O   UNL     1      -0.788  12.936  18.182  0.00  0.00    +0.000 OA
ATOM      6  C   UNL     1      -0.917  12.496  20.461  0.00  0.00    +0.000 A 
ATOM      7  C   UNL     1      -1.845  13.523  20.683  0.00  0.00    +0.000 A 
ATOM      8  C   UNL     1      -2.602  13.541  21.861  0.00  0.00    +0.000 A 
ATOM      9  C   UNL     1      -3.708  14.558  21.972  0.00  0.00    +0.000 C 
ATOM     10  C   UNL     1      -2.385  12.540  22.816  0.00  0.00    +0.000 A 
ATOM     11  C   UNL     1      -3.417  12.219  23.872  0.00  0.00    +0.000 C 
ATOM     12  C   UNL     1      -1.263  11.687  22.695  0.00  0.00    +0.000 A 
ATOM     13  C   UNL     1      -0.520  11.638  21.493  0.00  0.00    +0.000 A 
ATOM     14  N   UNL     1       0.501  10.675  21.237  0.00  0.00    +0.000 N 
ATOM     15  O   UNL     1       1.091  10.134  22.223  0.00  0.00    +0.000 OA
ATOM     16  H   UNL     1      -0.949   9.011  18.436  0.00  0.00    +0.000 HD
ATOM     17  H   UNL     1      -1.959   9.952  19.353  0.00  0.00    +0.000 HD
ENDROOT
BRANCH   1  21
ATOM     18  C   UNL     1       2.725   6.712  18.448  0.00  0.00    +0.000 A 
ATOM     19  C   UNL     1       2.655   7.875  17.676  0.00  0.00    +0.000 A 
ATOM     20  C   UNL     1       2.071   9.043  18.193  0.00  0.00    +0.000 A 
ATOM     21  C   UNL     1       1.501   9.093  19.487  0.00  0.00    +0.000 A 
ATOM     22  C   UNL     1       1.619   7.928  20.246  0.00  0.00    +0.000 A 
ATOM     23  C   UNL     1       2.192   6.745  19.743  0.00  0.00    +0.000 A 
BRANCH  18  25
ATOM     24  C   UNL     1       4.510   5.634  17.301  0.00  0.00    +0.000 C 
ATOM     25  O   UNL     1       3.262   5.544  17.982  0.00  0.00    +0.000 OA
ENDBRANCH  18  25
BRANCH  23  26
ATOM     26  O   UNL     1       2.154   5.741  20.674  0.00  0.00    +0.000 OA
ATOM     27  C   UNL     1       1.240   4.676  20.485  0.00  0.00    +0.000 C 
ENDBRANCH  23  26
ENDBRANCH   1  21
TORSDOF 3
ENDMDL
MODEL 3
REMARK VINA RESULT:      -7.0      0.869      1.904
REMARK  Name = 
REMARK  7 active torsions:
REMARK  status: ('A' for Active; 'I' for Inactive)
REMARK    1  A    between atoms: C_1  and  O_2
REMARK    2  A    between atoms: O_2  and  C_3
REMARK    3  A    between atoms: C_6  and  C_7
REMARK    4  A    between atoms: C_14  and  C_15
REMARK    5  A    between atoms: C_16  and  C_17
REMARK    6  A    between atoms: C_23  and  O_24
REMARK    7  A    between atoms: O_24  and  C_25
REMARK                            x       y       z     vdW  Elec       q    Type
REMARK                         _______ _______ _______ _____ _____    ______ ____
ROOT
ATOM      1  C   UNL     1       1.563   8.090  19.612  0.00  0.00    +0.000 A 
ATOM      2  C   UNL     1       1.097   8.610  20.832  0.00  0.00    +0.000 A 
ATOM      3  N   UNL     1       2.171   8.812  21.819  0.00  0.00    +0.000 N 
ATOM      4  N   UNL     1       0.170   9.644  20.772  0.00  0.00    +0.000 N 
ATOM      5  O   UNL     1      -0.706   9.781  21.679  0.00  0.00    +0.000 OA
ATOM      6  C   UNL     1       0.477  10.657  19.880  0.00  0.00    +0.000 A 
ATOM      7  C   UNL     1       0.031  11.962  20.127  0.00  0.00    +0.000 A 
ATOM      8  C   UNL     1       0.702  13.051  19.555  0.00  0.00    +0.000 A 
ATOM      9  C   UNL     1       0.298  14.435  19.993  0.00  0.00    +0.000 C 
ATOM     10  C   UNL     1       1.793  12.804  18.713  0.00  0.00    +0.000 A 
ATOM     11  C   UNL     1       2.822  13.871  18.419  0.00  0.00    +0.000 C 
ATOM     12  C   UNL     1       2.046  11.487  18.264  0.00  0.00    +0.000 A 
ATOM     13  C   UNL     1       1.400  10.382  18.865  0.00  0.00    +0.000 A 
ATOM     14  N   UNL     1       1.743   9.024  18.591  0.00  0.00    +0.000 N 
ATOM     15  O   UNL     1       2.303   8.747  17.485  0.00  0.00    +0.000 OA
ATOM     16  H   UNL     1       2.812   8.021  21.842  0.00  0.00    +0.000 HD
ATOM     17  H   UNL     1       2.703   9.650  21.559  0.00  0.00    +0.000 HD
ENDROOT
BRANCH   1  21
ATOM     18  C   UNL     1       3.357   4.140  19.991  0.00  0.00    +0.000 A 
ATOM     19  C   UNL     1       2.139   4.445  20.603  0.00  0.00    +0.000 A 
ATOM     20  C   UNL     1       1.533   5.697  20.408  0.00  0.00    +0.000 A 
ATOM     21  C   UNL     1       2.130   6.711  19.621  0.00  0.00    +0.000 A 
ATOM     22  C   UNL     1       3.327   6.362  18.993  0.00  0.00    +0.000 A 
ATOM     23  C   UNL     1       3.955   5.117  19.184  0.00  0.00    +0.000 A 
BRANCH  18  25
ATOM     24  C   UNL     1       3.778   1.942  19.183  0.00  0.00    +0.000 C 
ATOM     25  O   UNL     1       3.998   2.946  20.169  0.00  0.00    +0.000 OA
ENDBRANCH  18  25
BRANCH  23  26
ATOM     26  O   UNL     1       5.131   5.042  18.485  0.00  0.00    +0.000 OA
ATOM     27  C   UNL     1       6.336   5.379  19.148  0.00  0.00    +0.000 C 
ENDBRANCH  23  26
ENDBRANCH   1  21
TORSDOF 3
ENDMDL
MODEL 4
REMARK VINA RESULT:      -7.0      0.943      1.033
REMARK  Name = 
REMARK  7 active torsions:
REMARK  status: ('A' for Active; 'I' for Inactive)
REMARK    1  A    between atoms: C_1  and  O_2
REMARK    2  A    between atoms: O_2  and  C_3
REMARK    3  A    between atoms: C_6  and  C_7
REMARK    4  A    between atoms: C_14  and  C_15
REMARK    5  A    between atoms: C_16  and  C_17
REMARK    6  A    between atoms: C_23  and  O_24
REMARK    7  A    between atoms: O_24  and  C_25
REMARK                            x       y       z     vdW  Elec       q    Type
REMARK                         _______ _______ _______ _____ _____    ______ ____
ROOT
ATOM      1  C   UNL     1       1.435   8.129  19.935  0.00  0.00    +0.000 A 
ATOM      2  C   UNL     1       1.030   8.472  21.237  0.00  0.00    +0.000 A 
ATOM      3  N   UNL     1       2.157   8.827  22.115  0.00  0.00    +0.000 N 
ATOM      4  N   UNL     1      -0.078   9.302  21.361  0.00  0.00    +0.000 N 
ATOM      5  O   UNL     1      -0.847   9.206  22.365  0.00  0.00    +0.000 OA
ATOM      6  C   UNL     1      -0.083  10.406  20.528  0.00  0.00    +0.000 A 
ATOM      7  C   UNL     1      -0.737  11.579  20.927  0.00  0.00    +0.000 A 
ATOM      8  C   UNL     1      -0.363  12.812  20.378  0.00  0.00    +0.000 A 
ATOM      9  C   UNL     1      -0.969  14.059  20.968  0.00  0.00    +0.000 C 
ATOM     10  C   UNL     1       0.644  12.838  19.405  0.00  0.00    +0.000 A 
ATOM     11  C   UNL     1       1.406  14.105  19.090  0.00  0.00    +0.000 C 
ATOM     12  C   UNL     1       1.090  11.627  18.825  0.00  0.00    +0.000 A 
ATOM     13  C   UNL     1       0.745  10.382  19.400  0.00  0.00    +0.000 A 
ATOM     14  N   UNL     1       1.307   9.138  18.980  0.00  0.00    +0.000 N 
ATOM     15  O   UNL     1       1.771   9.046  17.801  0.00  0.00    +0.000 OA
ATOM     16  H   UNL     1       2.936   8.179  22.004  0.00  0.00    +0.000 HD
ATOM     17  H   UNL     1       2.482   9.768  21.869  0.00  0.00    +0.000 HD
ENDROOT
BRANCH   1  21
ATOM     18  C   UNL     1       3.579   4.416  19.172  0.00  0.00    +0.000 A 
ATOM     19  C   UNL     1       3.747   5.533  18.349  0.00  0.00    +0.000 A 
ATOM     20  C   UNL     1       3.111   6.748  18.653  0.00  0.00    +0.000 A 
ATOM     21  C   UNL     1       2.254   6.893  19.769  0.00  0.00    +0.000 A 
ATOM     22  C   UNL     1       2.136   5.772  20.592  0.00  0.00    +0.000 A 
ATOM     23  C   UNL     1       2.757   4.542  20.300  0.00  0.00    +0.000 A 
BRANCH  18  25
ATOM     24  C   UNL     1       3.437   2.321  18.054  0.00  0.00    +0.000 C 
ATOM     25  O   UNL     1       4.157   3.206  18.907  0.00  0.00    +0.000 OA
ENDBRANCH  18  25
BRANCH  23  26
ATOM     26  O   UNL     1       2.454   3.597  21.243  0.00  0.00    +0.000 OA
ATOM     27  C   UNL     1       1.243   2.874  21.113  0.00  0.00    +0.000 C 
ENDBRANCH  23  26
ENDBRANCH   1  21
TORSDOF 3
ENDMDL
MODEL 5
REMARK VINA RESULT:      -6.9      1.501      1.790
REMARK  Name = 
REMARK  7 active torsions:
REMARK  status: ('A' for Active; 'I' for Inactive)
REMARK    1  A    between atoms: C_1  and  O_2
REMARK    2  A    between atoms: O_2  and  C_3
REMARK    3  A    between atoms: C_6  and  C_7
REMARK    4  A    between atoms: C_14  and  C_15
REMARK    5  A    between atoms: C_16  and  C_17
REMARK    6  A    between atoms: C_23  and  O_24
REMARK    7  A    between atoms: O_24  and  C_25
REMARK                            x       y       z     vdW  Elec       q    Type
REMARK                         _______ _______ _______ _____ _____    ______ ____
ROOT
ATOM      1  C   UNL     1       1.152   8.686  20.488  0.00  0.00    +0.000 A 
ATOM      2  C   UNL     1       0.937   8.904  21.861  0.00  0.00    +0.000 A 
ATOM      3  N   UNL     1       2.189   9.019  22.627  0.00  0.00    +0.000 N 
ATOM      4  N   UNL     1      -0.040   9.826  22.215  0.00  0.00    +0.000 N 
ATOM      5  O   UNL     1      -0.700   9.689  23.289  0.00  0.00    +0.000 OA
ATOM      6  C   UNL     1      -0.001  11.021  21.518  0.00  0.00    +0.000 A 
ATOM      7  C   UNL     1      -0.458  12.198  22.125  0.00  0.00    +0.000 A 
ATOM      8  C   UNL     1       0.003  13.443  21.676  0.00  0.00    +0.000 A 
ATOM      9  C   UNL     1      -0.377  14.664  22.475  0.00  0.00    +0.000 C 
ATOM     10  C   UNL     1       0.892  13.482  20.596  0.00  0.00    +0.000 A 
ATOM     11  C   UNL     1       1.765  14.688  20.334  0.00  0.00    +0.000 C 
ATOM     12  C   UNL     1       1.119  12.313  19.832  0.00  0.00    +0.000 A 
ATOM     13  C   UNL     1       0.689  11.050  20.300  0.00  0.00    +0.000 A 
ATOM     14  N   UNL     1       1.044   9.816  19.677  0.00  0.00    +0.000 N 
ATOM     15  O   UNL     1       1.360   9.823  18.447  0.00  0.00    +0.000 OA
ATOM     16  H   UNL     1       2.865   8.310  22.348  0.00  0.00    +0.000 HD
ATOM     17  H   UNL     1       2.599   9.943  22.450  0.00  0.00    +0.000 HD
ENDROOT
BRANCH   1  21
ATOM     18  C   UNL     1       2.777   4.930  19.001  0.00  0.00    +0.000 A 
ATOM     19  C   UNL     1       3.178   6.157  18.464  0.00  0.00    +0.000 A 
ATOM     20  C   UNL     1       2.705   7.363  19.007  0.00  0.00    +0.000 A 
ATOM     21  C   UNL     1       1.789   7.399  20.084  0.00  0.00    +0.000 A 
ATOM     22  C   UNL     1       1.438   6.160  20.621  0.00  0.00    +0.000 A 
ATOM     23  C   UNL     1       1.891   4.940  20.086  0.00  0.00    +0.000 A 
BRANCH  18  25
ATOM     24  C   UNL     1       2.385   3.151  17.470  0.00  0.00    +0.000 C 
ATOM     25  O   UNL     1       3.190   3.729  18.494  0.00  0.00    +0.000 OA
ENDBRANCH  18  25
BRANCH  23  26
ATOM     26  O   UNL     1       1.373   3.874  20.773  0.00  0.00    +0.000 OA
ATOM     27  C   UNL     1       2.198   3.207  21.711  0.00  0.00    +0.000 C 
ENDBRANCH  23  26
ENDBRANCH   1  21
TORSDOF 3
ENDMDL
MODEL 6
REMARK VINA RESULT:      -6.9      1.413      2.365
REMARK  Name = 
REMARK  7 active torsions:
REMARK  status: ('A' for Active; 'I' for Inactive)
REMARK    1  A    between atoms: C_1  and  O_2
REMARK    2  A    between atoms: O_2  and  C_3
REMARK    3  A    between atoms: C_6  and  C_7
REMARK    4  A    between atoms: C_14  and  C_15
REMARK    5  A    between atoms: C_16  and  C_17
REMARK    6  A    between atoms: C_23  and  O_24
REMARK    7  A    between atoms: O_24  and  C_25
REMARK                            x       y       z     vdW  Elec       q    Type
REMARK                         _______ _______ _______ _____ _____    ______ ____
ROOT
ATOM      1  C   UNL     1       1.212   8.443  20.296  0.00  0.00    +0.000 A 
ATOM      2  C   UNL     1       0.921   8.771  21.632  0.00  0.00    +0.000 A 
ATOM      3  N   UNL     1       2.128   8.941  22.458  0.00  0.00    +0.000 N 
ATOM      4  N   UNL     1      -0.066   9.723  21.855  0.00  0.00    +0.000 N 
ATOM      5  O   UNL     1      -0.788   9.674  22.896  0.00  0.00    +0.000 OA
ATOM      6  C   UNL     1       0.024  10.858  21.070  0.00  0.00    +0.000 A 
ATOM      7  C   UNL     1      -0.456  12.082  21.554  0.00  0.00    +0.000 A 
ATOM      8  C   UNL     1       0.041  13.285  21.036  0.00  0.00    +0.000 A 
ATOM      9  C   UNL     1      -0.372  14.567  21.712  0.00  0.00    +0.000 C 
ATOM     10  C   UNL     1       0.992  13.234  20.009  0.00  0.00    +0.000 A 
ATOM     11  C   UNL     1       1.889  14.411  19.704  0.00  0.00    +0.000 C 
ATOM     12  C   UNL     1       1.251  12.007  19.354  0.00  0.00    +0.000 A 
ATOM     13  C   UNL     1       0.783  10.787  19.896  0.00  0.00    +0.000 A 
ATOM     14  N   UNL     1       1.162   9.506  19.393  0.00  0.00    +0.000 N 
ATOM     15  O   UNL     1       1.549   9.414  18.187  0.00  0.00    +0.000 OA
ATOM     16  H   UNL     1       2.813   8.209  22.276  0.00  0.00    +0.000 HD
ATOM     17  H   UNL     1       2.555   9.845  22.233  0.00  0.00    +0.000 HD
ENDROOT
BRANCH   1  21
ATOM     18  C   UNL     1       3.301   4.648  19.854  0.00  0.00    +0.000 A 
ATOM     19  C   UNL     1       2.209   4.779  20.717  0.00  0.00    +0.000 A 
ATOM     20  C   UNL     1       1.496   5.987  20.790  0.00  0.00    +0.000 A 
ATOM     21  C   UNL     1       1.860   7.126  20.033  0.00  0.00    +0.000 A 
ATOM     22  C   UNL     1       2.930   6.951  19.154  0.00  0.00    +0.000 A 
ATOM     23  C   UNL     1       3.664   5.753  19.073  0.00  0.00    +0.000 A 
BRANCH  18  25
ATOM     24  C   UNL     1       3.554   2.485  18.895  0.00  0.00    +0.000 C 
ATOM     25  O   UNL     1       4.042   3.502  19.765  0.00  0.00    +0.000 OA
ENDBRANCH  18  25
BRANCH  23  26
ATOM     26  O   UNL     1       4.681   5.855  18.162  0.00  0.00    +0.000 OA
ATOM     27  C   UNL     1       4.544   6.772  17.092  0.00  0.00    +0.000 C 
ENDBRANCH  23  26
ENDBRANCH   1  21
TORSDOF 3
ENDMDL
MODEL 7
REMARK VINA RESULT:      -6.8      2.152      3.254
REMARK  Name = 
REMARK  7 active torsions:
REMARK  status: ('A' for Active; 'I' for Inactive)
REMARK    1  A    between atoms: C_1  and  O_2
REMARK    2  A    between atoms: O_2  and  C_3
REMARK    3  A    between atoms: C_6  and  C_7
REMARK    4  A    between atoms: C_14  and  C_15
REMARK    5  A    between atoms: C_16  and  C_17
REMARK    6  A    between atoms: C_23  and  O_24
REMARK    7  A    between atoms: O_24  and  C_25
REMARK                            x       y       z     vdW  Elec       q    Type
REMARK                         _______ _______ _______ _____ _____    ______ ____
ROOT
ATOM      1  C   UNL     1       1.421   9.137  20.222  0.00  0.00    +0.000 A 
ATOM      2  C   UNL     1       1.080  10.050  19.208  0.00  0.00    +0.000 A 
ATOM      3  N   UNL     1      -0.102   9.635  18.435  0.00  0.00    +0.000 N 
ATOM      4  N   UNL     1       1.111  11.401  19.530  0.00  0.00    +0.000 N 
ATOM      5  O   UNL     1       1.397  12.269  18.651  0.00  0.00    +0.000 OA
ATOM      6  C   UNL     1       0.503  11.734  20.728  0.00  0.00    +0.000 A 
ATOM      7  C   UNL     1      -0.072  13.001  20.891  0.00  0.00    +0.000 A 
ATOM      8  C   UNL     1      -1.081  13.196  21.843  0.00  0.00    +0.000 A 
ATOM      9  C   UNL     1      -1.791  14.525  21.855  0.00  0.00    +0.000 C 
ATOM     10  C   UNL     1      -1.470  12.114  22.643  0.00  0.00    +0.000 A 
ATOM     11  C   UNL     1      -2.803  12.097  23.356  0.00  0.00    +0.000 C 
ATOM     12  C   UNL     1      -0.692  10.933  22.651  0.00  0.00    +0.000 A 
ATOM     13  C   UNL     1       0.302  10.716  21.668  0.00  0.00    +0.000 A 
ATOM     14  N   UNL     1       0.992   9.478  21.505  0.00  0.00    +0.000 N 
ATOM     15  O   UNL     1       1.078   8.692  22.499  0.00  0.00    +0.000 OA
ATOM     16  H   UNL     1      -0.069   8.643  18.204  0.00  0.00    +0.000 HD
ATOM     17  H   UNL     1      -0.941   9.807  18.999  0.00  0.00    +0.000 HD
ENDROOT
BRANCH   1  21
ATOM     18  C   UNL     1       2.490   5.186  18.736  0.00  0.00    +0.000 A 
ATOM     19  C   UNL     1       2.895   6.346  18.070  0.00  0.00    +0.000 A 
ATOM     20  C   UNL     1       2.611   7.613  18.603  0.00  0.00    +0.000 A 
ATOM     21  C   UNL     1       1.883   7.782  19.804  0.00  0.00    +0.000 A 
ATOM     22  C   UNL     1       1.525   6.605  20.465  0.00  0.00    +0.000 A 
ATOM     23  C   UNL     1       1.791   5.326  19.942  0.00  0.00    +0.000 A 
BRANCH  18  25
ATOM     24  C   UNL     1       4.053   3.437  18.339  0.00  0.00    +0.000 C 
ATOM     25  O   UNL     1       2.720   3.930  18.246  0.00  0.00    +0.000 OA
ENDBRANCH  18  25
BRANCH  23  26
ATOM     26  O   UNL     1       1.306   4.344  20.765  0.00  0.00    +0.000 OA
ATOM     27  C   UNL     1       2.210   3.669  21.621  0.00  0.00    +0.000 C 
ENDBRANCH  23  26
ENDBRANCH   1  21
TORSDOF 3
ENDMDL
MODEL 8
REMARK VINA RESULT:      -6.7      1.660      2.030
REMARK  Name = 
REMARK  7 active torsions:
REMARK  status: ('A' for Active; 'I' for Inactive)
REMARK    1  A    between atoms: C_1  and  O_2
REMARK    2  A    between atoms: O_2  and  C_3
REMARK    3  A    between atoms: C_6  and  C_7
REMARK    4  A    between atoms: C_14  and  C_15
REMARK    5  A    between atoms: C_16  and  C_17
REMARK    6  A    between atoms: C_23  and  O_24
REMARK    7  A    between atoms: O_24  and  C_25
REMARK                            x       y       z     vdW  Elec       q    Type
REMARK                         _______ _______ _______ _____ _____    ______ ____
ROOT
ATOM      1  C   UNL     1       1.603   8.204  19.339  0.00  0.00    +0.000 A 
ATOM      2  C   UNL     1       1.122   8.104  20.657  0.00  0.00    +0.000 A 
ATOM      3  N   UNL     1       2.191   8.183  21.666  0.00  0.00    +0.000 N 
ATOM      4  N   UNL     1      -0.023   8.825  20.974  0.00  0.00    +0.000 N 
ATOM      5  O   UNL     1      -0.835   8.396  21.849  0.00  0.00    +0.000 OA
ATOM      6  C   UNL     1      -0.031  10.137  20.537  0.00  0.00    +0.000 A 
ATOM      7  C   UNL     1      -0.749  11.106  21.249  0.00  0.00    +0.000 A 
ATOM      8  C   UNL     1      -0.398  12.458  21.144  0.00  0.00    +0.000 A 
ATOM      9  C   UNL     1      -1.081  13.436  22.065  0.00  0.00    +0.000 C 
ATOM     10  C   UNL     1       0.653  12.816  20.291  0.00  0.00    +0.000 A 
ATOM     11  C   UNL     1       1.378  14.134  20.441  0.00  0.00    +0.000 C 
ATOM     12  C   UNL     1       1.173  11.865  19.382  0.00  0.00    +0.000 A 
ATOM     13  C   UNL     1       0.851  10.494  19.510  0.00  0.00    +0.000 A 
ATOM     14  N   UNL     1       1.480   9.463  18.750  0.00  0.00    +0.000 N 
ATOM     15  O   UNL     1       2.004   9.762  17.632  0.00  0.00    +0.000 OA
ATOM     16  H   UNL     1       2.999   7.623  21.400  0.00  0.00    +0.000 HD
ATOM     17  H   UNL     1       2.490   9.160  21.752  0.00  0.00    +0.000 HD
ENDROOT
BRANCH   1  21
ATOM     18  C   UNL     1       3.949   5.005  17.545  0.00  0.00    +0.000 A 
ATOM     19  C   UNL     1       4.183   6.344  17.222  0.00  0.00    +0.000 A 
ATOM     20  C   UNL     1       3.473   7.369  17.867  0.00  0.00    +0.000 A 
ATOM     21  C   UNL     1       2.477   7.104  18.837  0.00  0.00    +0.000 A 
ATOM     22  C   UNL     1       2.294   5.760  19.164  0.00  0.00    +0.000 A 
ATOM     23  C   UNL     1       2.987   4.717  18.522  0.00  0.00    +0.000 A 
BRANCH  18  25
ATOM     24  C   UNL     1       5.583   4.311  15.959  0.00  0.00    +0.000 C 
ATOM     25  O   UNL     1       4.596   3.970  16.928  0.00  0.00    +0.000 OA
ENDBRANCH  18  25
BRANCH  23  26
ATOM     26  O   UNL     1       2.598   3.494  19.001  0.00  0.00    +0.000 OA
ATOM     27  C   UNL     1       1.492   2.850  18.396  0.00  0.00    +0.000 C 
ENDBRANCH  23  26
ENDBRANCH   1  21
TORSDOF 3
ENDMDL
MODEL 9
REMARK VINA RESULT:      -6.6      5.231      8.046
REMARK  Name = 
REMARK  7 active torsions:
REMARK  status: ('A' for Active; 'I' for Inactive)
REMARK    1  A    between atoms: C_1  and  O_2
REMARK    2  A    between atoms: O_2  and  C_3
REMARK    3  A    between atoms: C_6  and  C_7
REMARK    4  A    between atoms: C_14  and  C_15
REMARK    5  A    between atoms: C_16  and  C_17
REMARK    6  A    between atoms: C_23  and  O_24
REMARK    7  A    between atoms: O_24  and  C_25
REMARK                            x       y       z     vdW  Elec       q    Type
REMARK                         _______ _______ _______ _____ _____    ______ ____
ROOT
ATOM      1  C   UNL     1      -2.057  12.867  23.213  0.00  0.00    +0.000 A 
ATOM      2  C   UNL     1      -1.253  13.982  23.505  0.00  0.00    +0.000 A 
ATOM      3  N   UNL     1      -0.881  14.752  22.306  0.00  0.00    +0.000 N 
ATOM      4  N   UNL     1      -1.614  14.761  24.598  0.00  0.00    +0.000 N 
ATOM      5  O   UNL     1      -0.732  15.369  25.277  0.00  0.00    +0.000 OA
ATOM      6  C   UNL     1      -2.958  15.079  24.674  0.00  0.00    +0.000 A 
ATOM      7  C   UNL     1      -3.359  16.271  25.291  0.00  0.00    +0.000 A 
ATOM      8  C   UNL     1      -4.592  16.850  24.965  0.00  0.00    +0.000 A 
ATOM      9  C   UNL     1      -4.897  18.218  25.518  0.00  0.00    +0.000 C 
ATOM     10  C   UNL     1      -5.421  16.195  24.046  0.00  0.00    +0.000 A 
ATOM     11  C   UNL     1      -6.522  16.927  23.313  0.00  0.00    +0.000 C 
ATOM     12  C   UNL     1      -5.121  14.870  23.652  0.00  0.00    +0.000 A 
ATOM     13  C   UNL     1      -3.862  14.297  23.946  0.00  0.00    +0.000 A 
ATOM     14  N   UNL     1      -3.426  13.042  23.423  0.00  0.00    +0.000 N 
ATOM     15  O   UNL     1      -4.300  12.195  23.062  0.00  0.00    +0.000 OA
ATOM     16  H   UNL     1      -0.603  14.140  21.540  0.00  0.00    +0.000 HD
ATOM     17  H   UNL     1      -1.692  15.301  22.003  0.00  0.00    +0.000 HD
ENDROOT
BRANCH   1  21
ATOM     18  C   UNL     1       0.066   9.798  20.970  0.00  0.00    +0.000 A 
ATOM     19  C   UNL     1      -0.072   9.716  22.358  0.00  0.00    +0.000 A 
ATOM     20  C   UNL     1      -0.827  10.671  23.058  0.00  0.00    +0.000 A 
ATOM     21  C   UNL     1      -1.448  11.766  22.412  0.00  0.00    +0.000 A 
ATOM     22  C   UNL     1      -1.323  11.798  21.022  0.00  0.00    +0.000 A 
ATOM     23  C   UNL     1      -0.563  10.857  20.302  0.00  0.00    +0.000 A 
BRANCH  18  25
ATOM     24  C   UNL     1       1.435   7.851  20.968  0.00  0.00    +0.000 C 
ATOM     25  O   UNL     1       0.810   8.908  20.245  0.00  0.00    +0.000 OA
ENDBRANCH  18  25
BRANCH  23  26
ATOM     26  O   UNL     1      -0.572  11.134  18.961  0.00  0.00    +0.000 OA
ATOM     27  C   UNL     1      -1.580  10.549  18.156  0.00  0.00    +0.000 C 
ENDBRANCH  23  26
ENDBRANCH   1  21
TORSDOF 3
ENDMDL
