MODEL 1
REMARK VINA RESULT:      -7.1      0.000      0.000
REMARK  Name = 
REMARK  6 active torsions:
REMARK  status: ('A' for Active; 'I' for Inactive)
REMARK    1  A    between atoms: C_1  and  C_2
REMARK    2  A    between atoms: C_2  and  C_3
REMARK    3  A    between atoms: C_3  and  N_4
REMARK    4  A    between atoms: C_8  and  C_9
REMARK    5  A    between atoms: C_12  and  N_13
REMARK    6  A    between atoms: C_18  and  C_19
REMARK                            x       y       z     vdW  Elec       q    Type
REMARK                         _______ _______ _______ _____ _____    ______ ____
ROOT
ATOM      1  C   UNL     1       5.038   4.357  17.162  0.00  0.00    +0.000 A 
ATOM      2  C   UNL     1       5.498   4.228  18.462  0.00  0.00    +0.000 A 
ATOM      3  N   UNL     1       4.725   3.888  19.520  0.00  0.00    +0.000 NA
ATOM      4  C   UNL     1       3.397   3.685  19.307  0.00  0.00    +0.000 A 
ATOM      5  C   UNL     1       2.798   3.932  18.068  0.00  0.00    +0.000 A 
ATOM      6  C   UNL     1       1.322   4.008  17.794  0.00  0.00    +0.000 C 
ATOM      7  C   UNL     1       3.655   4.236  16.991  0.00  0.00    +0.000 A 
ENDROOT
BRANCH   1  12
ATOM      8  N   UNL     1       7.032   5.456  16.005  0.00  0.00    +0.000 N 
ATOM      9  N   UNL     1       7.637   5.509  14.796  0.00  0.00    +0.000 NA
ATOM     10  C   UNL     1       6.930   4.675  14.038  0.00  0.00    +0.000 A 
ATOM     11  C   UNL     1       5.865   4.098  14.741  0.00  0.00    +0.000 A 
ATOM     12  C   UNL     1       5.913   4.637  16.019  0.00  0.00    +0.000 A 
BRANCH   8  13
ATOM     13  C   UNL     1       7.633   6.228  17.079  0.00  0.00    +0.000 C 
BRANCH  13  15
ATOM     14  C   UNL     1       7.982   8.640  17.804  0.00  0.00    +0.000 C 
ATOM     15  C   UNL     1       6.983   7.584  17.357  0.00  0.00    +0.000 C 
ENDBRANCH  13  15
ENDBRANCH   8  13
ENDBRANCH   1  12
BRANCH   4  16
ATOM     16  N   UNL     1       2.688   3.183  20.429  0.00  0.00    +0.000 N 
ATOM     17  C   UNL     1       3.053   2.242  21.354  0.00  0.00    +0.000 A 
ATOM     18  N   UNL     1       2.092   2.069  22.233  0.00  0.00    +0.000 NA
ATOM     19  N   UNL     1       1.092   2.960  21.933  0.00  0.00    +0.000 NA
ATOM     20  C   UNL     1       1.481   3.649  20.883  0.00  0.00    +0.000 A 
ENDBRANCH   4  16
TORSDOF 4
ENDMDL
MODEL 2
REMARK VINA RESULT:      -7.1      3.546      3.929
REMARK  Name = 
REMARK  6 active torsions:
REMARK  status: ('A' for Active; 'I' for Inactive)
REMARK    1  A    between atoms: C_1  and  C_2
REMARK    2  A    between atoms: C_2  and  C_3
REMARK    3  A    between atoms: C_3  and  N_4
REMARK    4  A    between atoms: C_8  and  C_9
REMARK    5  A    between atoms: C_12  and  N_13
REMARK    6  A    between atoms: C_18  and  C_19
REMARK                            x       y       z     vdW  Elec       q    Type
REMARK                         _______ _______ _______ _____ _____    ______ ____
ROOT
ATOM      1  C   UNL     1       4.240   6.126  17.723  0.00  0.00    +0.000 A 
ATOM      2  C   UNL     1       3.796   7.394  17.387  0.00  0.00    +0.000 A 
ATOM      3  N   UNL     1       2.884   8.101  18.095  0.00  0.00    +0.000 NA
ATOM      4  C   UNL     1       2.339   7.523  19.200  0.00  0.00    +0.000 A 
ATOM      5  C   UNL     1       2.602   6.194  19.548  0.00  0.00    +0.000 A 
ATOM      6  C   UNL     1       1.858   5.379  20.567  0.00  0.00    +0.000 C 
ATOM      7  C   UNL     1       3.594   5.521  18.806  0.00  0.00    +0.000 A 
ENDROOT
BRANCH   1  12
ATOM      8  N   UNL     1       6.664   5.616  17.098  0.00  0.00    +0.000 N 
ATOM      9  N   UNL     1       7.384   4.803  16.292  0.00  0.00    +0.000 NA
ATOM     10  C   UNL     1       6.473   4.038  15.698  0.00  0.00    +0.000 A 
ATOM     11  C   UNL     1       5.170   4.361  16.100  0.00  0.00    +0.000 A 
ATOM     12  C   UNL     1       5.296   5.418  16.990  0.00  0.00    +0.000 A 
BRANCH   8  13
ATOM     13  C   UNL     1       7.407   6.538  17.941  0.00  0.00    +0.000 C 
BRANCH  13  15
ATOM     14  C   UNL     1       8.408   8.849  18.281  0.00  0.00    +0.000 C 
ATOM     15  C   UNL     1       7.567   7.954  17.386  0.00  0.00    +0.000 C 
ENDBRANCH  13  15
ENDBRANCH   8  13
ENDBRANCH   1  12
BRANCH   4  16
ATOM     16  N   UNL     1       1.514   8.381  19.970  0.00  0.00    +0.000 N 
ATOM     17  C   UNL     1       1.284   8.406  21.319  0.00  0.00    +0.000 A 
ATOM     18  N   UNL     1       0.442   9.368  21.622  0.00  0.00    +0.000 NA
ATOM     19  N   UNL     1       0.156  10.046  20.463  0.00  0.00    +0.000 NA
ATOM     20  C   UNL     1       0.838   9.475  19.495  0.00  0.00    +0.000 A 
ENDBRANCH   4  16
TORSDOF 4
ENDMDL
MODEL 3
REMARK VINA RESULT:      -7.1      0.709      1.085
REMARK  Name = 
REMARK  6 active torsions:
REMARK  status: ('A' for Active; 'I' for Inactive)
REMARK    1  A    between atoms: C_1  and  C_2
REMARK    2  A    between atoms: C_2  and  C_3
REMARK    3  A    between atoms: C_3  and  N_4
REMARK    4  A    between atoms: C_8  and  C_9
REMARK    5  A    between atoms: C_12  and  N_13
REMARK    6  A    between atoms: C_18  and  C_19
REMARK                            x       y       z     vdW  Elec       q    Type
REMARK                         _______ _______ _______ _____ _____    ______ ____
ROOT
ATOM      1  C   UNL     1       4.965   4.355  17.102  0.00  0.00    +0.000 A 
ATOM      2  C   UNL     1       4.863   5.081  18.277  0.00  0.00    +0.000 A 
ATOM      3  N   UNL     1       4.070   4.744  19.321  0.00  0.00    +0.000 NA
ATOM      4  C   UNL     1       3.294   3.632  19.207  0.00  0.00    +0.000 A 
ATOM      5  C   UNL     1       3.205   2.909  18.014  0.00  0.00    +0.000 A 
ATOM      6  C   UNL     1       2.191   1.849  17.690  0.00  0.00    +0.000 C 
ATOM      7  C   UNL     1       4.087   3.274  16.976  0.00  0.00    +0.000 A 
ENDROOT
BRANCH   1  12
ATOM      8  N   UNL     1       7.011   5.515  16.107  0.00  0.00    +0.000 N 
ATOM      9  N   UNL     1       7.681   5.627  14.937  0.00  0.00    +0.000 NA
ATOM     10  C   UNL     1       7.022   4.826  14.104  0.00  0.00    +0.000 A 
ATOM     11  C   UNL     1       5.925   4.212  14.721  0.00  0.00    +0.000 A 
ATOM     12  C   UNL     1       5.899   4.692  16.022  0.00  0.00    +0.000 A 
BRANCH   8  13
ATOM     13  C   UNL     1       7.547   6.240  17.247  0.00  0.00    +0.000 C 
BRANCH  13  15
ATOM     14  C   UNL     1       8.231   8.569  18.003  0.00  0.00    +0.000 C 
ATOM     15  C   UNL     1       7.170   7.720  17.322  0.00  0.00    +0.000 C 
ENDBRANCH  13  15
ENDBRANCH   8  13
ENDBRANCH   1  12
BRANCH   4  16
ATOM     16  N   UNL     1       2.613   3.262  20.395  0.00  0.00    +0.000 N 
ATOM     17  C   UNL     1       1.334   3.532  20.799  0.00  0.00    +0.000 A 
ATOM     18  N   UNL     1       1.104   2.999  21.978  0.00  0.00    +0.000 NA
ATOM     19  N   UNL     1       2.228   2.299  22.340  0.00  0.00    +0.000 NA
ATOM     20  C   UNL     1       3.102   2.426  21.366  0.00  0.00    +0.000 A 
ENDBRANCH   4  16
TORSDOF 4
ENDMDL
MODEL 4
REMARK VINA RESULT:      -7.0      0.924      1.208
REMARK  Name = 
REMARK  6 active torsions:
REMARK  status: ('A' for Active; 'I' for Inactive)
REMARK    1  A    between atoms: C_1  and  C_2
REMARK    2  A    between atoms: C_2  and  C_3
REMARK    3  A    between atoms: C_3  and  N_4
REMARK    4  A    between atoms: C_8  and  C_9
REMARK    5  A    between atoms: C_12  and  N_13
REMARK    6  A    between atoms: C_18  and  C_19
REMARK                            x       y       z     vdW  Elec       q    Type
REMARK                         _______ _______ _______ _____ _____    ______ ____
ROOT
ATOM      1  C   UNL     1       5.024   4.393  17.187  0.00  0.00    +0.000 A 
ATOM      2  C   UNL     1       5.066   3.196  17.882  0.00  0.00    +0.000 A 
ATOM      3  N   UNL     1       4.243   2.875  18.907  0.00  0.00    +0.000 NA
ATOM      4  C   UNL     1       3.325   3.796  19.309  0.00  0.00    +0.000 A 
ATOM      5  C   UNL     1       3.292   5.089  18.779  0.00  0.00    +0.000 A 
ATOM      6  C   UNL     1       2.520   6.256  19.329  0.00  0.00    +0.000 C 
ATOM      7  C   UNL     1       4.137   5.355  17.682  0.00  0.00    +0.000 A 
ENDROOT
BRANCH   1  12
ATOM      8  N   UNL     1       6.992   5.490  15.983  0.00  0.00    +0.000 N 
ATOM      9  N   UNL     1       7.560   5.553  14.757  0.00  0.00    +0.000 NA
ATOM     10  C   UNL     1       6.823   4.736  14.011  0.00  0.00    +0.000 A 
ATOM     11  C   UNL     1       5.774   4.158  14.738  0.00  0.00    +0.000 A 
ATOM     12  C   UNL     1       5.866   4.681  16.021  0.00  0.00    +0.000 A 
BRANCH   8  13
ATOM     13  C   UNL     1       7.632   6.242  17.048  0.00  0.00    +0.000 C 
BRANCH  13  15
ATOM     14  C   UNL     1       8.098   8.599  17.879  0.00  0.00    +0.000 C 
ATOM     15  C   UNL     1       7.071   7.644  17.292  0.00  0.00    +0.000 C 
ENDBRANCH  13  15
ENDBRANCH   8  13
ENDBRANCH   1  12
BRANCH   4  16
ATOM     16  N   UNL     1       2.402   3.328  20.279  0.00  0.00    +0.000 N 
ATOM     17  C   UNL     1       1.049   3.141  20.192  0.00  0.00    +0.000 A 
ATOM     18  N   UNL     1       0.575   2.692  21.332  0.00  0.00    +0.000 NA
ATOM     19  N   UNL     1       1.639   2.507  22.177  0.00  0.00    +0.000 NA
ATOM     20  C   UNL     1       2.727   2.847  21.522  0.00  0.00    +0.000 A 
ENDBRANCH   4  16
TORSDOF 4
ENDMDL
MODEL 5
REMARK VINA RESULT:      -7.0      1.260      1.776
REMARK  Name = 
REMARK  6 active torsions:
REMARK  status: ('A' for Active; 'I' for Inactive)
REMARK    1  A    between atoms: C_1  and  C_2
REMARK    2  A    between atoms: C_2  and  C_3
REMARK    3  A    between atoms: C_3  and  N_4
REMARK    4  A    between atoms: C_8  and  C_9
REMARK    5  A    between atoms: C_12  and  N_13
REMARK    6  A    between atoms: C_18  and  C_19
REMARK                            x       y       z     vdW  Elec       q    Type
REMARK                         _______ _______ _______ _____ _____    ______ ____
ROOT
ATOM      1  C   UNL     1       4.786   4.176  16.685  0.00  0.00    +0.000 A 
ATOM      2  C   UNL     1       3.935   5.070  17.314  0.00  0.00    +0.000 A 
ATOM      3  N   UNL     1       3.136   4.762  18.362  0.00  0.00    +0.000 NA
ATOM      4  C   UNL     1       3.141   3.480  18.819  0.00  0.00    +0.000 A 
ATOM      5  C   UNL     1       3.847   2.464  18.169  0.00  0.00    +0.000 A 
ATOM      6  C   UNL     1       3.707   0.988  18.415  0.00  0.00    +0.000 C 
ATOM      7  C   UNL     1       4.700   2.848  17.114  0.00  0.00    +0.000 A 
ENDROOT
BRANCH   1  12
ATOM      8  N   UNL     1       6.843   5.347  15.724  0.00  0.00    +0.000 N 
ATOM      9  N   UNL     1       7.493   5.516  14.550  0.00  0.00    +0.000 NA
ATOM     10  C   UNL     1       6.799   4.785  13.682  0.00  0.00    +0.000 A 
ATOM     11  C   UNL     1       5.698   4.160  14.281  0.00  0.00    +0.000 A 
ATOM     12  C   UNL     1       5.708   4.558  15.610  0.00  0.00    +0.000 A 
BRANCH   8  13
ATOM     13  C   UNL     1       7.419   5.984  16.896  0.00  0.00    +0.000 C 
BRANCH  13  15
ATOM     14  C   UNL     1       7.855   5.799  19.393  0.00  0.00    +0.000 C 
ATOM     15  C   UNL     1       7.706   5.055  18.076  0.00  0.00    +0.000 C 
ENDBRANCH  13  15
ENDBRANCH   8  13
ENDBRANCH   1  12
BRANCH   4  16
ATOM     16  N   UNL     1       2.400   3.275  20.011  0.00  0.00    +0.000 N 
ATOM     17  C   UNL     1       1.054   3.099  20.193  0.00  0.00    +0.000 A 
ATOM     18  N   UNL     1       0.782   2.944  21.469  0.00  0.00    +0.000 NA
ATOM     19  N   UNL     1       1.975   2.944  22.148  0.00  0.00    +0.000 NA
ATOM     20  C   UNL     1       2.933   3.096  21.261  0.00  0.00    +0.000 A 
ENDBRANCH   4  16
TORSDOF 4
ENDMDL
MODEL 6
REMARK VINA RESULT:      -6.9      5.104      6.929
REMARK  Name = 
REMARK  6 active torsions:
REMARK  status: ('A' for Active; 'I' for Inactive)
REMARK    1  A    between atoms: C_1  and  C_2
REMARK    2  A    between atoms: C_2  and  C_3
REMARK    3  A    between atoms: C_3  and  N_4
REMARK    4  A    between atoms: C_8  and  C_9
REMARK    5  A    between atoms: C_12  and  N_13
REMARK    6  A    between atoms: C_18  and  C_19
REMARK                            x       y       z     vdW  Elec       q    Type
REMARK                         _______ _______ _______ _____ _____    ______ ____
ROOT
ATOM      1  C   UNL     1       2.699   6.833  19.070  0.00  0.00    +0.000 A 
ATOM      2  C   UNL     1       2.507   7.594  17.928  0.00  0.00    +0.000 A 
ATOM      3  N   UNL     1       1.847   8.775  17.894  0.00  0.00    +0.000 NA
ATOM      4  C   UNL     1       1.306   9.243  19.052  0.00  0.00    +0.000 A 
ATOM      5  C   UNL     1       1.310   8.490  20.230  0.00  0.00    +0.000 A 
ATOM      6  C   UNL     1       0.515   8.779  21.472  0.00  0.00    +0.000 C 
ATOM      7  C   UNL     1       2.052   7.291  20.222  0.00  0.00    +0.000 A 
ENDROOT
BRANCH   1  12
ATOM      8  N   UNL     1       3.023   4.300  19.024  0.00  0.00    +0.000 N 
ATOM      9  N   UNL     1       4.009   3.374  19.069  0.00  0.00    +0.000 NA
ATOM     10  C   UNL     1       5.129   4.089  19.117  0.00  0.00    +0.000 A 
ATOM     11  C   UNL     1       4.876   5.466  19.122  0.00  0.00    +0.000 A 
ATOM     12  C   UNL     1       3.495   5.602  19.097  0.00  0.00    +0.000 A 
BRANCH   8  13
ATOM     13  C   UNL     1       1.661   3.810  18.898  0.00  0.00    +0.000 C 
BRANCH  13  15
ATOM     14  C   UNL     1       1.494   2.985  21.296  0.00  0.00    +0.000 C 
ATOM     15  C   UNL     1       0.843   3.799  20.190  0.00  0.00    +0.000 C 
ENDBRANCH  13  15
ENDBRANCH   8  13
ENDBRANCH   1  12
BRANCH   4  16
ATOM     16  N   UNL     1       0.770  10.553  18.966  0.00  0.00    +0.000 N 
ATOM     17  C   UNL     1       1.382  11.768  19.116  0.00  0.00    +0.000 A 
ATOM     18  N   UNL     1       0.513  12.741  18.959  0.00  0.00    +0.000 NA
ATOM     19  N   UNL     1      -0.690  12.170  18.628  0.00  0.00    +0.000 NA
ATOM     20  C   UNL     1      -0.511  10.867  18.592  0.00  0.00    +0.000 A 
ENDBRANCH   4  16
TORSDOF 4
ENDMDL
MODEL 7
REMARK VINA RESULT:      -6.9      1.079      1.303
REMARK  Name = 
REMARK  6 active torsions:
REMARK  status: ('A' for Active; 'I' for Inactive)
REMARK    1  A    between atoms: C_1  and  C_2
REMARK    2  A    between atoms: C_2  and  C_3
REMARK    3  A    between atoms: C_3  and  N_4
REMARK    4  A    between atoms: C_8  and  C_9
REMARK    5  A    between atoms: C_12  and  N_13
REMARK    6  A    between atoms: C_18  and  C_19
REMARK                            x       y       z     vdW  Elec       q    Type
REMARK                         _______ _______ _______ _____ _____    ______ ____
ROOT
ATOM      1  C   UNL     1       4.868   4.188  16.736  0.00  0.00    +0.000 A 
ATOM      2  C   UNL     1       4.052   5.087  17.404  0.00  0.00    +0.000 A 
ATOM      3  N   UNL     1       3.244   4.766  18.440  0.00  0.00    +0.000 NA
ATOM      4  C   UNL     1       3.201   3.467  18.845  0.00  0.00    +0.000 A 
ATOM      5  C   UNL     1       3.867   2.452  18.152  0.00  0.00    +0.000 A 
ATOM      6  C   UNL     1       3.673   0.974  18.337  0.00  0.00    +0.000 C 
ATOM      7  C   UNL     1       4.733   2.848  17.111  0.00  0.00    +0.000 A 
ENDROOT
BRANCH   1  12
ATOM      8  N   UNL     1       6.948   5.348  15.813  0.00  0.00    +0.000 N 
ATOM      9  N   UNL     1       7.608   5.533  14.646  0.00  0.00    +0.000 NA
ATOM     10  C   UNL     1       6.909   4.831  13.759  0.00  0.00    +0.000 A 
ATOM     11  C   UNL     1       5.795   4.209  14.338  0.00  0.00    +0.000 A 
ATOM     12  C   UNL     1       5.803   4.578  15.676  0.00  0.00    +0.000 A 
BRANCH   8  13
ATOM     13  C   UNL     1       7.525   5.953  17.001  0.00  0.00    +0.000 C 
BRANCH  13  15
ATOM     14  C   UNL     1       7.837   8.409  17.580  0.00  0.00    +0.000 C 
ATOM     15  C   UNL     1       6.861   7.249  17.469  0.00  0.00    +0.000 C 
ENDBRANCH  13  15
ENDBRANCH   8  13
ENDBRANCH   1  12
BRANCH   4  16
ATOM     16  N   UNL     1       2.454   3.241  20.029  0.00  0.00    +0.000 N 
ATOM     17  C   UNL     1       2.877   3.067  21.319  0.00  0.00    +0.000 A 
ATOM     18  N   UNL     1       1.850   2.880  22.117  0.00  0.00    +0.000 NA
ATOM     19  N   UNL     1       0.712   3.001  21.359  0.00  0.00    +0.000 NA
ATOM     20  C   UNL     1       1.086   3.261  20.125  0.00  0.00    +0.000 A 
ENDBRANCH   4  16
TORSDOF 4
ENDMDL
MODEL 8
REMARK VINA RESULT:      -6.8      4.660      6.193
REMARK  Name = 
REMARK  6 active torsions:
REMARK  status: ('A' for Active; 'I' for Inactive)
REMARK    1  A    between atoms: C_1  and  C_2
REMARK    2  A    between atoms: C_2  and  C_3
REMARK    3  A    between atoms: C_3  and  N_4
REMARK    4  A    between atoms: C_8  and  C_9
REMARK    5  A    between atoms: C_12  and  N_13
REMARK    6  A    between atoms: C_18  and  C_19
REMARK                            x       y       z     vdW  Elec       q    Type
REMARK                         _______ _______ _______ _____ _____    ______ ____
ROOT
ATOM      1  C   UNL     1       2.676   6.552  18.631  0.00  0.00    +0.000 A 
ATOM      2  C   UNL     1       2.296   6.535  19.963  0.00  0.00    +0.000 A 
ATOM      3  N   UNL     1       1.681   7.560  20.599  0.00  0.00    +0.000 NA
ATOM      4  C   UNL     1       1.441   8.701  19.897  0.00  0.00    +0.000 A 
ATOM      5  C   UNL     1       1.912   8.883  18.594  0.00  0.00    +0.000 A 
ATOM      6  C   UNL     1       1.947  10.179  17.835  0.00  0.00    +0.000 C 
ATOM      7  C   UNL     1       2.502   7.768  17.963  0.00  0.00    +0.000 A 
ENDROOT
BRANCH   1  12
ATOM      8  N   UNL     1       2.655   4.167  17.716  0.00  0.00    +0.000 N 
ATOM      9  N   UNL     1       3.449   3.301  17.046  0.00  0.00    +0.000 NA
ATOM     10  C   UNL     1       4.553   3.996  16.792  0.00  0.00    +0.000 A 
ATOM     11  C   UNL     1       4.488   5.297  17.306  0.00  0.00    +0.000 A 
ATOM     12  C   UNL     1       3.258   5.395  17.942  0.00  0.00    +0.000 A 
BRANCH   8  13
ATOM     13  C   UNL     1       1.327   3.703  18.077  0.00  0.00    +0.000 C 
BRANCH  13  15
ATOM     14  C   UNL     1       1.138   3.103  20.540  0.00  0.00    +0.000 C 
ATOM     15  C   UNL     1       1.281   2.584  19.119  0.00  0.00    +0.000 C 
ENDBRANCH  13  15
ENDBRANCH   8  13
ENDBRANCH   1  12
BRANCH   4  16
ATOM     16  N   UNL     1       0.659   9.664  20.584  0.00  0.00    +0.000 N 
ATOM     17  C   UNL     1      -0.508  10.279  20.216  0.00  0.00    +0.000 A 
ATOM     18  N   UNL     1      -0.899  11.114  21.151  0.00  0.00    +0.000 NA
ATOM     19  N   UNL     1      -0.018  11.006  22.197  0.00  0.00    +0.000 NA
ATOM     20  C   UNL     1       0.880  10.105  21.864  0.00  0.00    +0.000 A 
ENDBRANCH   4  16
TORSDOF 4
ENDMDL
MODEL 9
REMARK VINA RESULT:      -6.7      3.272      3.658
REMARK  Name = 
REMARK  6 active torsions:
REMARK  status: ('A' for Active; 'I' for Inactive)
REMARK    1  A    between atoms: C_1  and  C_2
REMARK    2  A    between atoms: C_2  and  C_3
REMARK    3  A    between atoms: C_3  and  N_4
REMARK    4  A    between atoms: C_8  and  C_9
REMARK    5  A    between atoms: C_12  and  N_13
REMARK    6  A    between atoms: C_18  and  C_19
REMARK                            x       y       z     vdW  Elec       q    Type
REMARK                         _______ _______ _______ _____ _____    ______ ____
ROOT
ATOM      1  C   UNL     1       4.494   6.037  17.223  0.00  0.00    +0.000 A 
ATOM      2  C   UNL     1       4.147   7.373  17.109  0.00  0.00    +0.000 A 
ATOM      3  N   UNL     1       3.239   8.001  17.892  0.00  0.00    +0.000 NA
ATOM      4  C   UNL     1       2.596   7.270  18.843  0.00  0.00    +0.000 A 
ATOM      5  C   UNL     1       2.758   5.885  18.950  0.00  0.00    +0.000 A 
ATOM      6  C   UNL     1       1.907   4.951  19.763  0.00  0.00    +0.000 C 
ATOM      7  C   UNL     1       3.750   5.292  18.143  0.00  0.00    +0.000 A 
ENDROOT
BRANCH   1  12
ATOM      8  N   UNL     1       6.804   5.012  16.854  0.00  0.00    +0.000 N 
ATOM      9  N   UNL     1       7.552   4.449  15.877  0.00  0.00    +0.000 NA
ATOM     10  C   UNL     1       6.747   4.431  14.818  0.00  0.00    +0.000 A 
ATOM     11  C   UNL     1       5.495   4.991  15.097  0.00  0.00    +0.000 A 
ATOM     12  C   UNL     1       5.547   5.404  16.422  0.00  0.00    +0.000 A 
BRANCH   8  13
ATOM     13  C   UNL     1       7.406   5.108  18.173  0.00  0.00    +0.000 C 
BRANCH  13  15
ATOM     14  C   UNL     1       7.814   7.528  17.508  0.00  0.00    +0.000 C 
ATOM     15  C   UNL     1       7.728   6.526  18.648  0.00  0.00    +0.000 C 
ENDBRANCH  13  15
ENDBRANCH   8  13
ENDBRANCH   1  12
BRANCH   4  16
ATOM     16  N   UNL     1       1.780   8.028  19.721  0.00  0.00    +0.000 N 
ATOM     17  C   UNL     1       1.045   9.159  19.485  0.00  0.00    +0.000 A 
ATOM     18  N   UNL     1       0.432   9.543  20.582  0.00  0.00    +0.000 NA
ATOM     19  N   UNL     1       0.704   8.613  21.554  0.00  0.00    +0.000 NA
ATOM     20  C   UNL     1       1.471   7.692  21.014  0.00  0.00    +0.000 A 
ENDBRANCH   4  16
TORSDOF 4
ENDMDL
