MODEL 1
REMARK VINA RESULT:      -8.0      0.000      0.000
REMARK  Name = 
REMARK  6 active torsions:
REMARK  status: ('A' for Active; 'I' for Inactive)
REMARK    1  A    between atoms: C_2  and  C_20
REMARK    2  A    between atoms: N_3  and  C_4
REMARK    3  A    between atoms: C_4  and  C_5
REMARK    4  A    between atoms: C_5  and  C_6
REMARK    5  A    between atoms: C_6  and  N_7
REMARK    6  A    between atoms: N_10  and  C_11
REMARK                            x       y       z     vdW  Elec       q    Type
REMARK                         _______ _______ _______ _____ _____    ______ ____
ROOT
ATOM      1  C   UNL     1       7.456   6.578  17.273  0.00  0.00    +0.000 C 
ENDROOT
BRANCH   1   2
ATOM      2  N   UNL     1       6.487   5.994  16.333  0.00  0.00    +0.000 NA
ATOM      3  C   UNL     1       6.246   4.551  16.549  0.00  0.00    +0.000 C 
ATOM      4  C   UNL     1       5.456   4.186  17.827  0.00  0.00    +0.000 C 
ATOM      5  N   UNL     1       4.182   4.919  17.870  0.00  0.00    +0.000 N 
ATOM      6  C   UNL     1       4.307   6.375  17.665  0.00  0.00    +0.000 C 
ATOM      7  C   UNL     1       5.174   6.687  16.413  0.00  0.00    +0.000 C 
BRANCH   5   8
ATOM      8  C   UNL     1       3.022   4.355  18.396  0.00  0.00    +0.000 A 
ATOM      9  C   UNL     1       2.623   3.084  17.924  0.00  0.00    +0.000 A 
ATOM     10  C   UNL     1       1.541   2.375  18.464  0.00  0.00    +0.000 A 
ATOM     11  C   UNL     1       0.818   2.910  19.518  0.00  0.00    +0.000 A 
ATOM     12  C   UNL     1       1.155   4.169  19.999  0.00  0.00    +0.000 A 
ATOM     13  C   UNL     1       2.224   4.893  19.438  0.00  0.00    +0.000 A 
ATOM     14 CL   UNL     1       2.398   6.507  20.060  0.00  0.00    +0.000 Cl
ENDBRANCH   5   8
ENDBRANCH   1   2
BRANCH   1  15
ATOM     15  C   UNL     1       7.460   8.113  17.343  0.00  0.00    +0.000 C 
BRANCH  15  16
ATOM     16  C   UNL     1       8.346   8.682  18.452  0.00  0.00    +0.000 C 
BRANCH  16  19
ATOM     17  O   UNL     1       9.544  10.586  20.185  0.00  0.00    +0.000 OA
ATOM     18  C   UNL     1       9.502  10.810  18.979  0.00  0.00    +0.000 C 
ATOM     19  N   UNL     1       8.897   9.971  18.069  0.00  0.00    +0.000 N 
ATOM     20  H   UNL     1       8.981  10.228  17.091  0.00  0.00    +0.000 HD
BRANCH  18  21
ATOM     21  C   UNL     1      10.146  12.036  18.401  0.00  0.00    +0.000 A 
ATOM     22  C   UNL     1       9.397  13.202  18.285  0.00  0.00    +0.000 A 
ATOM     23  C   UNL     1      10.013  14.334  17.766  0.00  0.00    +0.000 A 
ATOM     24  C   UNL     1      11.349  14.266  17.384  0.00  0.00    +0.000 A 
ATOM     25  C   UNL     1      12.021  13.059  17.536  0.00  0.00    +0.000 A 
ATOM     26  N   UNL     1      11.456  11.936  18.036  0.00  0.00    +0.000 NA
ENDBRANCH  18  21
ENDBRANCH  16  19
ENDBRANCH  15  16
ENDBRANCH   1  15
TORSDOF 6
ENDMDL
MODEL 2
REMARK VINA RESULT:      -7.9      1.438      1.705
REMARK  Name = 
REMARK  6 active torsions:
REMARK  status: ('A' for Active; 'I' for Inactive)
REMARK    1  A    between atoms: C_2  and  C_20
REMARK    2  A    between atoms: N_3  and  C_4
REMARK    3  A    between atoms: C_4  and  C_5
REMARK    4  A    between atoms: C_5  and  C_6
REMARK    5  A    between atoms: C_6  and  N_7
REMARK    6  A    between atoms: N_10  and  C_11
REMARK                            x       y       z     vdW  Elec       q    Type
REMARK                         _______ _______ _______ _____ _____    ______ ____
ROOT
ATOM      1  C   UNL     1       7.662   7.001  18.046  0.00  0.00    +0.000 C 
ENDROOT
BRANCH   1   2
ATOM      2  N   UNL     1       7.077   6.163  16.989  0.00  0.00    +0.000 NA
ATOM      3  C   UNL     1       7.015   4.727  17.337  0.00  0.00    +0.000 C 
ATOM      4  C   UNL     1       5.984   4.343  18.422  0.00  0.00    +0.000 C 
ATOM      5  N   UNL     1       4.645   4.828  18.054  0.00  0.00    +0.000 N 
ATOM      6  C   UNL     1       4.592   6.257  17.688  0.00  0.00    +0.000 C 
ATOM      7  C   UNL     1       5.699   6.605  16.652  0.00  0.00    +0.000 C 
BRANCH   5   8
ATOM      8  C   UNL     1       3.489   4.111  18.355  0.00  0.00    +0.000 A 
ATOM      9  C   UNL     1       2.269   4.542  17.788  0.00  0.00    +0.000 A 
ATOM     10  C   UNL     1       1.070   3.831  17.929  0.00  0.00    +0.000 A 
ATOM     11  C   UNL     1       1.048   2.642  18.640  0.00  0.00    +0.000 A 
ATOM     12  C   UNL     1       2.217   2.190  19.239  0.00  0.00    +0.000 A 
ATOM     13  C   UNL     1       3.415   2.919  19.121  0.00  0.00    +0.000 A 
ATOM     14 CL   UNL     1       4.732   2.287  20.064  0.00  0.00    +0.000 Cl
ENDBRANCH   5   8
ENDBRANCH   1   2
BRANCH   1  15
ATOM     15  C   UNL     1       7.925   8.464  17.656  0.00  0.00    +0.000 C 
BRANCH  15  16
ATOM     16  C   UNL     1       8.678   9.265  18.718  0.00  0.00    +0.000 C 
BRANCH  16  19
ATOM     17  O   UNL     1       9.382  11.584  20.200  0.00  0.00    +0.000 OA
ATOM     18  C   UNL     1       9.526  11.579  18.981  0.00  0.00    +0.000 C 
ATOM     19  N   UNL     1       9.166  10.522  18.175  0.00  0.00    +0.000 N 
ATOM     20  H   UNL     1       9.392  10.606  17.189  0.00  0.00    +0.000 HD
BRANCH  18  21
ATOM     21  C   UNL     1      10.144  12.751  18.275  0.00  0.00    +0.000 A 
ATOM     22  C   UNL     1      11.162  12.525  17.355  0.00  0.00    +0.000 A 
ATOM     23  C   UNL     1      11.711  13.618  16.695  0.00  0.00    +0.000 A 
ATOM     24  C   UNL     1      11.227  14.892  16.974  0.00  0.00    +0.000 A 
ATOM     25  C   UNL     1      10.208  15.024  17.908  0.00  0.00    +0.000 A 
ATOM     26  N   UNL     1       9.648  13.986  18.570  0.00  0.00    +0.000 NA
ENDBRANCH  18  21
ENDBRANCH  16  19
ENDBRANCH  15  16
ENDBRANCH   1  15
TORSDOF 6
ENDMDL
MODEL 3
REMARK VINA RESULT:      -7.8      2.022      2.573
REMARK  Name = 
REMARK  6 active torsions:
REMARK  status: ('A' for Active; 'I' for Inactive)
REMARK    1  A    between atoms: C_2  and  C_20
REMARK    2  A    between atoms: N_3  and  C_4
REMARK    3  A    between atoms: C_4  and  C_5
REMARK    4  A    between atoms: C_5  and  C_6
REMARK    5  A    between atoms: C_6  and  N_7
REMARK    6  A    between atoms: N_10  and  C_11
REMARK                            x       y       z     vdW  Elec       q    Type
REMARK                         _______ _______ _______ _____ _____    ______ ____
ROOT
ATOM      1  C   UNL     1       6.841   7.031  17.082  0.00  0.00    +0.000 C 
ENDROOT
BRANCH   1   2
ATOM      2  N   UNL     1       6.792   5.561  17.117  0.00  0.00    +0.000 NA
ATOM      3  C   UNL     1       6.776   5.000  18.485  0.00  0.00    +0.000 C 
ATOM      4  C   UNL     1       5.469   5.214  19.282  0.00  0.00    +0.000 C 
ATOM      5  N   UNL     1       4.315   4.712  18.521  0.00  0.00    +0.000 N 
ATOM      6  C   UNL     1       4.232   5.213  17.135  0.00  0.00    +0.000 C 
ATOM      7  C   UNL     1       5.594   5.045  16.403  0.00  0.00    +0.000 C 
BRANCH   5   8
ATOM      8  C   UNL     1       3.223   4.111  19.143  0.00  0.00    +0.000 A 
ATOM      9  C   UNL     1       2.442   4.893  20.024  0.00  0.00    +0.000 A 
ATOM     10  C   UNL     1       1.259   4.426  20.612  0.00  0.00    +0.000 A 
ATOM     11  C   UNL     1       0.799   3.150  20.328  0.00  0.00    +0.000 A 
ATOM     12  C   UNL     1       1.546   2.333  19.488  0.00  0.00    +0.000 A 
ATOM     13  C   UNL     1       2.750   2.793  18.920  0.00  0.00    +0.000 A 
ATOM     14 CL   UNL     1       3.624   1.585  18.027  0.00  0.00    +0.000 Cl
ENDBRANCH   5   8
ENDBRANCH   1   2
BRANCH   1  15
ATOM     15  C   UNL     1       7.876   7.677  18.015  0.00  0.00    +0.000 C 
BRANCH  15  16
ATOM     16  C   UNL     1       8.422   9.012  17.508  0.00  0.00    +0.000 C 
BRANCH  16  19
ATOM     17  O   UNL     1      10.294  11.142  17.680  0.00  0.00    +0.000 OA
ATOM     18  C   UNL     1       9.453  11.003  18.564  0.00  0.00    +0.000 C 
ATOM     19  N   UNL     1       8.540   9.973  18.592  0.00  0.00    +0.000 N 
ATOM     20  H   UNL     1       7.852   9.997  19.339  0.00  0.00    +0.000 HD
BRANCH  18  21
ATOM     21  C   UNL     1       9.351  11.991  19.690  0.00  0.00    +0.000 A 
ATOM     22  C   UNL     1       9.544  11.551  20.995  0.00  0.00    +0.000 A 
ATOM     23  C   UNL     1       9.466  12.481  22.024  0.00  0.00    +0.000 A 
ATOM     24  C   UNL     1       9.200  13.811  21.719  0.00  0.00    +0.000 A 
ATOM     25  C   UNL     1       9.021  14.162  20.386  0.00  0.00    +0.000 A 
ATOM     26  N   UNL     1       9.089  13.287  19.357  0.00  0.00    +0.000 NA
ENDBRANCH  18  21
ENDBRANCH  16  19
ENDBRANCH  15  16
ENDBRANCH   1  15
TORSDOF 6
ENDMDL
MODEL 4
REMARK VINA RESULT:      -7.7      1.187      1.405
REMARK  Name = 
REMARK  6 active torsions:
REMARK  status: ('A' for Active; 'I' for Inactive)
REMARK    1  A    between atoms: C_2  and  C_20
REMARK    2  A    between atoms: N_3  and  C_4
REMARK    3  A    between atoms: C_4  and  C_5
REMARK    4  A    between atoms: C_5  and  C_6
REMARK    5  A    between atoms: C_6  and  N_7
REMARK    6  A    between atoms: N_10  and  C_11
REMARK                            x       y       z     vdW  Elec       q    Type
REMARK                         _______ _______ _______ _____ _____    ______ ____
ROOT
ATOM      1  C   UNL     1       7.852   7.132  18.175  0.00  0.00    +0.000 C 
ENDROOT
BRANCH   1   2
ATOM      2  N   UNL     1       7.380   6.214  17.127  0.00  0.00    +0.000 NA
ATOM      3  C   UNL     1       7.224   4.817  17.588  0.00  0.00    +0.000 C 
ATOM      4  C   UNL     1       6.049   4.557  18.557  0.00  0.00    +0.000 C 
ATOM      5  N   UNL     1       4.786   5.037  17.974  0.00  0.00    +0.000 N 
ATOM      6  C   UNL     1       4.830   6.427  17.481  0.00  0.00    +0.000 C 
ATOM      7  C   UNL     1       6.073   6.655  16.574  0.00  0.00    +0.000 C 
BRANCH   5   8
ATOM      8  C   UNL     1       3.577   4.376  18.182  0.00  0.00    +0.000 A 
ATOM      9  C   UNL     1       3.382   3.126  17.553  0.00  0.00    +0.000 A 
ATOM     10  C   UNL     1       2.257   2.324  17.784  0.00  0.00    +0.000 A 
ATOM     11  C   UNL     1       1.279   2.740  18.673  0.00  0.00    +0.000 A 
ATOM     12  C   UNL     1       1.413   3.975  19.296  0.00  0.00    +0.000 A 
ATOM     13  C   UNL     1       2.530   4.793  19.043  0.00  0.00    +0.000 A 
ATOM     14 CL   UNL     1       2.450   6.362  19.787  0.00  0.00    +0.000 Cl
ENDBRANCH   5   8
ENDBRANCH   1   2
BRANCH   1  15
ATOM     15  C   UNL     1       7.904   8.615  17.776  0.00  0.00    +0.000 C 
BRANCH  15  16
ATOM     16  C   UNL     1       8.904   9.442  18.585  0.00  0.00    +0.000 C 
BRANCH  16  19
ATOM     17  O   UNL     1      10.164  11.569  19.982  0.00  0.00    +0.000 OA
ATOM     18  C   UNL     1       9.421  11.823  19.039  0.00  0.00    +0.000 C 
ATOM     19  N   UNL     1       8.728  10.863  18.335  0.00  0.00    +0.000 N 
ATOM     20  H   UNL     1       8.194  11.185  17.534  0.00  0.00    +0.000 HD
BRANCH  18  21
ATOM     21  C   UNL     1       9.235  13.234  18.565  0.00  0.00    +0.000 A 
ATOM     22  C   UNL     1       7.962  13.663  18.204  0.00  0.00    +0.000 A 
ATOM     23  C   UNL     1       7.803  14.979  17.785  0.00  0.00    +0.000 A 
ATOM     24  C   UNL     1       8.912  15.817  17.742  0.00  0.00    +0.000 A 
ATOM     25  C   UNL     1      10.146  15.304  18.121  0.00  0.00    +0.000 A 
ATOM     26  N   UNL     1      10.342  14.031  18.534  0.00  0.00    +0.000 NA
ENDBRANCH  18  21
ENDBRANCH  16  19
ENDBRANCH  15  16
ENDBRANCH   1  15
TORSDOF 6
ENDMDL
MODEL 5
REMARK VINA RESULT:      -7.7      1.361      1.534
REMARK  Name = 
REMARK  6 active torsions:
REMARK  status: ('A' for Active; 'I' for Inactive)
REMARK    1  A    between atoms: C_2  and  C_20
REMARK    2  A    between atoms: N_3  and  C_4
REMARK    3  A    between atoms: C_4  and  C_5
REMARK    4  A    between atoms: C_5  and  C_6
REMARK    5  A    between atoms: C_6  and  N_7
REMARK    6  A    between atoms: N_10  and  C_11
REMARK                            x       y       z     vdW  Elec       q    Type
REMARK                         _______ _______ _______ _____ _____    ______ ____
ROOT
ATOM      1  C   UNL     1       7.701   7.126  18.162  0.00  0.00    +0.000 C 
ENDROOT
BRANCH   1   2
ATOM      2  N   UNL     1       7.351   6.005  17.278  0.00  0.00    +0.000 NA
ATOM      3  C   UNL     1       7.157   4.724  17.992  0.00  0.00    +0.000 C 
ATOM      4  C   UNL     1       5.887   4.629  18.867  0.00  0.00    +0.000 C 
ATOM      5  N   UNL     1       4.690   4.946  18.073  0.00  0.00    +0.000 N 
ATOM      6  C   UNL     1       4.776   6.211  17.317  0.00  0.00    +0.000 C 
ATOM      7  C   UNL     1       6.106   6.289  16.516  0.00  0.00    +0.000 C 
BRANCH   5   8
ATOM      8  C   UNL     1       3.471   4.305  18.284  0.00  0.00    +0.000 A 
ATOM      9  C   UNL     1       3.265   3.046  17.678  0.00  0.00    +0.000 A 
ATOM     10  C   UNL     1       2.126   2.263  17.915  0.00  0.00    +0.000 A 
ATOM     11  C   UNL     1       1.147   2.710  18.787  0.00  0.00    +0.000 A 
ATOM     12  C   UNL     1       1.292   3.954  19.388  0.00  0.00    +0.000 A 
ATOM     13  C   UNL     1       2.422   4.753  19.127  0.00  0.00    +0.000 A 
ATOM     14 CL   UNL     1       2.357   6.337  19.840  0.00  0.00    +0.000 Cl
ENDBRANCH   5   8
ENDBRANCH   1   2
BRANCH   1  15
ATOM     15  C   UNL     1       8.327   8.344  17.464  0.00  0.00    +0.000 C 
BRANCH  15  16
ATOM     16  C   UNL     1       7.864   9.688  18.026  0.00  0.00    +0.000 C 
BRANCH  16  19
ATOM     17  O   UNL     1       8.058  12.428  17.301  0.00  0.00    +0.000 OA
ATOM     18  C   UNL     1       8.977  11.901  17.921  0.00  0.00    +0.000 C 
ATOM     19  N   UNL     1       8.995  10.569  18.271  0.00  0.00    +0.000 N 
ATOM     20  H   UNL     1       9.778  10.259  18.838  0.00  0.00    +0.000 HD
BRANCH  18  21
ATOM     21  C   UNL     1      10.162  12.704  18.371  0.00  0.00    +0.000 A 
ATOM     22  C   UNL     1      11.017  12.169  19.329  0.00  0.00    +0.000 A 
ATOM     23  C   UNL     1      12.121  12.918  19.720  0.00  0.00    +0.000 A 
ATOM     24  C   UNL     1      12.333  14.166  19.146  0.00  0.00    +0.000 A 
ATOM     25  C   UNL     1      11.427  14.622  18.196  0.00  0.00    +0.000 A 
ATOM     26  N   UNL     1      10.342  13.924  17.789  0.00  0.00    +0.000 NA
ENDBRANCH  18  21
ENDBRANCH  16  19
ENDBRANCH  15  16
ENDBRANCH   1  15
TORSDOF 6
ENDMDL
MODEL 6
REMARK VINA RESULT:      -7.7      1.061      1.241
REMARK  Name = 
REMARK  6 active torsions:
REMARK  status: ('A' for Active; 'I' for Inactive)
REMARK    1  A    between atoms: C_2  and  C_20
REMARK    2  A    between atoms: N_3  and  C_4
REMARK    3  A    between atoms: C_4  and  C_5
REMARK    4  A    between atoms: C_5  and  C_6
REMARK    5  A    between atoms: C_6  and  N_7
REMARK    6  A    between atoms: N_10  and  C_11
REMARK                            x       y       z     vdW  Elec       q    Type
REMARK                         _______ _______ _______ _____ _____    ______ ____
ROOT
ATOM      1  C   UNL     1       7.159   6.613  16.793  0.00  0.00    +0.000 C 
ENDROOT
BRANCH   1   2
ATOM      2  N   UNL     1       7.079   5.202  17.201  0.00  0.00    +0.000 NA
ATOM      3  C   UNL     1       6.907   5.015  18.658  0.00  0.00    +0.000 C 
ATOM      4  C   UNL     1       5.528   5.415  19.228  0.00  0.00    +0.000 C 
ATOM      5  N   UNL     1       4.451   4.723  18.503  0.00  0.00    +0.000 N 
ATOM      6  C   UNL     1       4.526   4.847  17.034  0.00  0.00    +0.000 C 
ATOM      7  C   UNL     1       5.955   4.507  16.521  0.00  0.00    +0.000 C 
BRANCH   5   8
ATOM      8  C   UNL     1       3.289   4.293  19.139  0.00  0.00    +0.000 A 
ATOM      9  C   UNL     1       3.046   2.903  19.218  0.00  0.00    +0.000 A 
ATOM     10  C   UNL     1       1.971   2.357  19.932  0.00  0.00    +0.000 A 
ATOM     11  C   UNL     1       1.097   3.188  20.614  0.00  0.00    +0.000 A 
ATOM     12  C   UNL     1       1.279   4.564  20.544  0.00  0.00    +0.000 A 
ATOM     13  C   UNL     1       2.342   5.114  19.803  0.00  0.00    +0.000 A 
ATOM     14 CL   UNL     1       2.319   6.849  19.701  0.00  0.00    +0.000 Cl
ENDBRANCH   5   8
ENDBRANCH   1   2
BRANCH   1  15
ATOM     15  C   UNL     1       8.105   7.488  17.630  0.00  0.00    +0.000 C 
BRANCH  15  16
ATOM     16  C   UNL     1       7.508   8.836  18.035  0.00  0.00    +0.000 C 
BRANCH  16  19
ATOM     17  O   UNL     1       8.991  10.192  20.043  0.00  0.00    +0.000 OA
ATOM     18  C   UNL     1       9.170  10.479  18.863  0.00  0.00    +0.000 C 
ATOM     19  N   UNL     1       8.463   9.913  17.826  0.00  0.00    +0.000 N 
ATOM     20  H   UNL     1       8.741  10.181  16.887  0.00  0.00    +0.000 HD
BRANCH  18  21
ATOM     21  C   UNL     1      10.217  11.477  18.464  0.00  0.00    +0.000 A 
ATOM     22  C   UNL     1       9.924  12.405  17.471  0.00  0.00    +0.000 A 
ATOM     23  C   UNL     1      10.897  13.335  17.127  0.00  0.00    +0.000 A 
ATOM     24  C   UNL     1      12.124  13.308  17.783  0.00  0.00    +0.000 A 
ATOM     25  C   UNL     1      12.330  12.345  18.763  0.00  0.00    +0.000 A 
ATOM     26  N   UNL     1      11.409  11.424  19.126  0.00  0.00    +0.000 NA
ENDBRANCH  18  21
ENDBRANCH  16  19
ENDBRANCH  15  16
ENDBRANCH   1  15
TORSDOF 6
ENDMDL
MODEL 7
REMARK VINA RESULT:      -7.6      1.746      2.149
REMARK  Name = 
REMARK  6 active torsions:
REMARK  status: ('A' for Active; 'I' for Inactive)
REMARK    1  A    between atoms: C_2  and  C_20
REMARK    2  A    between atoms: N_3  and  C_4
REMARK    3  A    between atoms: C_4  and  C_5
REMARK    4  A    between atoms: C_5  and  C_6
REMARK    5  A    between atoms: C_6  and  N_7
REMARK    6  A    between atoms: N_10  and  C_11
REMARK                            x       y       z     vdW  Elec       q    Type
REMARK                         _______ _______ _______ _____ _____    ______ ____
ROOT
ATOM      1  C   UNL     1       6.979   7.117  17.232  0.00  0.00    +0.000 C 
ENDROOT
BRANCH   1   2
ATOM      2  N   UNL     1       6.916   5.651  17.328  0.00  0.00    +0.000 NA
ATOM      3  C   UNL     1       6.718   5.155  18.707  0.00  0.00    +0.000 C 
ATOM      4  C   UNL     1       5.321   5.406  19.318  0.00  0.00    +0.000 C 
ATOM      5  N   UNL     1       4.271   4.871  18.438  0.00  0.00    +0.000 N 
ATOM      6  C   UNL     1       4.373   5.306  17.031  0.00  0.00    +0.000 C 
ATOM      7  C   UNL     1       5.817   5.102  16.490  0.00  0.00    +0.000 C 
BRANCH   5   8
ATOM      8  C   UNL     1       3.104   4.300  18.940  0.00  0.00    +0.000 A 
ATOM      9  C   UNL     1       2.861   2.933  18.674  0.00  0.00    +0.000 A 
ATOM     10  C   UNL     1       1.781   2.230  19.225  0.00  0.00    +0.000 A 
ATOM     11  C   UNL     1       0.901   2.871  20.083  0.00  0.00    +0.000 A 
ATOM     12  C   UNL     1       1.084   4.221  20.354  0.00  0.00    +0.000 A 
ATOM     13  C   UNL     1       2.152   4.934  19.778  0.00  0.00    +0.000 A 
ATOM     14 CL   UNL     1       2.129   6.641  20.104  0.00  0.00    +0.000 Cl
ENDBRANCH   5   8
ENDBRANCH   1   2
BRANCH   1  15
ATOM     15  C   UNL     1       7.995   7.795  18.164  0.00  0.00    +0.000 C 
BRANCH  15  16
ATOM     16  C   UNL     1       8.442   9.179  17.695  0.00  0.00    +0.000 C 
BRANCH  16  19
ATOM     17  O   UNL     1      10.361  11.266  17.855  0.00  0.00    +0.000 OA
ATOM     18  C   UNL     1       9.587  11.085  18.790  0.00  0.00    +0.000 C 
ATOM     19  N   UNL     1       8.659  10.068  18.824  0.00  0.00    +0.000 N 
ATOM     20  H   UNL     1       8.029  10.055  19.621  0.00  0.00    +0.000 HD
BRANCH  18  21
ATOM     21  C   UNL     1       9.589  12.001  19.979  0.00  0.00    +0.000 A 
ATOM     22  C   UNL     1      10.067  13.298  19.832  0.00  0.00    +0.000 A 
ATOM     23  C   UNL     1      10.044  14.140  20.937  0.00  0.00    +0.000 A 
ATOM     24  C   UNL     1       9.546  13.662  22.145  0.00  0.00    +0.000 A 
ATOM     25  C   UNL     1       9.088  12.352  22.201  0.00  0.00    +0.000 A 
ATOM     26  N   UNL     1       9.094  11.502  21.148  0.00  0.00    +0.000 NA
ENDBRANCH  18  21
ENDBRANCH  16  19
ENDBRANCH  15  16
ENDBRANCH   1  15
TORSDOF 6
ENDMDL
MODEL 8
REMARK VINA RESULT:      -7.6      0.808      1.109
REMARK  Name = 
REMARK  6 active torsions:
REMARK  status: ('A' for Active; 'I' for Inactive)
REMARK    1  A    between atoms: C_2  and  C_20
REMARK    2  A    between atoms: N_3  and  C_4
REMARK    3  A    between atoms: C_4  and  C_5
REMARK    4  A    between atoms: C_5  and  C_6
REMARK    5  A    between atoms: C_6  and  N_7
REMARK    6  A    between atoms: N_10  and  C_11
REMARK                            x       y       z     vdW  Elec       q    Type
REMARK                         _______ _______ _______ _____ _____    ______ ____
ROOT
ATOM      1  C   UNL     1       6.720   7.624  17.342  0.00  0.00    +0.000 C 
ENDROOT
BRANCH   1   2
ATOM      2  N   UNL     1       6.228   6.477  16.564  0.00  0.00    +0.000 NA
ATOM      3  C   UNL     1       6.308   5.191  17.288  0.00  0.00    +0.000 C 
ATOM      4  C   UNL     1       5.315   5.016  18.459  0.00  0.00    +0.000 C 
ATOM      5  N   UNL     1       3.936   5.249  18.002  0.00  0.00    +0.000 N 
ATOM      6  C   UNL     1       3.742   6.513  17.265  0.00  0.00    +0.000 C 
ATOM      7  C   UNL     1       4.814   6.675  16.150  0.00  0.00    +0.000 C 
BRANCH   5   8
ATOM      8  C   UNL     1       2.856   4.531  18.511  0.00  0.00    +0.000 A 
ATOM      9  C   UNL     1       2.572   3.266  17.950  0.00  0.00    +0.000 A 
ATOM     10  C   UNL     1       1.586   2.410  18.460  0.00  0.00    +0.000 A 
ATOM     11  C   UNL     1       0.848   2.786  19.570  0.00  0.00    +0.000 A 
ATOM     12  C   UNL     1       1.073   4.033  20.142  0.00  0.00    +0.000 A 
ATOM     13  C   UNL     1       2.044   4.904  19.612  0.00  0.00    +0.000 A 
ATOM     14 CL   UNL     1       2.076   6.474  20.356  0.00  0.00    +0.000 Cl
ENDBRANCH   5   8
ENDBRANCH   1   2
BRANCH   1  15
ATOM     15  C   UNL     1       8.156   7.491  17.874  0.00  0.00    +0.000 C 
BRANCH  15  16
ATOM     16  C   UNL     1       8.495   8.470  18.998  0.00  0.00    +0.000 C 
BRANCH  16  19
ATOM     17  O   UNL     1       9.435  10.697  20.490  0.00  0.00    +0.000 OA
ATOM     18  C   UNL     1       9.390  10.766  19.265  0.00  0.00    +0.000 C 
ATOM     19  N   UNL     1       8.903   9.759  18.463  0.00  0.00    +0.000 N 
ATOM     20  H   UNL     1       8.974   9.902  17.460  0.00  0.00    +0.000 HD
BRANCH  18  21
ATOM     21  C   UNL     1       9.900  11.979  18.544  0.00  0.00    +0.000 A 
ATOM     22  C   UNL     1      10.974  11.844  17.671  0.00  0.00    +0.000 A 
ATOM     23  C   UNL     1      11.422  12.974  16.996  0.00  0.00    +0.000 A 
ATOM     24  C   UNL     1      10.787  14.192  17.212  0.00  0.00    +0.000 A 
ATOM     25  C   UNL     1       9.721  14.233  18.102  0.00  0.00    +0.000 A 
ATOM     26  N   UNL     1       9.255  13.158  18.778  0.00  0.00    +0.000 NA
ENDBRANCH  18  21
ENDBRANCH  16  19
ENDBRANCH  15  16
ENDBRANCH   1  15
TORSDOF 6
ENDMDL
MODEL 9
REMARK VINA RESULT:      -7.6      0.955      1.022
REMARK  Name = 
REMARK  6 active torsions:
REMARK  status: ('A' for Active; 'I' for Inactive)
REMARK    1  A    between atoms: C_2  and  C_20
REMARK    2  A    between atoms: N_3  and  C_4
REMARK    3  A    between atoms: C_4  and  C_5
REMARK    4  A    between atoms: C_5  and  C_6
REMARK    5  A    between atoms: C_6  and  N_7
REMARK    6  A    between atoms: N_10  and  C_11
REMARK                            x       y       z     vdW  Elec       q    Type
REMARK                         _______ _______ _______ _____ _____    ______ ____
ROOT
ATOM      1  C   UNL     1       6.933   7.704  17.844  0.00  0.00    +0.000 C 
ENDROOT
BRANCH   1   2
ATOM      2  N   UNL     1       6.926   6.301  17.402  0.00  0.00    +0.000 NA
ATOM      3  C   UNL     1       6.784   5.331  18.508  0.00  0.00    +0.000 C 
ATOM      4  C   UNL     1       5.395   5.282  19.184  0.00  0.00    +0.000 C 
ATOM      5  N   UNL     1       4.343   5.057  18.182  0.00  0.00    +0.000 N 
ATOM      6  C   UNL     1       4.391   5.977  17.029  0.00  0.00    +0.000 C 
ATOM      7  C   UNL     1       5.826   6.047  16.435  0.00  0.00    +0.000 C 
BRANCH   5   8
ATOM      8  C   UNL     1       3.211   4.292  18.456  0.00  0.00    +0.000 A 
ATOM      9  C   UNL     1       3.091   3.030  17.833  0.00  0.00    +0.000 A 
ATOM     10  C   UNL     1       2.055   2.131  18.124  0.00  0.00    +0.000 A 
ATOM     11  C   UNL     1       1.098   2.459  19.070  0.00  0.00    +0.000 A 
ATOM     12  C   UNL     1       1.158   3.701  19.691  0.00  0.00    +0.000 A 
ATOM     13  C   UNL     1       2.182   4.615  19.377  0.00  0.00    +0.000 A 
ATOM     14 CL   UNL     1       2.007   6.170  20.133  0.00  0.00    +0.000 Cl
ENDBRANCH   5   8
ENDBRANCH   1   2
BRANCH   1  15
ATOM     15  C   UNL     1       8.239   8.470  17.583  0.00  0.00    +0.000 C 
BRANCH  15  16
ATOM     16  C   UNL     1       8.698   9.334  18.757  0.00  0.00    +0.000 C 
BRANCH  16  19
ATOM     17  O   UNL     1       9.603  11.490  20.370  0.00  0.00    +0.000 OA
ATOM     18  C   UNL     1       9.773  11.532  19.155  0.00  0.00    +0.000 C 
ATOM     19  N   UNL     1       9.324  10.560  18.289  0.00  0.00    +0.000 N 
ATOM     20  H   UNL     1       9.579  10.670  17.312  0.00  0.00    +0.000 HD
BRANCH  18  21
ATOM     21  C   UNL     1      10.523  12.668  18.523  0.00  0.00    +0.000 A 
ATOM     22  C   UNL     1      10.587  13.888  19.186  0.00  0.00    +0.000 A 
ATOM     23  C   UNL     1      11.302  14.924  18.597  0.00  0.00    +0.000 A 
ATOM     24  C   UNL     1      11.925  14.708  17.372  0.00  0.00    +0.000 A 
ATOM     25  C   UNL     1      11.808  13.456  16.781  0.00  0.00    +0.000 A 
ATOM     26  N   UNL     1      11.123  12.424  17.322  0.00  0.00    +0.000 NA
ENDBRANCH  18  21
ENDBRANCH  16  19
ENDBRANCH  15  16
ENDBRANCH   1  15
TORSDOF 6
ENDMDL
