MODEL 1
REMARK VINA RESULT:      -7.5      0.000      0.000
REMARK  Name = 
REMARK  10 active torsions:
REMARK  status: ('A' for Active; 'I' for Inactive)
REMARK    1  A    between atoms: C_1  and  C_2
REMARK    2  A    between atoms: C_2  and  C_3
REMARK    3  A    between atoms: C_3  and  C_4
REMARK    4  A    between atoms: C_4  and  N_5
REMARK    5  A    between atoms: N_8  and  N_9
REMARK    6  A    between atoms: C_10  and  C_12
REMARK    7  A    between atoms: C_12  and  O_13
REMARK    8  A    between atoms: O_13  and  C_14
REMARK    9  A    between atoms: C_18  and  C_19
REMARK   10  A    between atoms: C_20  and  C_21
REMARK                            x       y       z     vdW  Elec       q    Type
REMARK                         _______ _______ _______ _____ _____    ______ ____
ROOT
ATOM      1  N   UNL     1       7.278   6.350  17.657  0.00  0.00    +0.000 N 
ATOM      2  C   UNL     1       7.167   5.538  18.768  0.00  0.00    +0.000 C 
ATOM      3  O   UNL     1       8.189   5.028  19.230  0.00  0.00    +0.000 OA
ATOM      4  H   UNL     1       8.189   6.346  17.206  0.00  0.00    +0.000 HD
ENDROOT
BRANCH   1   8
ATOM      5  N   UNL     1       6.542   5.233  15.306  0.00  0.00    +0.000 N 
ATOM      6  C   UNL     1       5.856   6.346  15.662  0.00  0.00    +0.000 C 
ATOM      7  O   UNL     1       5.088   6.955  14.926  0.00  0.00    +0.000 OA
ATOM      8  N   UNL     1       6.196   6.833  16.905  0.00  0.00    +0.000 N 
ATOM      9  H   UNL     1       6.998   4.742  16.059  0.00  0.00    +0.000 HD
ATOM     10  H   UNL     1       5.781   7.721  17.171  0.00  0.00    +0.000 HD
BRANCH   5  11
ATOM     11  C   UNL     1       6.722   4.776  13.941  0.00  0.00    +0.000 C 
BRANCH  11  12
ATOM     12  C   UNL     1       5.693   3.699  13.634  0.00  0.00    +0.000 C 
BRANCH  12  14
ATOM     13  C   UNL     1       4.475   3.200  11.476  0.00  0.00    +0.000 C 
ATOM     14  C   UNL     1       5.813   3.299  12.163  0.00  0.00    +0.000 C 
ENDBRANCH  12  14
ENDBRANCH  11  12
ENDBRANCH   5  11
ENDBRANCH   1   8
BRANCH   2  15
ATOM     15  C   UNL     1       5.800   5.393  19.438  0.00  0.00    +0.000 C 
BRANCH  15  16
ATOM     16  O   UNL     1       4.782   5.013  18.550  0.00  0.00    +0.000 OA
BRANCH  16  17
ATOM     17  C   UNL     1       3.518   4.895  19.052  0.00  0.00    +0.000 A 
ATOM     18  C   UNL     1       2.977   5.688  20.069  0.00  0.00    +0.000 A 
ATOM     19  C   UNL     1       1.737   5.368  20.610  0.00  0.00    +0.000 A 
ATOM     20  C   UNL     1       1.059   4.232  20.158  0.00  0.00    +0.000 A 
ATOM     21  C   UNL     1       1.580   3.443  19.120  0.00  0.00    +0.000 A 
ATOM     22  C   UNL     1       0.856   2.203  18.704  0.00  0.00    +0.000 C 
ATOM     23  C   UNL     1       2.805   3.806  18.528  0.00  0.00    +0.000 A 
ATOM     24  C   UNL     1       3.372   3.096  17.321  0.00  0.00    +0.000 C 
ENDBRANCH  16  17
ENDBRANCH  15  16
ENDBRANCH   2  15
TORSDOF 7
ENDMDL
MODEL 2
REMARK VINA RESULT:      -7.4      1.101      1.206
REMARK  Name = 
REMARK  10 active torsions:
REMARK  status: ('A' for Active; 'I' for Inactive)
REMARK    1  A    between atoms: C_1  and  C_2
REMARK    2  A    between atoms: C_2  and  C_3
REMARK    3  A    between atoms: C_3  and  C_4
REMARK    4  A    between atoms: C_4  and  N_5
REMARK    5  A    between atoms: N_8  and  N_9
REMARK    6  A    between atoms: C_10  and  C_12
REMARK    7  A    between atoms: C_12  and  O_13
REMARK    8  A    between atoms: O_13  and  C_14
REMARK    9  A    between atoms: C_18  and  C_19
REMARK   10  A    between atoms: C_20  and  C_21
REMARK                            x       y       z     vdW  Elec       q    Type
REMARK                         _______ _______ _______ _____ _____    ______ ____
ROOT
ATOM      1  N   UNL     1       7.665   5.877  17.177  0.00  0.00    +0.000 N 
ATOM      2  C   UNL     1       7.550   5.120  18.325  0.00  0.00    +0.000 C 
ATOM      3  O   UNL     1       8.462   4.343  18.612  0.00  0.00    +0.000 OA
ATOM      4  H   UNL     1       8.435   5.624  16.564  0.00  0.00    +0.000 HD
ENDROOT
BRANCH   1   8
ATOM      5  N   UNL     1       5.812   4.819  15.514  0.00  0.00    +0.000 N 
ATOM      6  C   UNL     1       5.732   6.159  15.697  0.00  0.00    +0.000 C 
ATOM      7  O   UNL     1       5.024   6.910  15.036  0.00  0.00    +0.000 OA
ATOM      8  N   UNL     1       6.633   6.648  16.618  0.00  0.00    +0.000 N 
ATOM      9  H   UNL     1       6.297   4.308  16.235  0.00  0.00    +0.000 HD
ATOM     10  H   UNL     1       6.677   7.658  16.713  0.00  0.00    +0.000 HD
BRANCH   5  11
ATOM     11  C   UNL     1       5.331   4.116  14.340  0.00  0.00    +0.000 C 
BRANCH  11  12
ATOM     12  C   UNL     1       6.440   4.060  13.300  0.00  0.00    +0.000 C 
BRANCH  12  14
ATOM     13  C   UNL     1       4.633   3.353  11.680  0.00  0.00    +0.000 C 
ATOM     14  C   UNL     1       6.030   3.096  12.186  0.00  0.00    +0.000 C 
ENDBRANCH  12  14
ENDBRANCH  11  12
ENDBRANCH   5  11
ENDBRANCH   1   8
BRANCH   2  15
ATOM     15  C   UNL     1       6.351   5.356  19.245  0.00  0.00    +0.000 C 
BRANCH  15  16
ATOM     16  O   UNL     1       5.468   4.266  19.298  0.00  0.00    +0.000 OA
BRANCH  16  17
ATOM     17  C   UNL     1       4.209   4.449  18.803  0.00  0.00    +0.000 A 
ATOM     18  C   UNL     1       3.680   5.672  18.376  0.00  0.00    +0.000 A 
ATOM     19  C   UNL     1       2.332   5.764  18.046  0.00  0.00    +0.000 A 
ATOM     20  C   UNL     1       1.510   4.642  18.181  0.00  0.00    +0.000 A 
ATOM     21  C   UNL     1       2.035   3.404  18.584  0.00  0.00    +0.000 A 
ATOM     22  C   UNL     1       1.114   2.241  18.774  0.00  0.00    +0.000 C 
ATOM     23  C   UNL     1       3.412   3.295  18.855  0.00  0.00    +0.000 A 
ATOM     24  C   UNL     1       4.084   1.978  19.163  0.00  0.00    +0.000 C 
ENDBRANCH  16  17
ENDBRANCH  15  16
ENDBRANCH   2  15
TORSDOF 7
ENDMDL
MODEL 3
REMARK VINA RESULT:      -7.3      1.418      1.468
REMARK  Name = 
REMARK  10 active torsions:
REMARK  status: ('A' for Active; 'I' for Inactive)
REMARK    1  A    between atoms: C_1  and  C_2
REMARK    2  A    between atoms: C_2  and  C_3
REMARK    3  A    between atoms: C_3  and  C_4
REMARK    4  A    between atoms: C_4  and  N_5
REMARK    5  A    between atoms: N_8  and  N_9
REMARK    6  A    between atoms: C_10  and  C_12
REMARK    7  A    between atoms: C_12  and  O_13
REMARK    8  A    between atoms: O_13  and  C_14
REMARK    9  A    between atoms: C_18  and  C_19
REMARK   10  A    between atoms: C_20  and  C_21
REMARK                            x       y       z     vdW  Elec       q    Type
REMARK                         _______ _______ _______ _____ _____    ______ ____
ROOT
ATOM      1  N   UNL     1       7.136   4.329  18.001  0.00  0.00    +0.000 N 
ATOM      2  C   UNL     1       5.973   4.526  18.717  0.00  0.00    +0.000 C 
ATOM      3  O   UNL     1       5.630   3.669  19.533  0.00  0.00    +0.000 OA
ATOM      4  H   UNL     1       7.551   3.405  18.092  0.00  0.00    +0.000 HD
ENDROOT
BRANCH   1   8
ATOM      5  N   UNL     1       6.187   3.918  15.502  0.00  0.00    +0.000 N 
ATOM      6  C   UNL     1       7.152   4.862  15.609  0.00  0.00    +0.000 C 
ATOM      7  O   UNL     1       7.727   5.381  14.659  0.00  0.00    +0.000 OA
ATOM      8  N   UNL     1       7.546   5.107  16.907  0.00  0.00    +0.000 N 
ATOM      9  H   UNL     1       5.684   3.708  16.349  0.00  0.00    +0.000 HD
ATOM     10  H   UNL     1       8.336   5.733  17.028  0.00  0.00    +0.000 HD
BRANCH   5  11
ATOM     11  C   UNL     1       5.906   3.158  14.298  0.00  0.00    +0.000 C 
BRANCH  11  12
ATOM     12  C   UNL     1       5.508   4.114  13.184  0.00  0.00    +0.000 C 
BRANCH  12  14
ATOM     13  C   UNL     1       4.073   3.231  11.299  0.00  0.00    +0.000 C 
ATOM     14  C   UNL     1       5.468   3.349  11.860  0.00  0.00    +0.000 C 
ENDBRANCH  12  14
ENDBRANCH  11  12
ENDBRANCH   5  11
ENDBRANCH   1   8
BRANCH   2  15
ATOM     15  C   UNL     1       5.219   5.846  18.546  0.00  0.00    +0.000 C 
BRANCH  15  16
ATOM     16  O   UNL     1       3.965   5.696  17.934  0.00  0.00    +0.000 OA
BRANCH  16  17
ATOM     17  C   UNL     1       2.905   5.383  18.735  0.00  0.00    +0.000 A 
ATOM     18  C   UNL     1       2.527   6.086  19.884  0.00  0.00    +0.000 A 
ATOM     19  C   UNL     1       1.532   5.577  20.710  0.00  0.00    +0.000 A 
ATOM     20  C   UNL     1       0.945   4.346  20.405  0.00  0.00    +0.000 A 
ATOM     21  C   UNL     1       1.297   3.644  19.242  0.00  0.00    +0.000 A 
ATOM     22  C   UNL     1       0.691   2.302  18.979  0.00  0.00    +0.000 C 
ATOM     23  C   UNL     1       2.259   4.192  18.371  0.00  0.00    +0.000 A 
ATOM     24  C   UNL     1       2.601   3.574  17.036  0.00  0.00    +0.000 C 
ENDBRANCH  16  17
ENDBRANCH  15  16
ENDBRANCH   2  15
TORSDOF 7
ENDMDL
MODEL 4
REMARK VINA RESULT:      -7.2      1.274      1.432
REMARK  Name = 
REMARK  10 active torsions:
REMARK  status: ('A' for Active; 'I' for Inactive)
REMARK    1  A    between atoms: C_1  and  C_2
REMARK    2  A    between atoms: C_2  and  C_3
REMARK    3  A    between atoms: C_3  and  C_4
REMARK    4  A    between atoms: C_4  and  N_5
REMARK    5  A    between atoms: N_8  and  N_9
REMARK    6  A    between atoms: C_10  and  C_12
REMARK    7  A    between atoms: C_12  and  O_13
REMARK    8  A    between atoms: O_13  and  C_14
REMARK    9  A    between atoms: C_18  and  C_19
REMARK   10  A    between atoms: C_20  and  C_21
REMARK                            x       y       z     vdW  Elec       q    Type
REMARK                         _______ _______ _______ _____ _____    ______ ____
ROOT
ATOM      1  N   UNL     1       7.611   5.765  16.983  0.00  0.00    +0.000 N 
ATOM      2  C   UNL     1       7.517   4.888  18.045  0.00  0.00    +0.000 C 
ATOM      3  O   UNL     1       8.443   4.100  18.242  0.00  0.00    +0.000 OA
ATOM      4  H   UNL     1       8.380   5.589  16.341  0.00  0.00    +0.000 HD
ENDROOT
BRANCH   1   8
ATOM      5  N   UNL     1       5.708   4.833  15.302  0.00  0.00    +0.000 N 
ATOM      6  C   UNL     1       5.635   6.156  15.588  0.00  0.00    +0.000 C 
ATOM      7  O   UNL     1       4.907   6.954  15.009  0.00  0.00    +0.000 OA
ATOM      8  N   UNL     1       6.564   6.574  16.516  0.00  0.00    +0.000 N 
ATOM      9  H   UNL     1       6.214   4.269  15.966  0.00  0.00    +0.000 HD
ATOM     10  H   UNL     1       6.612   7.574  16.686  0.00  0.00    +0.000 HD
BRANCH   5  11
ATOM     11  C   UNL     1       5.190   4.221  14.092  0.00  0.00    +0.000 C 
BRANCH  11  12
ATOM     12  C   UNL     1       6.351   3.850  13.182  0.00  0.00    +0.000 C 
BRANCH  12  14
ATOM     13  C   UNL     1       6.911   2.174  11.375  0.00  0.00    +0.000 C 
ATOM     14  C   UNL     1       5.827   2.992  12.030  0.00  0.00    +0.000 C 
ENDBRANCH  12  14
ENDBRANCH  11  12
ENDBRANCH   5  11
ENDBRANCH   1   8
BRANCH   2  15
ATOM     15  C   UNL     1       6.323   5.008  18.993  0.00  0.00    +0.000 C 
BRANCH  15  16
ATOM     16  O   UNL     1       5.162   4.387  18.505  0.00  0.00    +0.000 OA
BRANCH  16  17
ATOM     17  C   UNL     1       3.975   4.722  19.091  0.00  0.00    +0.000 A 
ATOM     18  C   UNL     1       3.399   5.997  19.077  0.00  0.00    +0.000 A 
ATOM     19  C   UNL     1       2.270   6.254  19.847  0.00  0.00    +0.000 A 
ATOM     20  C   UNL     1       1.744   5.245  20.659  0.00  0.00    +0.000 A 
ATOM     21  C   UNL     1       2.297   3.955  20.661  0.00  0.00    +0.000 A 
ATOM     22  C   UNL     1       1.743   2.918  21.585  0.00  0.00    +0.000 C 
ATOM     23  C   UNL     1       3.400   3.677  19.831  0.00  0.00    +0.000 A 
ATOM     24  C   UNL     1       3.974   2.289  19.670  0.00  0.00    +0.000 C 
ENDBRANCH  16  17
ENDBRANCH  15  16
ENDBRANCH   2  15
TORSDOF 7
ENDMDL
MODEL 5
REMARK VINA RESULT:      -7.2      2.652      5.292
REMARK  Name = 
REMARK  10 active torsions:
REMARK  status: ('A' for Active; 'I' for Inactive)
REMARK    1  A    between atoms: C_1  and  C_2
REMARK    2  A    between atoms: C_2  and  C_3
REMARK    3  A    between atoms: C_3  and  C_4
REMARK    4  A    between atoms: C_4  and  N_5
REMARK    5  A    between atoms: N_8  and  N_9
REMARK    6  A    between atoms: C_10  and  C_12
REMARK    7  A    between atoms: C_12  and  O_13
REMARK    8  A    between atoms: O_13  and  C_14
REMARK    9  A    between atoms: C_18  and  C_19
REMARK   10  A    between atoms: C_20  and  C_21
REMARK                            x       y       z     vdW  Elec       q    Type
REMARK                         _______ _______ _______ _____ _____    ______ ____
ROOT
ATOM      1  N   UNL     1       5.445   4.713  16.629  0.00  0.00    +0.000 N 
ATOM      2  C   UNL     1       5.169   6.037  16.353  0.00  0.00    +0.000 C 
ATOM      3  O   UNL     1       5.221   6.418  15.182  0.00  0.00    +0.000 OA
ATOM      4  H   UNL     1       5.823   4.177  15.853  0.00  0.00    +0.000 HD
ENDROOT
BRANCH   1   8
ATOM      5  N   UNL     1       3.809   2.813  17.643  0.00  0.00    +0.000 N 
ATOM      6  C   UNL     1       4.752   3.284  18.495  0.00  0.00    +0.000 C 
ATOM      7  O   UNL     1       4.783   3.049  19.697  0.00  0.00    +0.000 OA
ATOM      8  N   UNL     1       5.621   4.183  17.917  0.00  0.00    +0.000 N 
ATOM      9  H   UNL     1       4.002   2.942  16.663  0.00  0.00    +0.000 HD
ATOM     10  H   UNL     1       6.281   4.637  18.541  0.00  0.00    +0.000 HD
BRANCH   5  11
ATOM     11  C   UNL     1       2.543   2.232  18.052  0.00  0.00    +0.000 C 
BRANCH  11  12
ATOM     12  C   UNL     1       1.579   3.347  18.427  0.00  0.00    +0.000 C 
BRANCH  12  14
ATOM     13  C   UNL     1       1.361   2.777  20.881  0.00  0.00    +0.000 C 
ATOM     14  C   UNL     1       0.661   2.855  19.548  0.00  0.00    +0.000 C 
ENDBRANCH  12  14
ENDBRANCH  11  12
ENDBRANCH   5  11
ENDBRANCH   1   8
BRANCH   2  15
ATOM     15  C   UNL     1       4.708   6.945  17.494  0.00  0.00    +0.000 C 
BRANCH  15  16
ATOM     16  O   UNL     1       3.483   6.554  18.057  0.00  0.00    +0.000 OA
BRANCH  16  17
ATOM     17  C   UNL     1       2.599   7.539  18.392  0.00  0.00    +0.000 A 
ATOM     18  C   UNL     1       2.275   8.639  17.590  0.00  0.00    +0.000 A 
ATOM     19  C   UNL     1       1.487   9.661  18.107  0.00  0.00    +0.000 A 
ATOM     20  C   UNL     1       1.058   9.599  19.435  0.00  0.00    +0.000 A 
ATOM     21  C   UNL     1       1.356   8.489  20.241  0.00  0.00    +0.000 A 
ATOM     22  C   UNL     1       0.930   8.484  21.674  0.00  0.00    +0.000 C 
ATOM     23  C   UNL     1       2.099   7.423  19.697  0.00  0.00    +0.000 A 
ATOM     24  C   UNL     1       2.350   6.135  20.446  0.00  0.00    +0.000 C 
ENDBRANCH  16  17
ENDBRANCH  15  16
ENDBRANCH   2  15
TORSDOF 7
ENDMDL
MODEL 6
REMARK VINA RESULT:      -7.1      1.582      1.896
REMARK  Name = 
REMARK  10 active torsions:
REMARK  status: ('A' for Active; 'I' for Inactive)
REMARK    1  A    between atoms: C_1  and  C_2
REMARK    2  A    between atoms: C_2  and  C_3
REMARK    3  A    between atoms: C_3  and  C_4
REMARK    4  A    between atoms: C_4  and  N_5
REMARK    5  A    between atoms: N_8  and  N_9
REMARK    6  A    between atoms: C_10  and  C_12
REMARK    7  A    between atoms: C_12  and  O_13
REMARK    8  A    between atoms: O_13  and  C_14
REMARK    9  A    between atoms: C_18  and  C_19
REMARK   10  A    between atoms: C_20  and  C_21
REMARK                            x       y       z     vdW  Elec       q    Type
REMARK                         _______ _______ _______ _____ _____    ______ ____
ROOT
ATOM      1  N   UNL     1       7.279   4.545  16.589  0.00  0.00    +0.000 N 
ATOM      2  C   UNL     1       6.169   4.648  17.403  0.00  0.00    +0.000 C 
ATOM      3  O   UNL     1       5.960   3.759  18.230  0.00  0.00    +0.000 OA
ATOM      4  H   UNL     1       7.766   3.653  16.629  0.00  0.00    +0.000 HD
ENDROOT
BRANCH   1   8
ATOM      5  N   UNL     1       6.485   3.877  14.091  0.00  0.00    +0.000 N 
ATOM      6  C   UNL     1       7.229   5.006  14.183  0.00  0.00    +0.000 C 
ATOM      7  O   UNL     1       7.700   5.609  13.226  0.00  0.00    +0.000 OA
ATOM      8  N   UNL     1       7.537   5.363  15.478  0.00  0.00    +0.000 N 
ATOM      9  H   UNL     1       6.021   3.589  14.938  0.00  0.00    +0.000 HD
ATOM     10  H   UNL     1       8.176   6.144  15.590  0.00  0.00    +0.000 HD
BRANCH   5  11
ATOM     11  C   UNL     1       6.392   3.044  12.906  0.00  0.00    +0.000 C 
BRANCH  11  12
ATOM     12  C   UNL     1       5.611   3.785  11.833  0.00  0.00    +0.000 C 
BRANCH  12  14
ATOM     13  C   UNL     1       3.495   3.581  10.464  0.00  0.00    +0.000 C 
ATOM     14  C   UNL     1       4.209   3.182  11.732  0.00  0.00    +0.000 C 
ENDBRANCH  12  14
ENDBRANCH  11  12
ENDBRANCH   5  11
ENDBRANCH   1   8
BRANCH   2  15
ATOM     15  C   UNL     1       5.310   5.910  17.317  0.00  0.00    +0.000 C 
BRANCH  15  16
ATOM     16  O   UNL     1       3.953   5.644  17.077  0.00  0.00    +0.000 OA
BRANCH  16  17
ATOM     17  C   UNL     1       3.102   5.694  18.143  0.00  0.00    +0.000 A 
ATOM     18  C   UNL     1       2.964   6.779  19.015  0.00  0.00    +0.000 A 
ATOM     19  C   UNL     1       2.186   6.650  20.161  0.00  0.00    +0.000 A 
ATOM     20  C   UNL     1       1.580   5.424  20.450  0.00  0.00    +0.000 A 
ATOM     21  C   UNL     1       1.690   4.337  19.569  0.00  0.00    +0.000 A 
ATOM     22  C   UNL     1       1.078   3.024  19.941  0.00  0.00    +0.000 C 
ATOM     23  C   UNL     1       2.424   4.487  18.377  0.00  0.00    +0.000 A 
ATOM     24  C   UNL     1       2.484   3.418  17.312  0.00  0.00    +0.000 C 
ENDBRANCH  16  17
ENDBRANCH  15  16
ENDBRANCH   2  15
TORSDOF 7
ENDMDL
MODEL 7
REMARK VINA RESULT:      -7.1      2.325      3.467
REMARK  Name = 
REMARK  10 active torsions:
REMARK  status: ('A' for Active; 'I' for Inactive)
REMARK    1  A    between atoms: C_1  and  C_2
REMARK    2  A    between atoms: C_2  and  C_3
REMARK    3  A    between atoms: C_3  and  C_4
REMARK    4  A    between atoms: C_4  and  N_5
REMARK    5  A    between atoms: N_8  and  N_9
REMARK    6  A    between atoms: C_10  and  C_12
REMARK    7  A    between atoms: C_12  and  O_13
REMARK    8  A    between atoms: O_13  and  C_14
REMARK    9  A    between atoms: C_18  and  C_19
REMARK   10  A    between atoms: C_20  and  C_21
REMARK                            x       y       z     vdW  Elec       q    Type
REMARK                         _______ _______ _______ _____ _____    ______ ____
ROOT
ATOM      1  N   UNL     1       6.018   3.710  16.795  0.00  0.00    +0.000 N 
ATOM      2  C   UNL     1       4.679   3.850  17.099  0.00  0.00    +0.000 C 
ATOM      3  O   UNL     1       4.035   2.844  17.402  0.00  0.00    +0.000 OA
ATOM      4  H   UNL     1       6.343   2.752  16.695  0.00  0.00    +0.000 HD
ENDROOT
BRANCH   1   8
ATOM      5  N   UNL     1       6.271   4.055  14.125  0.00  0.00    +0.000 N 
ATOM      6  C   UNL     1       7.047   4.859  14.892  0.00  0.00    +0.000 C 
ATOM      7  O   UNL     1       7.951   5.567  14.464  0.00  0.00    +0.000 OA
ATOM      8  N   UNL     1       6.824   4.718  16.244  0.00  0.00    +0.000 N 
ATOM      9  H   UNL     1       5.461   3.666  14.580  0.00  0.00    +0.000 HD
ATOM     10  H   UNL     1       7.452   5.226  16.859  0.00  0.00    +0.000 HD
BRANCH   5  11
ATOM     11  C   UNL     1       6.579   3.669  12.760  0.00  0.00    +0.000 C 
BRANCH  11  12
ATOM     12  C   UNL     1       5.319   3.138  12.093  0.00  0.00    +0.000 C 
BRANCH  12  14
ATOM     13  C   UNL     1       7.109   1.704  11.030  0.00  0.00    +0.000 C 
ATOM     14  C   UNL     1       5.648   1.825  11.382  0.00  0.00    +0.000 C 
ENDBRANCH  12  14
ENDBRANCH  11  12
ENDBRANCH   5  11
ENDBRANCH   1   8
BRANCH   2  15
ATOM     15  C   UNL     1       4.080   5.256  17.151  0.00  0.00    +0.000 C 
BRANCH  15  16
ATOM     16  O   UNL     1       3.675   5.641  18.439  0.00  0.00    +0.000 OA
BRANCH  16  17
ATOM     17  C   UNL     1       2.907   6.764  18.550  0.00  0.00    +0.000 A 
ATOM     18  C   UNL     1       2.881   7.818  17.630  0.00  0.00    +0.000 A 
ATOM     19  C   UNL     1       2.184   8.982  17.932  0.00  0.00    +0.000 A 
ATOM     20  C   UNL     1       1.546   9.103  19.169  0.00  0.00    +0.000 A 
ATOM     21  C   UNL     1       1.543   8.043  20.089  0.00  0.00    +0.000 A 
ATOM     22  C   UNL     1       0.900   8.231  21.427  0.00  0.00    +0.000 C 
ATOM     23  C   UNL     1       2.194   6.840  19.756  0.00  0.00    +0.000 A 
ATOM     24  C   UNL     1       2.128   5.606  20.625  0.00  0.00    +0.000 C 
ENDBRANCH  16  17
ENDBRANCH  15  16
ENDBRANCH   2  15
TORSDOF 7
ENDMDL
MODEL 8
REMARK VINA RESULT:      -7.1      1.194      1.528
REMARK  Name = 
REMARK  10 active torsions:
REMARK  status: ('A' for Active; 'I' for Inactive)
REMARK    1  A    between atoms: C_1  and  C_2
REMARK    2  A    between atoms: C_2  and  C_3
REMARK    3  A    between atoms: C_3  and  C_4
REMARK    4  A    between atoms: C_4  and  N_5
REMARK    5  A    between atoms: N_8  and  N_9
REMARK    6  A    between atoms: C_10  and  C_12
REMARK    7  A    between atoms: C_12  and  O_13
REMARK    8  A    between atoms: O_13  and  C_14
REMARK    9  A    between atoms: C_18  and  C_19
REMARK   10  A    between atoms: C_20  and  C_21
REMARK                            x       y       z     vdW  Elec       q    Type
REMARK                         _______ _______ _______ _____ _____    ______ ____
ROOT
ATOM      1  N   UNL     1       7.253   6.674  17.960  0.00  0.00    +0.000 N 
ATOM      2  C   UNL     1       7.214   5.695  18.932  0.00  0.00    +0.000 C 
ATOM      3  O   UNL     1       8.273   5.337  19.450  0.00  0.00    +0.000 OA
ATOM      4  H   UNL     1       8.182   6.923  17.630  0.00  0.00    +0.000 HD
ENDROOT
BRANCH   1   8
ATOM      5  N   UNL     1       6.610   5.309  15.715  0.00  0.00    +0.000 N 
ATOM      6  C   UNL     1       5.874   6.422  15.950  0.00  0.00    +0.000 C 
ATOM      7  O   UNL     1       5.099   6.927  15.145  0.00  0.00    +0.000 OA
ATOM      8  N   UNL     1       6.169   7.039  17.146  0.00  0.00    +0.000 N 
ATOM      9  H   UNL     1       7.068   4.910  16.519  0.00  0.00    +0.000 HD
ATOM     10  H   UNL     1       5.714   7.931  17.317  0.00  0.00    +0.000 HD
BRANCH   5  11
ATOM     11  C   UNL     1       6.836   4.730  14.404  0.00  0.00    +0.000 C 
BRANCH  11  12
ATOM     12  C   UNL     1       5.537   4.127  13.892  0.00  0.00    +0.000 C 
BRANCH  12  14
ATOM     13  C   UNL     1       7.015   3.887  11.854  0.00  0.00    +0.000 C 
ATOM     14  C   UNL     1       5.822   3.351  12.605  0.00  0.00    +0.000 C 
ENDBRANCH  12  14
ENDBRANCH  11  12
ENDBRANCH   5  11
ENDBRANCH   1   8
BRANCH   2  15
ATOM     15  C   UNL     1       5.853   5.177  19.399  0.00  0.00    +0.000 C 
BRANCH  15  16
ATOM     16  O   UNL     1       5.392   4.078  18.659  0.00  0.00    +0.000 OA
BRANCH  16  17
ATOM     17  C   UNL     1       4.042   3.941  18.506  0.00  0.00    +0.000 A 
ATOM     18  C   UNL     1       3.268   4.599  17.544  0.00  0.00    +0.000 A 
ATOM     19  C   UNL     1       1.882   4.507  17.591  0.00  0.00    +0.000 A 
ATOM     20  C   UNL     1       1.272   3.789  18.624  0.00  0.00    +0.000 A 
ATOM     21  C   UNL     1       2.038   3.103  19.579  0.00  0.00    +0.000 A 
ATOM     22  C   UNL     1       1.352   2.395  20.703  0.00  0.00    +0.000 C 
ATOM     23  C   UNL     1       3.444   3.143  19.493  0.00  0.00    +0.000 A 
ATOM     24  C   UNL     1       4.342   2.330  20.394  0.00  0.00    +0.000 C 
ENDBRANCH  16  17
ENDBRANCH  15  16
ENDBRANCH   2  15
TORSDOF 7
ENDMDL
MODEL 9
REMARK VINA RESULT:      -7.1      2.577      4.618
REMARK  Name = 
REMARK  10 active torsions:
REMARK  status: ('A' for Active; 'I' for Inactive)
REMARK    1  A    between atoms: C_1  and  C_2
REMARK    2  A    between atoms: C_2  and  C_3
REMARK    3  A    between atoms: C_3  and  C_4
REMARK    4  A    between atoms: C_4  and  N_5
REMARK    5  A    between atoms: N_8  and  N_9
REMARK    6  A    between atoms: C_10  and  C_12
REMARK    7  A    between atoms: C_12  and  O_13
REMARK    8  A    between atoms: O_13  and  C_14
REMARK    9  A    between atoms: C_18  and  C_19
REMARK   10  A    between atoms: C_20  and  C_21
REMARK                            x       y       z     vdW  Elec       q    Type
REMARK                         _______ _______ _______ _____ _____    ______ ____
ROOT
ATOM      1  N   UNL     1       6.257   3.933  18.291  0.00  0.00    +0.000 N 
ATOM      2  C   UNL     1       5.112   3.241  18.630  0.00  0.00    +0.000 C 
ATOM      3  O   UNL     1       4.960   2.891  19.801  0.00  0.00    +0.000 OA
ATOM      4  H   UNL     1       6.972   3.971  19.013  0.00  0.00    +0.000 HD
ENDROOT
BRANCH   1   8
ATOM      5  N   UNL     1       7.363   6.305  17.606  0.00  0.00    +0.000 N 
ATOM      6  C   UNL     1       7.141   5.448  16.580  0.00  0.00    +0.000 C 
ATOM      7  O   UNL     1       7.231   5.745  15.394  0.00  0.00    +0.000 OA
ATOM      8  N   UNL     1       6.662   4.219  16.977  0.00  0.00    +0.000 N 
ATOM      9  H   UNL     1       7.422   5.885  18.520  0.00  0.00    +0.000 HD
ATOM     10  H   UNL     1       6.386   3.581  16.236  0.00  0.00    +0.000 HD
BRANCH   5  11
ATOM     11  C   UNL     1       7.431   7.748  17.476  0.00  0.00    +0.000 C 
BRANCH  11  12
ATOM     12  C   UNL     1       8.467   8.290  18.448  0.00  0.00    +0.000 C 
BRANCH  12  14
ATOM     13  C   UNL     1       9.360  10.478  19.346  0.00  0.00    +0.000 C 
ATOM     14  C   UNL     1       8.625   9.795  18.221  0.00  0.00    +0.000 C 
ENDBRANCH  12  14
ENDBRANCH  11  12
ENDBRANCH   5  11
ENDBRANCH   1   8
BRANCH   2  15
ATOM     15  C   UNL     1       4.035   3.034  17.563  0.00  0.00    +0.000 C 
BRANCH  15  16
ATOM     16  O   UNL     1       3.135   4.106  17.466  0.00  0.00    +0.000 OA
BRANCH  16  17
ATOM     17  C   UNL     1       2.547   4.542  18.619  0.00  0.00    +0.000 A 
ATOM     18  C   UNL     1       1.772   3.754  19.477  0.00  0.00    +0.000 A 
ATOM     19  C   UNL     1       1.089   4.348  20.532  0.00  0.00    +0.000 A 
ATOM     20  C   UNL     1       1.152   5.733  20.703  0.00  0.00    +0.000 A 
ATOM     21  C   UNL     1       1.947   6.531  19.864  0.00  0.00    +0.000 A 
ATOM     22  C   UNL     1       1.943   8.016  20.041  0.00  0.00    +0.000 C 
ATOM     23  C   UNL     1       2.690   5.921  18.835  0.00  0.00    +0.000 A 
ATOM     24  C   UNL     1       3.671   6.680  17.974  0.00  0.00    +0.000 C 
ENDBRANCH  16  17
ENDBRANCH  15  16
ENDBRANCH   2  15
TORSDOF 7
ENDMDL
