MODEL 1
REMARK VINA RESULT:      -7.5      0.000      0.000
REMARK  Name = 
REMARK  6 active torsions:
REMARK  status: ('A' for Active; 'I' for Inactive)
REMARK    1  A    between atoms: C_1  and  C_2
REMARK    2  A    between atoms: C_2  and  O_3
REMARK    3  A    between atoms: C_2  and  C_4
REMARK    4  A    between atoms: C_6  and  N_7
REMARK    5  A    between atoms: C_18  and  C_19
REMARK    6  A    between atoms: C_21  and  O_22
REMARK                            x       y       z     vdW  Elec       q    Type
REMARK                         _______ _______ _______ _____ _____    ______ ____
ROOT
ATOM      1  C   UNL     1       6.151   5.373  15.342  0.00  0.00    +0.000 C 
ATOM      2  O   UNL     1       4.816   5.754  15.730  0.00  0.00    +0.000 OA
ATOM      3  C   UNL     1       4.756   5.804  17.185  0.00  0.00    +0.000 C 
ATOM      4  C   UNL     1       6.181   5.553  17.687  0.00  0.00    +0.000 C 
ATOM      5  C   UNL     1       6.362   4.981  19.081  0.00  0.00    +0.000 C 
ATOM      6  F   UNL     1       6.849   6.761  17.674  0.00  0.00    +0.000 F 
ATOM      7  C   UNL     1       6.785   4.718  16.571  0.00  0.00    +0.000 C 
ENDROOT
BRANCH   3   8
ATOM      8  N   UNL     1       3.744   4.856  17.633  0.00  0.00    +0.000 N 
ATOM      9  C   UNL     1       3.460   3.632  17.075  0.00  0.00    +0.000 A 
ATOM     10  C   UNL     1       2.455   3.074  17.821  0.00  0.00    +0.000 A 
ATOM     11  F   UNL     1       1.914   1.910  17.593  0.00  0.00    +0.000 F 
ATOM     12  C   UNL     1       2.090   3.954  18.856  0.00  0.00    +0.000 A 
ATOM     13  C   UNL     1       1.181   3.963  19.919  0.00  0.00    +0.000 A 
ATOM     14  N   UNL     1       0.333   2.909  20.214  0.00  0.00    +0.000 N 
ATOM     15  N   UNL     1       1.121   5.053  20.709  0.00  0.00    +0.000 NA
ATOM     16  C   UNL     1       1.954   6.079  20.450  0.00  0.00    +0.000 A 
ATOM     17  N   UNL     1       2.880   6.175  19.477  0.00  0.00    +0.000 NA
ATOM     18  C   UNL     1       2.898   5.075  18.703  0.00  0.00    +0.000 A 
ATOM     19  H   UNL     1       0.108   2.293  19.444  0.00  0.00    +0.000 HD
ATOM     20  H   UNL     1      -0.425   3.187  20.825  0.00  0.00    +0.000 HD
ENDBRANCH   3   8
BRANCH   1  22
ATOM     21  C   UNL     1       7.202   4.842  13.085  0.00  0.00    +0.000 C 
ATOM     22  C   UNL     1       6.123   4.467  14.095  0.00  0.00    +0.000 C 
BRANCH  22  23
ATOM     23  O   UNL     1       6.291   3.093  14.437  0.00  0.00    +0.000 OA
ATOM     24  H   UNL     1       6.998   3.022  15.100  0.00  0.00    +0.000 HD
ENDBRANCH  22  23
ENDBRANCH   1  22
BRANCH   7  25
ATOM     25  O   UNL     1       8.209   4.788  16.568  0.00  0.00    +0.000 OA
ATOM     26  H   UNL     1       8.493   5.015  17.475  0.00  0.00    +0.000 HD
ENDBRANCH   7  25
TORSDOF 4
ENDMDL
MODEL 2
REMARK VINA RESULT:      -7.2      2.824      4.577
REMARK  Name = 
REMARK  6 active torsions:
REMARK  status: ('A' for Active; 'I' for Inactive)
REMARK    1  A    between atoms: C_1  and  C_2
REMARK    2  A    between atoms: C_2  and  O_3
REMARK    3  A    between atoms: C_2  and  C_4
REMARK    4  A    between atoms: C_6  and  N_7
REMARK    5  A    between atoms: C_18  and  C_19
REMARK    6  A    between atoms: C_21  and  O_22
REMARK                            x       y       z     vdW  Elec       q    Type
REMARK                         _______ _______ _______ _____ _____    ______ ____
ROOT
ATOM      1  C   UNL     1       5.387   4.665  18.764  0.00  0.00    +0.000 C 
ATOM      2  O   UNL     1       4.813   5.647  19.649  0.00  0.00    +0.000 OA
ATOM      3  C   UNL     1       3.363   5.532  19.586  0.00  0.00    +0.000 C 
ATOM      4  C   UNL     1       3.061   4.322  18.697  0.00  0.00    +0.000 C 
ATOM      5  C   UNL     1       1.726   4.273  17.978  0.00  0.00    +0.000 C 
ATOM      6  F   UNL     1       3.115   3.194  19.490  0.00  0.00    +0.000 F 
ATOM      7  C   UNL     1       4.278   4.265  17.788  0.00  0.00    +0.000 C 
ENDROOT
BRANCH   3   8
ATOM      8  N   UNL     1       2.822   6.808  19.135  0.00  0.00    +0.000 N 
ATOM      9  C   UNL     1       3.096   7.442  17.946  0.00  0.00    +0.000 A 
ATOM     10  C   UNL     1       2.362   8.600  17.931  0.00  0.00    +0.000 A 
ATOM     11  F   UNL     1       2.364   9.471  16.961  0.00  0.00    +0.000 F 
ATOM     12  C   UNL     1       1.623   8.707  19.122  0.00  0.00    +0.000 A 
ATOM     13  C   UNL     1       0.710   9.606  19.683  0.00  0.00    +0.000 A 
ATOM     14  N   UNL     1       0.271  10.754  19.045  0.00  0.00    +0.000 N 
ATOM     15  N   UNL     1       0.222   9.350  20.912  0.00  0.00    +0.000 NA
ATOM     16  C   UNL     1       0.621   8.225  21.538  0.00  0.00    +0.000 A 
ATOM     17  N   UNL     1       1.470   7.280  21.094  0.00  0.00    +0.000 NA
ATOM     18  C   UNL     1       1.946   7.581  19.871  0.00  0.00    +0.000 A 
ATOM     19  H   UNL     1       0.890  11.132  18.340  0.00  0.00    +0.000 HD
ATOM     20  H   UNL     1      -0.158  11.409  19.688  0.00  0.00    +0.000 HD
ENDBRANCH   3   8
BRANCH   1  22
ATOM     21  C   UNL     1       7.676   5.733  19.084  0.00  0.00    +0.000 C 
ATOM     22  C   UNL     1       6.653   5.216  18.078  0.00  0.00    +0.000 C 
BRANCH  22  23
ATOM     23  O   UNL     1       7.286   4.230  17.266  0.00  0.00    +0.000 OA
ATOM     24  H   UNL     1       8.175   4.545  17.030  0.00  0.00    +0.000 HD
ENDBRANCH  22  23
ENDBRANCH   1  22
BRANCH   7  25
ATOM     25  O   UNL     1       4.464   2.966  17.233  0.00  0.00    +0.000 OA
ATOM     26  H   UNL     1       4.603   3.074  16.272  0.00  0.00    +0.000 HD
ENDBRANCH   7  25
TORSDOF 4
ENDMDL
MODEL 3
REMARK VINA RESULT:      -7.2      1.529      2.260
REMARK  Name = 
REMARK  6 active torsions:
REMARK  status: ('A' for Active; 'I' for Inactive)
REMARK    1  A    between atoms: C_1  and  C_2
REMARK    2  A    between atoms: C_2  and  O_3
REMARK    3  A    between atoms: C_2  and  C_4
REMARK    4  A    between atoms: C_6  and  N_7
REMARK    5  A    between atoms: C_18  and  C_19
REMARK    6  A    between atoms: C_21  and  O_22
REMARK                            x       y       z     vdW  Elec       q    Type
REMARK                         _______ _______ _______ _____ _____    ______ ____
ROOT
ATOM      1  C   UNL     1       6.091   5.074  15.877  0.00  0.00    +0.000 C 
ATOM      2  O   UNL     1       4.989   5.921  16.260  0.00  0.00    +0.000 OA
ATOM      3  C   UNL     1       5.177   6.322  17.648  0.00  0.00    +0.000 C 
ATOM      4  C   UNL     1       6.540   5.774  18.078  0.00  0.00    +0.000 C 
ATOM      5  C   UNL     1       6.777   5.512  19.554  0.00  0.00    +0.000 C 
ATOM      6  F   UNL     1       7.501   6.684  17.686  0.00  0.00    +0.000 F 
ATOM      7  C   UNL     1       6.710   4.560  17.179  0.00  0.00    +0.000 C 
ENDROOT
BRANCH   3   8
ATOM      8  N   UNL     1       4.029   5.857  18.416  0.00  0.00    +0.000 N 
ATOM      9  C   UNL     1       3.270   6.600  19.290  0.00  0.00    +0.000 A 
ATOM     10  C   UNL     1       2.290   5.773  19.773  0.00  0.00    +0.000 A 
ATOM     11  F   UNL     1       1.377   6.123  20.635  0.00  0.00    +0.000 F 
ATOM     12  C   UNL     1       2.430   4.493  19.209  0.00  0.00    +0.000 A 
ATOM     13  C   UNL     1       1.766   3.264  19.280  0.00  0.00    +0.000 A 
ATOM     14  N   UNL     1       0.629   3.048  20.041  0.00  0.00    +0.000 N 
ATOM     15  N   UNL     1       2.248   2.226  18.570  0.00  0.00    +0.000 NA
ATOM     16  C   UNL     1       3.340   2.424  17.806  0.00  0.00    +0.000 A 
ATOM     17  N   UNL     1       4.047   3.558  17.641  0.00  0.00    +0.000 NA
ATOM     18  C   UNL     1       3.542   4.565  18.377  0.00  0.00    +0.000 A 
ATOM     19  H   UNL     1       0.501   3.668  20.830  0.00  0.00    +0.000 HD
ATOM     20  H   UNL     1       0.449   2.063  20.188  0.00  0.00    +0.000 HD
ENDBRANCH   3   8
BRANCH   1  22
ATOM     21  C   UNL     1       6.292   4.042  13.559  0.00  0.00    +0.000 C 
ATOM     22  C   UNL     1       5.620   3.956  14.926  0.00  0.00    +0.000 C 
BRANCH  22  23
ATOM     23  O   UNL     1       5.872   2.662  15.466  0.00  0.00    +0.000 OA
ATOM     24  H   UNL     1       5.461   1.998  14.887  0.00  0.00    +0.000 HD
ENDBRANCH  22  23
ENDBRANCH   1  22
BRANCH   7  25
ATOM     25  O   UNL     1       8.079   4.192  17.039  0.00  0.00    +0.000 OA
ATOM     26  H   UNL     1       8.495   4.833  16.431  0.00  0.00    +0.000 HD
ENDBRANCH   7  25
TORSDOF 4
ENDMDL
MODEL 4
REMARK VINA RESULT:      -7.1      3.216      5.797
REMARK  Name = 
REMARK  6 active torsions:
REMARK  status: ('A' for Active; 'I' for Inactive)
REMARK    1  A    between atoms: C_1  and  C_2
REMARK    2  A    between atoms: C_2  and  O_3
REMARK    3  A    between atoms: C_2  and  C_4
REMARK    4  A    between atoms: C_6  and  N_7
REMARK    5  A    between atoms: C_18  and  C_19
REMARK    6  A    between atoms: C_21  and  O_22
REMARK                            x       y       z     vdW  Elec       q    Type
REMARK                         _______ _______ _______ _____ _____    ______ ____
ROOT
ATOM      1  C   UNL     1       2.783   2.410  19.729  0.00  0.00    +0.000 C 
ATOM      2  O   UNL     1       4.089   3.015  19.819  0.00  0.00    +0.000 OA
ATOM      3  C   UNL     1       3.927   4.396  20.254  0.00  0.00    +0.000 C 
ATOM      4  C   UNL     1       2.438   4.585  20.556  0.00  0.00    +0.000 C 
ATOM      5  C   UNL     1       1.858   5.985  20.468  0.00  0.00    +0.000 C 
ATOM      6  F   UNL     1       2.214   4.154  21.848  0.00  0.00    +0.000 F 
ATOM      7  C   UNL     1       1.780   3.563  19.643  0.00  0.00    +0.000 C 
ENDROOT
BRANCH   3   8
ATOM      8  N   UNL     1       4.487   5.266  19.228  0.00  0.00    +0.000 N 
ATOM      9  C   UNL     1       3.806   5.859  18.191  0.00  0.00    +0.000 A 
ATOM     10  C   UNL     1       4.716   6.600  17.484  0.00  0.00    +0.000 A 
ATOM     11  F   UNL     1       4.440   7.304  16.422  0.00  0.00    +0.000 F 
ATOM     12  C   UNL     1       5.988   6.472  18.070  0.00  0.00    +0.000 A 
ATOM     13  C   UNL     1       7.275   6.970  17.842  0.00  0.00    +0.000 A 
ATOM     14  N   UNL     1       7.587   7.856  16.825  0.00  0.00    +0.000 N 
ATOM     15  N   UNL     1       8.275   6.572  18.653  0.00  0.00    +0.000 NA
ATOM     16  C   UNL     1       7.984   5.728  19.661  0.00  0.00    +0.000 A 
ATOM     17  N   UNL     1       6.789   5.204  19.992  0.00  0.00    +0.000 NA
ATOM     18  C   UNL     1       5.822   5.612  19.150  0.00  0.00    +0.000 A 
ATOM     19  H   UNL     1       6.966   7.850  16.026  0.00  0.00    +0.000 HD
ATOM     20  H   UNL     1       8.582   7.892  16.641  0.00  0.00    +0.000 HD
ENDBRANCH   3   8
BRANCH   1  22
ATOM     21  C   UNL     1       2.503   2.152  17.212  0.00  0.00    +0.000 C 
ATOM     22  C   UNL     1       2.712   1.432  18.540  0.00  0.00    +0.000 C 
BRANCH  22  23
ATOM     23  O   UNL     1       3.892   0.639  18.437  0.00  0.00    +0.000 OA
ATOM     24  H   UNL     1       4.619   1.203  18.123  0.00  0.00    +0.000 HD
ENDBRANCH  22  23
ENDBRANCH   1  22
BRANCH   7  25
ATOM     25  O   UNL     1       0.479   3.206  20.099  0.00  0.00    +0.000 OA
ATOM     26  H   UNL     1      -0.113   3.201  19.322  0.00  0.00    +0.000 HD
ENDBRANCH   7  25
TORSDOF 4
ENDMDL
MODEL 5
REMARK VINA RESULT:      -7.0      2.254      3.538
REMARK  Name = 
REMARK  6 active torsions:
REMARK  status: ('A' for Active; 'I' for Inactive)
REMARK    1  A    between atoms: C_1  and  C_2
REMARK    2  A    between atoms: C_2  and  O_3
REMARK    3  A    between atoms: C_2  and  C_4
REMARK    4  A    between atoms: C_6  and  N_7
REMARK    5  A    between atoms: C_18  and  C_19
REMARK    6  A    between atoms: C_21  and  O_22
REMARK                            x       y       z     vdW  Elec       q    Type
REMARK                         _______ _______ _______ _____ _____    ______ ____
ROOT
ATOM      1  C   UNL     1       7.682   4.956  17.952  0.00  0.00    +0.000 C 
ATOM      2  O   UNL     1       6.753   4.070  18.608  0.00  0.00    +0.000 OA
ATOM      3  C   UNL     1       5.606   3.874  17.731  0.00  0.00    +0.000 C 
ATOM      4  C   UNL     1       5.933   4.595  16.420  0.00  0.00    +0.000 C 
ATOM      5  C   UNL     1       4.781   5.069  15.554  0.00  0.00    +0.000 C 
ATOM      6  F   UNL     1       6.676   3.732  15.640  0.00  0.00    +0.000 F 
ATOM      7  C   UNL     1       6.885   5.691  16.872  0.00  0.00    +0.000 C 
ENDROOT
BRANCH   3   8
ATOM      8  N   UNL     1       4.413   4.330  18.432  0.00  0.00    +0.000 N 
ATOM      9  C   UNL     1       4.173   5.597  18.910  0.00  0.00    +0.000 A 
ATOM     10  C   UNL     1       2.928   5.582  19.481  0.00  0.00    +0.000 A 
ATOM     11  F   UNL     1       2.356   6.607  20.048  0.00  0.00    +0.000 F 
ATOM     12  C   UNL     1       2.373   4.295  19.373  0.00  0.00    +0.000 A 
ATOM     13  C   UNL     1       1.178   3.662  19.729  0.00  0.00    +0.000 A 
ATOM     14  N   UNL     1       0.121   4.308  20.347  0.00  0.00    +0.000 N 
ATOM     15  N   UNL     1       1.035   2.350  19.458  0.00  0.00    +0.000 NA
ATOM     16  C   UNL     1       2.046   1.710  18.838  0.00  0.00    +0.000 A 
ATOM     17  N   UNL     1       3.225   2.214  18.429  0.00  0.00    +0.000 NA
ATOM     18  C   UNL     1       3.334   3.521  18.731  0.00  0.00    +0.000 A 
ATOM     19  H   UNL     1       0.357   5.139  20.874  0.00  0.00    +0.000 HD
ATOM     20  H   UNL     1      -0.532   3.658  20.768  0.00  0.00    +0.000 HD
ENDBRANCH   3   8
BRANCH   1  22
ATOM     21  C   UNL     1       8.119   7.364  18.654  0.00  0.00    +0.000 C 
ATOM     22  C   UNL     1       8.362   5.892  18.971  0.00  0.00    +0.000 C 
BRANCH  22  23
ATOM     23  O   UNL     1       7.913   5.641  20.299  0.00  0.00    +0.000 OA
ATOM     24  H   UNL     1       8.633   5.215  20.796  0.00  0.00    +0.000 HD
ENDBRANCH  22  23
ENDBRANCH   1  22
BRANCH   7  25
ATOM     25  O   UNL     1       7.699   6.159  15.800  0.00  0.00    +0.000 OA
ATOM     26  H   UNL     1       7.789   7.127  15.901  0.00  0.00    +0.000 HD
ENDBRANCH   7  25
TORSDOF 4
ENDMDL
MODEL 6
REMARK VINA RESULT:      -6.9      2.219      3.333
REMARK  Name = 
REMARK  6 active torsions:
REMARK  status: ('A' for Active; 'I' for Inactive)
REMARK    1  A    between atoms: C_1  and  C_2
REMARK    2  A    between atoms: C_2  and  O_3
REMARK    3  A    between atoms: C_2  and  C_4
REMARK    4  A    between atoms: C_6  and  N_7
REMARK    5  A    between atoms: C_18  and  C_19
REMARK    6  A    between atoms: C_21  and  O_22
REMARK                            x       y       z     vdW  Elec       q    Type
REMARK                         _______ _______ _______ _____ _____    ______ ____
ROOT
ATOM      1  C   UNL     1       6.727   5.696  17.093  0.00  0.00    +0.000 C 
ATOM      2  O   UNL     1       5.695   4.691  17.147  0.00  0.00    +0.000 OA
ATOM      3  C   UNL     1       4.401   5.353  17.046  0.00  0.00    +0.000 C 
ATOM      4  C   UNL     1       4.690   6.836  16.794  0.00  0.00    +0.000 C 
ATOM      5  C   UNL     1       3.642   7.852  17.206  0.00  0.00    +0.000 C 
ATOM      6  F   UNL     1       4.881   7.002  15.438  0.00  0.00    +0.000 F 
ATOM      7  C   UNL     1       6.052   7.024  17.444  0.00  0.00    +0.000 C 
ENDROOT
BRANCH   3   8
ATOM      8  N   UNL     1       3.635   5.045  18.246  0.00  0.00    +0.000 N 
ATOM      9  C   UNL     1       3.465   5.856  19.344  0.00  0.00    +0.000 A 
ATOM     10  C   UNL     1       2.663   5.178  20.224  0.00  0.00    +0.000 A 
ATOM     11  F   UNL     1       2.284   5.629  21.387  0.00  0.00    +0.000 F 
ATOM     12  C   UNL     1       2.327   3.922  19.687  0.00  0.00    +0.000 A 
ATOM     13  C   UNL     1       1.559   2.818  20.069  0.00  0.00    +0.000 A 
ATOM     14  N   UNL     1       0.841   2.753  21.252  0.00  0.00    +0.000 N 
ATOM     15  N   UNL     1       1.505   1.752  19.247  0.00  0.00    +0.000 NA
ATOM     16  C   UNL     1       2.178   1.807  18.081  0.00  0.00    +0.000 A 
ATOM     17  N   UNL     1       2.927   2.816  17.598  0.00  0.00    +0.000 NA
ATOM     18  C   UNL     1       2.967   3.853  18.455  0.00  0.00    +0.000 A 
ATOM     19  H   UNL     1       1.172   3.344  22.003  0.00  0.00    +0.000 HD
ATOM     20  H   UNL     1       0.578   1.804  21.488  0.00  0.00    +0.000 HD
ENDBRANCH   3   8
BRANCH   1  22
ATOM     21  C   UNL     1       7.554   5.520  19.495  0.00  0.00    +0.000 C 
ATOM     22  C   UNL     1       7.901   5.328  18.022  0.00  0.00    +0.000 C 
BRANCH  22  23
ATOM     23  O   UNL     1       8.320   3.979  17.835  0.00  0.00    +0.000 OA
ATOM     24  H   UNL     1       8.209   3.746  16.897  0.00  0.00    +0.000 HD
ENDBRANCH  22  23
ENDBRANCH   1  22
BRANCH   7  25
ATOM     25  O   UNL     1       6.738   8.155  16.917  0.00  0.00    +0.000 OA
ATOM     26  H   UNL     1       6.273   8.427  16.102  0.00  0.00    +0.000 HD
ENDBRANCH   7  25
TORSDOF 4
ENDMDL
MODEL 7
REMARK VINA RESULT:      -6.7      2.410      3.579
REMARK  Name = 
REMARK  6 active torsions:
REMARK  status: ('A' for Active; 'I' for Inactive)
REMARK    1  A    between atoms: C_1  and  C_2
REMARK    2  A    between atoms: C_2  and  O_3
REMARK    3  A    between atoms: C_2  and  C_4
REMARK    4  A    between atoms: C_6  and  N_7
REMARK    5  A    between atoms: C_18  and  C_19
REMARK    6  A    between atoms: C_21  and  O_22
REMARK                            x       y       z     vdW  Elec       q    Type
REMARK                         _______ _______ _______ _____ _____    ______ ____
ROOT
ATOM      1  C   UNL     1       7.559   6.564  17.994  0.00  0.00    +0.000 C 
ATOM      2  O   UNL     1       6.972   5.910  19.137  0.00  0.00    +0.000 OA
ATOM      3  C   UNL     1       6.269   4.720  18.676  0.00  0.00    +0.000 C 
ATOM      4  C   UNL     1       6.560   4.597  17.177  0.00  0.00    +0.000 C 
ATOM      5  C   UNL     1       5.563   3.851  16.311  0.00  0.00    +0.000 C 
ATOM      6  F   UNL     1       7.765   3.939  17.036  0.00  0.00    +0.000 F 
ATOM      7  C   UNL     1       6.810   6.039  16.767  0.00  0.00    +0.000 C 
ENDROOT
BRANCH   3   8
ATOM      8  N   UNL     1       4.866   4.846  19.047  0.00  0.00    +0.000 N 
ATOM      9  C   UNL     1       4.174   6.015  19.263  0.00  0.00    +0.000 A 
ATOM     10  C   UNL     1       2.886   5.668  19.573  0.00  0.00    +0.000 A 
ATOM     11  F   UNL     1       1.931   6.512  19.847  0.00  0.00    +0.000 F 
ATOM     12  C   UNL     1       2.758   4.268  19.563  0.00  0.00    +0.000 A 
ATOM     13  C   UNL     1       1.740   3.331  19.773  0.00  0.00    +0.000 A 
ATOM     14  N   UNL     1       0.429   3.672  20.060  0.00  0.00    +0.000 N 
ATOM     15  N   UNL     1       2.041   2.020  19.690  0.00  0.00    +0.000 NA
ATOM     16  C   UNL     1       3.306   1.671  19.389  0.00  0.00    +0.000 A 
ATOM     17  N   UNL     1       4.358   2.476  19.146  0.00  0.00    +0.000 NA
ATOM     18  C   UNL     1       4.020   3.774  19.253  0.00  0.00    +0.000 A 
ATOM     19  H   UNL     1       0.291   4.580  20.486  0.00  0.00    +0.000 HD
ATOM     20  H   UNL     1      -0.093   2.894  20.443  0.00  0.00    +0.000 HD
ENDBRANCH   3   8
BRANCH   1  22
ATOM     21  C   UNL     1       8.822   8.673  18.655  0.00  0.00    +0.000 C 
ATOM     22  C   UNL     1       7.503   8.097  18.150  0.00  0.00    +0.000 C 
BRANCH  22  23
ATOM     23  O   UNL     1       7.176   8.742  16.922  0.00  0.00    +0.000 OA
ATOM     24  H   UNL     1       7.093   8.066  16.228  0.00  0.00    +0.000 HD
ENDBRANCH  22  23
ENDBRANCH   1  22
BRANCH   7  25
ATOM     25  O   UNL     1       7.574   6.124  15.568  0.00  0.00    +0.000 OA
ATOM     26  H   UNL     1       8.371   5.572  15.688  0.00  0.00    +0.000 HD
ENDBRANCH   7  25
TORSDOF 4
ENDMDL
MODEL 8
REMARK VINA RESULT:      -6.7      3.416      5.179
REMARK  Name = 
REMARK  6 active torsions:
REMARK  status: ('A' for Active; 'I' for Inactive)
REMARK    1  A    between atoms: C_1  and  C_2
REMARK    2  A    between atoms: C_2  and  O_3
REMARK    3  A    between atoms: C_2  and  C_4
REMARK    4  A    between atoms: C_6  and  N_7
REMARK    5  A    between atoms: C_18  and  C_19
REMARK    6  A    between atoms: C_21  and  O_22
REMARK                            x       y       z     vdW  Elec       q    Type
REMARK                         _______ _______ _______ _____ _____    ______ ____
ROOT
ATOM      1  C   UNL     1       2.649   3.152  18.387  0.00  0.00    +0.000 C 
ATOM      2  O   UNL     1       2.007   4.369  17.958  0.00  0.00    +0.000 OA
ATOM      3  C   UNL     1       2.957   5.465  18.101  0.00  0.00    +0.000 C 
ATOM      4  C   UNL     1       4.286   4.835  18.528  0.00  0.00    +0.000 C 
ATOM      5  C   UNL     1       5.274   5.694  19.296  0.00  0.00    +0.000 C 
ATOM      6  F   UNL     1       4.939   4.419  17.386  0.00  0.00    +0.000 F 
ATOM      7  C   UNL     1       3.840   3.574  19.250  0.00  0.00    +0.000 C 
ENDROOT
BRANCH   3   8
ATOM      8  N   UNL     1       2.389   6.445  19.017  0.00  0.00    +0.000 N 
ATOM      9  C   UNL     1       1.994   6.224  20.316  0.00  0.00    +0.000 A 
ATOM     10  C   UNL     1       1.538   7.420  20.806  0.00  0.00    +0.000 A 
ATOM     11  F   UNL     1       1.073   7.603  22.010  0.00  0.00    +0.000 F 
ATOM     12  C   UNL     1       1.635   8.407  19.810  0.00  0.00    +0.000 A 
ATOM     13  C   UNL     1       1.360   9.773  19.693  0.00  0.00    +0.000 A 
ATOM     14  N   UNL     1       0.872  10.551  20.729  0.00  0.00    +0.000 N 
ATOM     15  N   UNL     1       1.582  10.378  18.509  0.00  0.00    +0.000 NA
ATOM     16  C   UNL     1       2.078   9.642  17.496  0.00  0.00    +0.000 A 
ATOM     17  N   UNL     1       2.401   8.335  17.496  0.00  0.00    +0.000 NA
ATOM     18  C   UNL     1       2.151   7.766  18.690  0.00  0.00    +0.000 A 
ATOM     19  H   UNL     1       0.364  10.057  21.452  0.00  0.00    +0.000 HD
ATOM     20  H   UNL     1       0.481  11.425  20.400  0.00  0.00    +0.000 HD
ENDBRANCH   3   8
BRANCH   1  22
ATOM     21  C   UNL     1       1.458   2.621  20.574  0.00  0.00    +0.000 C 
ATOM     22  C   UNL     1       1.649   2.229  19.112  0.00  0.00    +0.000 C 
BRANCH  22  23
ATOM     23  O   UNL     1       0.372   2.233  18.479  0.00  0.00    +0.000 OA
ATOM     24  H   UNL     1      -0.053   1.371  18.630  0.00  0.00    +0.000 HD
ENDBRANCH  22  23
ENDBRANCH   1  22
BRANCH   7  25
ATOM     25  O   UNL     1       4.873   2.595  19.293  0.00  0.00    +0.000 OA
ATOM     26  H   UNL     1       4.940   2.278  20.215  0.00  0.00    +0.000 HD
ENDBRANCH   7  25
TORSDOF 4
ENDMDL
MODEL 9
REMARK VINA RESULT:      -6.7      1.482      1.496
REMARK  Name = 
REMARK  6 active torsions:
REMARK  status: ('A' for Active; 'I' for Inactive)
REMARK    1  A    between atoms: C_1  and  C_2
REMARK    2  A    between atoms: C_2  and  O_3
REMARK    3  A    between atoms: C_2  and  C_4
REMARK    4  A    between atoms: C_6  and  N_7
REMARK    5  A    between atoms: C_18  and  C_19
REMARK    6  A    between atoms: C_21  and  O_22
REMARK                            x       y       z     vdW  Elec       q    Type
REMARK                         _______ _______ _______ _____ _____    ______ ____
ROOT
ATOM      1  C   UNL     1       5.672   5.429  15.322  0.00  0.00    +0.000 C 
ATOM      2  O   UNL     1       4.483   5.463  16.136  0.00  0.00    +0.000 OA
ATOM      3  C   UNL     1       4.855   5.892  17.478  0.00  0.00    +0.000 C 
ATOM      4  C   UNL     1       6.343   6.251  17.423  0.00  0.00    +0.000 C 
ATOM      5  C   UNL     1       7.149   6.173  18.705  0.00  0.00    +0.000 C 
ATOM      6  F   UNL     1       6.444   7.553  16.979  0.00  0.00    +0.000 F 
ATOM      7  C   UNL     1       6.855   5.373  16.292  0.00  0.00    +0.000 C 
ENDROOT
BRANCH   3   8
ATOM      8  N   UNL     1       4.485   4.837  18.413  0.00  0.00    +0.000 N 
ATOM      9  C   UNL     1       5.076   3.601  18.533  0.00  0.00    +0.000 A 
ATOM     10  C   UNL     1       4.425   2.942  19.543  0.00  0.00    +0.000 A 
ATOM     11  F   UNL     1       4.703   1.734  19.946  0.00  0.00    +0.000 F 
ATOM     12  C   UNL     1       3.408   3.761  20.065  0.00  0.00    +0.000 A 
ATOM     13  C   UNL     1       2.443   3.679  21.074  0.00  0.00    +0.000 A 
ATOM     14  N   UNL     1       2.299   2.585  21.911  0.00  0.00    +0.000 N 
ATOM     15  N   UNL     1       1.604   4.717  21.252  0.00  0.00    +0.000 NA
ATOM     16  C   UNL     1       1.745   5.798  20.462  0.00  0.00    +0.000 A 
ATOM     17  N   UNL     1       2.643   6.001  19.480  0.00  0.00    +0.000 NA
ATOM     18  C   UNL     1       3.451   4.937  19.324  0.00  0.00    +0.000 A 
ATOM     19  H   UNL     1       2.640   1.703  21.550  0.00  0.00    +0.000 HD
ATOM     20  H   UNL     1       1.402   2.580  22.383  0.00  0.00    +0.000 HD
ENDBRANCH   3   8
BRANCH   1  22
ATOM     21  C   UNL     1       6.569   4.455  13.148  0.00  0.00    +0.000 C 
ATOM     22  C   UNL     1       5.624   4.252  14.328  0.00  0.00    +0.000 C 
BRANCH  22  23
ATOM     23  O   UNL     1       5.954   3.016  14.956  0.00  0.00    +0.000 OA
ATOM     24  H   UNL     1       5.138   2.503  15.081  0.00  0.00    +0.000 HD
ENDBRANCH  22  23
ENDBRANCH   1  22
BRANCH   7  25
ATOM     25  O   UNL     1       8.061   5.882  15.731  0.00  0.00    +0.000 OA
ATOM     26  H   UNL     1       8.452   6.496  16.383  0.00  0.00    +0.000 HD
ENDBRANCH   7  25
TORSDOF 4
ENDMDL
