MODEL 1
REMARK VINA RESULT:      -7.3      0.000      0.000
REMARK  Name = 
REMARK  7 active torsions:
REMARK  status: ('A' for Active; 'I' for Inactive)
REMARK    1  A    between atoms: C_1  and  C_2
REMARK    2  A    between atoms: C_7  and  C_8
REMARK    3  A    between atoms: C_8  and  N_9
REMARK    4  A    between atoms: N_9  and  C_20
REMARK    5  A    between atoms: N_12  and  C_13
REMARK    6  A    between atoms: C_20  and  C_21
REMARK    7  A    between atoms: C_20  and  C_22
REMARK                            x       y       z     vdW  Elec       q    Type
REMARK                         _______ _______ _______ _____ _____    ______ ____
ROOT
ATOM      1  N   UNL     1       3.269   4.476  19.080  0.00  0.00    +0.000 N 
ATOM      2  C   UNL     1       4.036   4.132  17.970  0.00  0.00    +0.000 C 
ATOM      3  O   UNL     1       4.010   2.989  17.517  0.00  0.00    +0.000 OA
ATOM      4  N   UNL     1       4.842   5.114  17.426  0.00  0.00    +0.000 N 
ATOM      5  H   UNL     1       4.936   5.986  17.916  0.00  0.00    +0.000 HD
ENDROOT
BRANCH   4   6
ATOM      6  C   UNL     1       5.625   4.972  16.247  0.00  0.00    +0.000 A 
ATOM      7  C   UNL     1       6.936   5.442  16.109  0.00  0.00    +0.000 A 
ATOM      8  N   UNL     1       7.683   5.328  14.975  0.00  0.00    +0.000 NA
ATOM      9  C   UNL     1       7.093   4.729  13.922  0.00  0.00    +0.000 A 
ATOM     10  C   UNL     1       5.813   4.211  13.967  0.00  0.00    +0.000 A 
ATOM     11  F   UNL     1       5.279   3.627  12.889  0.00  0.00    +0.000 F 
ATOM     12  C   UNL     1       5.070   4.323  15.145  0.00  0.00    +0.000 A 
ENDBRANCH   4   6
BRANCH   1  13
ATOM     13  C   UNL     1       2.264   3.518  19.592  0.00  0.00    +0.000 C 
ATOM     14  C   UNL     1       2.000   3.636  21.097  0.00  0.00    +0.000 C 
ATOM     15  C   UNL     1       0.969   3.546  18.781  0.00  0.00    +0.000 C 
ENDBRANCH   1  13
BRANCH   1  16
ATOM     16  C   UNL     1       3.380   5.720  19.855  0.00  0.00    +0.000 C 
BRANCH  16  23
ATOM     17  C   UNL     1       1.207   7.196  21.359  0.00  0.00    +0.000 C 
ATOM     18  C   UNL     1       1.725   7.652  20.025  0.00  0.00    +0.000 A 
ATOM     19  C   UNL     1       1.301   8.885  19.512  0.00  0.00    +0.000 A 
ATOM     20  C   UNL     1       1.704   9.288  18.245  0.00  0.00    +0.000 A 
ATOM     21  C   UNL     1       2.514   8.439  17.520  0.00  0.00    +0.000 A 
ATOM     22  N   UNL     1       3.011   7.285  18.011  0.00  0.00    +0.000 NA
ATOM     23  C   UNL     1       2.634   6.903  19.261  0.00  0.00    +0.000 A 
ENDBRANCH  16  23
ENDBRANCH   1  16
TORSDOF 4
ENDMDL
MODEL 2
REMARK VINA RESULT:      -7.1      2.779      5.894
REMARK  Name = 
REMARK  7 active torsions:
REMARK  status: ('A' for Active; 'I' for Inactive)
REMARK    1  A    between atoms: C_1  and  C_2
REMARK    2  A    between atoms: C_7  and  C_8
REMARK    3  A    between atoms: C_8  and  N_9
REMARK    4  A    between atoms: N_9  and  C_20
REMARK    5  A    between atoms: N_12  and  C_13
REMARK    6  A    between atoms: C_20  and  C_21
REMARK    7  A    between atoms: C_20  and  C_22
REMARK                            x       y       z     vdW  Elec       q    Type
REMARK                         _______ _______ _______ _____ _____    ______ ____
ROOT
ATOM      1  N   UNL     1       3.466   3.951  18.509  0.00  0.00    +0.000 N 
ATOM      2  C   UNL     1       2.681   4.968  19.045  0.00  0.00    +0.000 C 
ATOM      3  O   UNL     1       1.809   4.717  19.877  0.00  0.00    +0.000 OA
ATOM      4  N   UNL     1       2.901   6.251  18.584  0.00  0.00    +0.000 N 
ATOM      5  H   UNL     1       3.522   6.383  17.804  0.00  0.00    +0.000 HD
ENDROOT
BRANCH   4   6
ATOM      6  C   UNL     1       2.258   7.421  19.075  0.00  0.00    +0.000 A 
ATOM      7  C   UNL     1       1.863   7.605  20.405  0.00  0.00    +0.000 A 
ATOM      8  N   UNL     1       1.226   8.714  20.877  0.00  0.00    +0.000 NA
ATOM      9  C   UNL     1       0.960   9.684  19.979  0.00  0.00    +0.000 A 
ATOM     10  C   UNL     1       1.332   9.606  18.651  0.00  0.00    +0.000 A 
ATOM     11  F   UNL     1       1.039  10.600  17.805  0.00  0.00    +0.000 F 
ATOM     12  C   UNL     1       1.998   8.467  18.192  0.00  0.00    +0.000 A 
ENDBRANCH   4   6
BRANCH   1  13
ATOM     13  C   UNL     1       3.391   2.593  19.091  0.00  0.00    +0.000 C 
ATOM     14  C   UNL     1       3.573   1.465  18.068  0.00  0.00    +0.000 C 
ATOM     15  C   UNL     1       4.314   2.426  20.297  0.00  0.00    +0.000 C 
ENDBRANCH   1  13
BRANCH   1  16
ATOM     16  C   UNL     1       4.369   4.073  17.355  0.00  0.00    +0.000 C 
BRANCH  16  23
ATOM     17  C   UNL     1       5.341   6.247  15.488  0.00  0.00    +0.000 C 
ATOM     18  C   UNL     1       5.989   5.966  16.813  0.00  0.00    +0.000 A 
ATOM     19  C   UNL     1       6.988   6.828  17.282  0.00  0.00    +0.000 A 
ATOM     20  C   UNL     1       7.656   6.541  18.467  0.00  0.00    +0.000 A 
ATOM     21  C   UNL     1       7.311   5.390  19.145  0.00  0.00    +0.000 A 
ATOM     22  N   UNL     1       6.299   4.581  18.770  0.00  0.00    +0.000 NA
ATOM     23  C   UNL     1       5.630   4.877  17.623  0.00  0.00    +0.000 A 
ENDBRANCH  16  23
ENDBRANCH   1  16
TORSDOF 4
ENDMDL
MODEL 3
REMARK VINA RESULT:      -7.1      3.001      5.992
REMARK  Name = 
REMARK  7 active torsions:
REMARK  status: ('A' for Active; 'I' for Inactive)
REMARK    1  A    between atoms: C_1  and  C_2
REMARK    2  A    between atoms: C_7  and  C_8
REMARK    3  A    between atoms: C_8  and  N_9
REMARK    4  A    between atoms: N_9  and  C_20
REMARK    5  A    between atoms: N_12  and  C_13
REMARK    6  A    between atoms: C_20  and  C_21
REMARK    7  A    between atoms: C_20  and  C_22
REMARK                            x       y       z     vdW  Elec       q    Type
REMARK                         _______ _______ _______ _____ _____    ______ ____
ROOT
ATOM      1  N   UNL     1       3.427   3.903  18.481  0.00  0.00    +0.000 N 
ATOM      2  C   UNL     1       2.632   4.969  18.892  0.00  0.00    +0.000 C 
ATOM      3  O   UNL     1       1.706   4.795  19.683  0.00  0.00    +0.000 OA
ATOM      4  N   UNL     1       2.907   6.211  18.353  0.00  0.00    +0.000 N 
ATOM      5  H   UNL     1       3.578   6.275  17.607  0.00  0.00    +0.000 HD
ENDROOT
BRANCH   4   6
ATOM      6  C   UNL     1       2.260   7.425  18.717  0.00  0.00    +0.000 A 
ATOM      7  C   UNL     1       1.913   8.436  17.813  0.00  0.00    +0.000 A 
ATOM      8  N   UNL     1       1.313   9.610  18.160  0.00  0.00    +0.000 NA
ATOM      9  C   UNL     1       1.056   9.793  19.470  0.00  0.00    +0.000 A 
ATOM     10  C   UNL     1       1.339   8.844  20.434  0.00  0.00    +0.000 A 
ATOM     11  F   UNL     1       1.062   9.082  21.721  0.00  0.00    +0.000 F 
ATOM     12  C   UNL     1       1.939   7.641  20.056  0.00  0.00    +0.000 A 
ENDBRANCH   4   6
BRANCH   1  13
ATOM     13  C   UNL     1       3.288   2.593  19.155  0.00  0.00    +0.000 C 
ATOM     14  C   UNL     1       3.587   1.392  18.250  0.00  0.00    +0.000 C 
ATOM     15  C   UNL     1       4.069   2.528  20.467  0.00  0.00    +0.000 C 
ENDBRANCH   1  13
BRANCH   1  16
ATOM     16  C   UNL     1       4.402   3.925  17.381  0.00  0.00    +0.000 C 
BRANCH  16  23
ATOM     17  C   UNL     1       5.657   5.763  15.330  0.00  0.00    +0.000 C 
ATOM     18  C   UNL     1       6.146   5.674  16.748  0.00  0.00    +0.000 A 
ATOM     19  C   UNL     1       7.122   6.575  17.192  0.00  0.00    +0.000 A 
ATOM     20  C   UNL     1       7.645   6.458  18.474  0.00  0.00    +0.000 A 
ATOM     21  C   UNL     1       7.183   5.434  19.274  0.00  0.00    +0.000 A 
ATOM     22  N   UNL     1       6.186   4.600  18.913  0.00  0.00    +0.000 NA
ATOM     23  C   UNL     1       5.658   4.731  17.666  0.00  0.00    +0.000 A 
ENDBRANCH  16  23
ENDBRANCH   1  16
TORSDOF 4
ENDMDL
MODEL 4
REMARK VINA RESULT:      -7.1      1.130      1.432
REMARK  Name = 
REMARK  7 active torsions:
REMARK  status: ('A' for Active; 'I' for Inactive)
REMARK    1  A    between atoms: C_1  and  C_2
REMARK    2  A    between atoms: C_7  and  C_8
REMARK    3  A    between atoms: C_8  and  N_9
REMARK    4  A    between atoms: N_9  and  C_20
REMARK    5  A    between atoms: N_12  and  C_13
REMARK    6  A    between atoms: C_20  and  C_21
REMARK    7  A    between atoms: C_20  and  C_22
REMARK                            x       y       z     vdW  Elec       q    Type
REMARK                         _______ _______ _______ _____ _____    ______ ____
ROOT
ATOM      1  N   UNL     1       2.581   5.017  20.017  0.00  0.00    +0.000 N 
ATOM      2  C   UNL     1       3.482   4.494  19.094  0.00  0.00    +0.000 C 
ATOM      3  O   UNL     1       3.475   3.295  18.819  0.00  0.00    +0.000 OA
ATOM      4  N   UNL     1       4.392   5.367  18.530  0.00  0.00    +0.000 N 
ATOM      5  H   UNL     1       4.449   6.303  18.891  0.00  0.00    +0.000 HD
ENDROOT
BRANCH   4   6
ATOM      6  C   UNL     1       5.326   5.032  17.511  0.00  0.00    +0.000 A 
ATOM      7  C   UNL     1       6.705   4.907  17.715  0.00  0.00    +0.000 A 
ATOM      8  N   UNL     1       7.608   4.609  16.737  0.00  0.00    +0.000 NA
ATOM      9  C   UNL     1       7.116   4.438  15.494  0.00  0.00    +0.000 A 
ATOM     10  C   UNL     1       5.768   4.516  15.198  0.00  0.00    +0.000 A 
ATOM     11  F   UNL     1       5.338   4.338  13.944  0.00  0.00    +0.000 F 
ATOM     12  C   UNL     1       4.858   4.807  16.217  0.00  0.00    +0.000 A 
ENDBRANCH   4   6
BRANCH   1  13
ATOM     13  C   UNL     1       1.479   4.166  20.518  0.00  0.00    +0.000 C 
ATOM     14  C   UNL     1       0.720   3.417  19.417  0.00  0.00    +0.000 C 
ATOM     15  C   UNL     1       1.931   3.231  21.639  0.00  0.00    +0.000 C 
ENDBRANCH   1  13
BRANCH   1  16
ATOM     16  C   UNL     1       2.628   6.364  20.604  0.00  0.00    +0.000 C 
BRANCH  16  23
ATOM     17  C   UNL     1       0.762   8.470  21.716  0.00  0.00    +0.000 C 
ATOM     18  C   UNL     1       1.260   8.494  20.299  0.00  0.00    +0.000 A 
ATOM     19  C   UNL     1       0.977   9.604  19.493  0.00  0.00    +0.000 A 
ATOM     20  C   UNL     1       1.360   9.610  18.158  0.00  0.00    +0.000 A 
ATOM     21  C   UNL     1       2.006   8.497  17.662  0.00  0.00    +0.000 A 
ATOM     22  N   UNL     1       2.370   7.446  18.425  0.00  0.00    +0.000 NA
ATOM     23  C   UNL     1       2.016   7.453  19.739  0.00  0.00    +0.000 A 
ENDBRANCH  16  23
ENDBRANCH   1  16
TORSDOF 4
ENDMDL
MODEL 5
REMARK VINA RESULT:      -7.1      2.612      5.953
REMARK  Name = 
REMARK  7 active torsions:
REMARK  status: ('A' for Active; 'I' for Inactive)
REMARK    1  A    between atoms: C_1  and  C_2
REMARK    2  A    between atoms: C_7  and  C_8
REMARK    3  A    between atoms: C_8  and  N_9
REMARK    4  A    between atoms: N_9  and  C_20
REMARK    5  A    between atoms: N_12  and  C_13
REMARK    6  A    between atoms: C_20  and  C_21
REMARK    7  A    between atoms: C_20  and  C_22
REMARK                            x       y       z     vdW  Elec       q    Type
REMARK                         _______ _______ _______ _____ _____    ______ ____
ROOT
ATOM      1  N   UNL     1       3.857   4.007  19.449  0.00  0.00    +0.000 N 
ATOM      2  C   UNL     1       2.853   4.971  19.476  0.00  0.00    +0.000 C 
ATOM      3  O   UNL     1       1.667   4.644  19.466  0.00  0.00    +0.000 OA
ATOM      4  N   UNL     1       3.245   6.295  19.484  0.00  0.00    +0.000 N 
ATOM      5  H   UNL     1       4.217   6.512  19.348  0.00  0.00    +0.000 HD
ENDROOT
BRANCH   4   6
ATOM      6  C   UNL     1       2.367   7.409  19.597  0.00  0.00    +0.000 A 
ATOM      7  C   UNL     1       1.681   7.758  20.766  0.00  0.00    +0.000 A 
ATOM      8  N   UNL     1       0.821   8.811  20.873  0.00  0.00    +0.000 NA
ATOM      9  C   UNL     1       0.626   9.546  19.760  0.00  0.00    +0.000 A 
ATOM     10  C   UNL     1       1.276   9.296  18.566  0.00  0.00    +0.000 A 
ATOM     11  F   UNL     1       1.040  10.059  17.494  0.00  0.00    +0.000 F 
ATOM     12  C   UNL     1       2.165   8.222  18.483  0.00  0.00    +0.000 A 
ENDBRANCH   4   6
BRANCH   1  13
ATOM     13  C   UNL     1       3.499   2.581  19.614  0.00  0.00    +0.000 C 
ATOM     14  C   UNL     1       3.109   1.880  18.308  0.00  0.00    +0.000 C 
ATOM     15  C   UNL     1       4.562   1.801  20.387  0.00  0.00    +0.000 C 
ENDBRANCH   1  13
BRANCH   1  16
ATOM     16  C   UNL     1       5.289   4.256  19.225  0.00  0.00    +0.000 C 
BRANCH  16  23
ATOM     17  C   UNL     1       7.618   6.074  18.573  0.00  0.00    +0.000 C 
ATOM     18  C   UNL     1       6.807   5.381  17.515  0.00  0.00    +0.000 A 
ATOM     19  C   UNL     1       7.223   5.453  16.178  0.00  0.00    +0.000 A 
ATOM     20  C   UNL     1       6.445   4.887  15.176  0.00  0.00    +0.000 A 
ATOM     21  C   UNL     1       5.263   4.274  15.538  0.00  0.00    +0.000 A 
ATOM     22  N   UNL     1       4.871   4.112  16.818  0.00  0.00    +0.000 NA
ATOM     23  C   UNL     1       5.647   4.646  17.801  0.00  0.00    +0.000 A 
ENDBRANCH  16  23
ENDBRANCH   1  16
TORSDOF 4
ENDMDL
MODEL 6
REMARK VINA RESULT:      -7.0      3.010      6.414
REMARK  Name = 
REMARK  7 active torsions:
REMARK  status: ('A' for Active; 'I' for Inactive)
REMARK    1  A    between atoms: C_1  and  C_2
REMARK    2  A    between atoms: C_7  and  C_8
REMARK    3  A    between atoms: C_8  and  N_9
REMARK    4  A    between atoms: N_9  and  C_20
REMARK    5  A    between atoms: N_12  and  C_13
REMARK    6  A    between atoms: C_20  and  C_21
REMARK    7  A    between atoms: C_20  and  C_22
REMARK                            x       y       z     vdW  Elec       q    Type
REMARK                         _______ _______ _______ _____ _____    ______ ____
ROOT
ATOM      1  N   UNL     1       2.815   4.357  18.702  0.00  0.00    +0.000 N 
ATOM      2  C   UNL     1       2.118   5.346  19.391  0.00  0.00    +0.000 C 
ATOM      3  O   UNL     1       1.254   5.049  20.215  0.00  0.00    +0.000 OA
ATOM      4  N   UNL     1       2.416   6.661  19.089  0.00  0.00    +0.000 N 
ATOM      5  H   UNL     1       3.024   6.851  18.311  0.00  0.00    +0.000 HD
ENDROOT
BRANCH   4   6
ATOM      6  C   UNL     1       1.871   7.798  19.747  0.00  0.00    +0.000 A 
ATOM      7  C   UNL     1       1.669   7.888  21.130  0.00  0.00    +0.000 A 
ATOM      8  N   UNL     1       1.127   8.966  21.764  0.00  0.00    +0.000 NA
ATOM      9  C   UNL     1       0.756  10.000  20.984  0.00  0.00    +0.000 A 
ATOM     10  C   UNL     1       0.937  10.016  19.613  0.00  0.00    +0.000 A 
ATOM     11  F   UNL     1       0.547  11.072  18.890  0.00  0.00    +0.000 F 
ATOM     12  C   UNL     1       1.510   8.907  18.986  0.00  0.00    +0.000 A 
ENDBRANCH   4   6
BRANCH   1  13
ATOM     13  C   UNL     1       2.659   2.943  19.110  0.00  0.00    +0.000 C 
ATOM     14  C   UNL     1       2.814   1.942  17.959  0.00  0.00    +0.000 C 
ATOM     15  C   UNL     1       3.542   2.583  20.304  0.00  0.00    +0.000 C 
ENDBRANCH   1  13
BRANCH   1  16
ATOM     16  C   UNL     1       3.693   4.567  17.542  0.00  0.00    +0.000 C 
BRANCH  16  23
ATOM     17  C   UNL     1       5.885   3.779  15.611  0.00  0.00    +0.000 C 
ATOM     18  C   UNL     1       6.164   4.453  16.924  0.00  0.00    +0.000 A 
ATOM     19  C   UNL     1       7.469   4.871  17.215  0.00  0.00    +0.000 A 
ATOM     20  C   UNL     1       7.763   5.423  18.456  0.00  0.00    +0.000 A 
ATOM     21  C   UNL     1       6.742   5.531  19.377  0.00  0.00    +0.000 A 
ATOM     22  N   UNL     1       5.458   5.218  19.106  0.00  0.00    +0.000 NA
ATOM     23  C   UNL     1       5.168   4.700  17.882  0.00  0.00    +0.000 A 
ENDBRANCH  16  23
ENDBRANCH   1  16
TORSDOF 4
ENDMDL
MODEL 7
REMARK VINA RESULT:      -7.0      3.044      6.196
REMARK  Name = 
REMARK  7 active torsions:
REMARK  status: ('A' for Active; 'I' for Inactive)
REMARK    1  A    between atoms: C_1  and  C_2
REMARK    2  A    between atoms: C_7  and  C_8
REMARK    3  A    between atoms: C_8  and  N_9
REMARK    4  A    between atoms: N_9  and  C_20
REMARK    5  A    between atoms: N_12  and  C_13
REMARK    6  A    between atoms: C_20  and  C_21
REMARK    7  A    between atoms: C_20  and  C_22
REMARK                            x       y       z     vdW  Elec       q    Type
REMARK                         _______ _______ _______ _____ _____    ______ ____
ROOT
ATOM      1  N   UNL     1       3.631   4.307  19.772  0.00  0.00    +0.000 N 
ATOM      2  C   UNL     1       2.644   5.275  19.608  0.00  0.00    +0.000 C 
ATOM      3  O   UNL     1       1.455   4.959  19.557  0.00  0.00    +0.000 OA
ATOM      4  N   UNL     1       3.056   6.587  19.477  0.00  0.00    +0.000 N 
ATOM      5  H   UNL     1       4.038   6.777  19.383  0.00  0.00    +0.000 HD
ENDROOT
BRANCH   4   6
ATOM      6  C   UNL     1       2.191   7.713  19.388  0.00  0.00    +0.000 A 
ATOM      7  C   UNL     1       1.950   8.432  18.211  0.00  0.00    +0.000 A 
ATOM      8  N   UNL     1       1.140   9.525  18.125  0.00  0.00    +0.000 NA
ATOM      9  C   UNL     1       0.551   9.931  19.267  0.00  0.00    +0.000 A 
ATOM     10  C   UNL     1       0.707   9.273  20.473  0.00  0.00    +0.000 A 
ATOM     11  F   UNL     1       0.098   9.724  21.575  0.00  0.00    +0.000 F 
ATOM     12  C   UNL     1       1.529   8.145  20.536  0.00  0.00    +0.000 A 
ENDBRANCH   4   6
BRANCH   1  13
ATOM     13  C   UNL     1       3.238   2.917  20.090  0.00  0.00    +0.000 C 
ATOM     14  C   UNL     1       4.377   1.900  19.953  0.00  0.00    +0.000 C 
ATOM     15  C   UNL     1       2.532   2.807  21.441  0.00  0.00    +0.000 C 
ENDBRANCH   1  13
BRANCH   1  16
ATOM     16  C   UNL     1       5.078   4.515  19.618  0.00  0.00    +0.000 C 
BRANCH  16  23
ATOM     17  C   UNL     1       7.788   5.638  18.876  0.00  0.00    +0.000 C 
ATOM     18  C   UNL     1       6.861   5.021  17.868  0.00  0.00    +0.000 A 
ATOM     19  C   UNL     1       7.313   4.818  16.557  0.00  0.00    +0.000 A 
ATOM     20  C   UNL     1       6.446   4.324  15.591  0.00  0.00    +0.000 A 
ATOM     21  C   UNL     1       5.144   4.056  15.961  0.00  0.00    +0.000 A 
ATOM     22  N   UNL     1       4.695   4.159  17.228  0.00  0.00    +0.000 NA
ATOM     23  C   UNL     1       5.552   4.620  18.179  0.00  0.00    +0.000 A 
ENDBRANCH  16  23
ENDBRANCH   1  16
TORSDOF 4
ENDMDL
MODEL 8
REMARK VINA RESULT:      -7.0      2.970      6.106
REMARK  Name = 
REMARK  7 active torsions:
REMARK  status: ('A' for Active; 'I' for Inactive)
REMARK    1  A    between atoms: C_1  and  C_2
REMARK    2  A    between atoms: C_7  and  C_8
REMARK    3  A    between atoms: C_8  and  N_9
REMARK    4  A    between atoms: N_9  and  C_20
REMARK    5  A    between atoms: N_12  and  C_13
REMARK    6  A    between atoms: C_20  and  C_21
REMARK    7  A    between atoms: C_20  and  C_22
REMARK                            x       y       z     vdW  Elec       q    Type
REMARK                         _______ _______ _______ _____ _____    ______ ____
ROOT
ATOM      1  N   UNL     1       4.998   5.081  17.924  0.00  0.00    +0.000 N 
ATOM      2  C   UNL     1       4.338   6.306  17.971  0.00  0.00    +0.000 C 
ATOM      3  O   UNL     1       4.739   7.261  17.307  0.00  0.00    +0.000 OA
ATOM      4  N   UNL     1       3.245   6.407  18.810  0.00  0.00    +0.000 N 
ATOM      5  H   UNL     1       3.046   5.646  19.435  0.00  0.00    +0.000 HD
ENDROOT
BRANCH   4   6
ATOM      6  C   UNL     1       2.402   7.546  18.923  0.00  0.00    +0.000 A 
ATOM      7  C   UNL     1       2.079   8.399  17.860  0.00  0.00    +0.000 A 
ATOM      8  N   UNL     1       1.289   9.504  17.968  0.00  0.00    +0.000 NA
ATOM      9  C   UNL     1       0.805   9.783  19.194  0.00  0.00    +0.000 A 
ATOM     10  C   UNL     1       1.046   8.989  20.300  0.00  0.00    +0.000 A 
ATOM     11  F   UNL     1       0.540   9.317  21.493  0.00  0.00    +0.000 F 
ATOM     12  C   UNL     1       1.846   7.851  20.164  0.00  0.00    +0.000 A 
ENDBRANCH   4   6
BRANCH   1  13
ATOM     13  C   UNL     1       6.062   4.867  16.918  0.00  0.00    +0.000 C 
ATOM     14  C   UNL     1       7.444   4.589  17.521  0.00  0.00    +0.000 C 
ATOM     15  C   UNL     1       5.672   3.822  15.874  0.00  0.00    +0.000 C 
ENDBRANCH   1  13
BRANCH   1  16
ATOM     16  C   UNL     1       4.773   3.943  18.827  0.00  0.00    +0.000 C 
BRANCH  16  23
ATOM     17  C   UNL     1       2.501   2.898  17.123  0.00  0.00    +0.000 C 
ATOM     18  C   UNL     1       2.343   3.212  18.583  0.00  0.00    +0.000 A 
ATOM     19  C   UNL     1       1.146   2.876  19.229  0.00  0.00    +0.000 A 
ATOM     20  C   UNL     1       0.948   3.230  20.558  0.00  0.00    +0.000 A 
ATOM     21  C   UNL     1       1.952   3.922  21.202  0.00  0.00    +0.000 A 
ATOM     22  N   UNL     1       3.149   4.190  20.641  0.00  0.00    +0.000 NA
ATOM     23  C   UNL     1       3.350   3.821  19.347  0.00  0.00    +0.000 A 
ENDBRANCH  16  23
ENDBRANCH   1  16
TORSDOF 4
ENDMDL
MODEL 9
REMARK VINA RESULT:      -6.9      2.841      6.205
REMARK  Name = 
REMARK  7 active torsions:
REMARK  status: ('A' for Active; 'I' for Inactive)
REMARK    1  A    between atoms: C_1  and  C_2
REMARK    2  A    between atoms: C_7  and  C_8
REMARK    3  A    between atoms: C_8  and  N_9
REMARK    4  A    between atoms: N_9  and  C_20
REMARK    5  A    between atoms: N_12  and  C_13
REMARK    6  A    between atoms: C_20  and  C_21
REMARK    7  A    between atoms: C_20  and  C_22
REMARK                            x       y       z     vdW  Elec       q    Type
REMARK                         _______ _______ _______ _____ _____    ______ ____
ROOT
ATOM      1  N   UNL     1       4.826   5.052  16.937  0.00  0.00    +0.000 N 
ATOM      2  C   UNL     1       4.378   6.263  17.457  0.00  0.00    +0.000 C 
ATOM      3  O   UNL     1       5.118   7.246  17.489  0.00  0.00    +0.000 OA
ATOM      4  N   UNL     1       3.091   6.302  17.958  0.00  0.00    +0.000 N 
ATOM      5  H   UNL     1       2.579   5.441  18.039  0.00  0.00    +0.000 HD
ENDROOT
BRANCH   4   6
ATOM      6  C   UNL     1       2.437   7.467  18.447  0.00  0.00    +0.000 A 
ATOM      7  C   UNL     1       2.146   8.594  17.671  0.00  0.00    +0.000 A 
ATOM      8  N   UNL     1       1.539   9.721  18.140  0.00  0.00    +0.000 NA
ATOM      9  C   UNL     1       1.216   9.732  19.449  0.00  0.00    +0.000 A 
ATOM     10  C   UNL     1       1.440   8.659  20.291  0.00  0.00    +0.000 A 
ATOM     11  F   UNL     1       1.099   8.728  21.582  0.00  0.00    +0.000 F 
ATOM     12  C   UNL     1       2.048   7.507  19.785  0.00  0.00    +0.000 A 
ENDBRANCH   4   6
BRANCH   1  13
ATOM     13  C   UNL     1       6.127   5.001  16.234  0.00  0.00    +0.000 C 
ATOM     14  C   UNL     1       7.299   4.566  17.122  0.00  0.00    +0.000 C 
ATOM     15  C   UNL     1       6.057   4.190  14.941  0.00  0.00    +0.000 C 
ENDBRANCH   1  13
BRANCH   1  16
ATOM     16  C   UNL     1       4.140   3.757  17.049  0.00  0.00    +0.000 C 
BRANCH  16  23
ATOM     17  C   UNL     1       1.258   3.592  17.956  0.00  0.00    +0.000 C 
ATOM     18  C   UNL     1       2.408   3.171  18.825  0.00  0.00    +0.000 A 
ATOM     19  C   UNL     1       2.145   2.539  20.048  0.00  0.00    +0.000 A 
ATOM     20  C   UNL     1       3.192   2.215  20.903  0.00  0.00    +0.000 A 
ATOM     21  C   UNL     1       4.474   2.542  20.514  0.00  0.00    +0.000 A 
ATOM     22  N   UNL     1       4.774   3.073  19.311  0.00  0.00    +0.000 NA
ATOM     23  C   UNL     1       3.750   3.368  18.465  0.00  0.00    +0.000 A 
ENDBRANCH  16  23
ENDBRANCH   1  16
TORSDOF 4
ENDMDL
