MODEL 1
REMARK VINA RESULT:      -7.8      0.000      0.000
REMARK  Name = 
REMARK  4 active torsions:
REMARK  status: ('A' for Active; 'I' for Inactive)
REMARK    1  A    between atoms: C_1  and  C_2
REMARK    2  A    between atoms: C_6  and  N_7
REMARK    3  A    between atoms: N_13  and  C_14
REMARK    4  A    between atoms: C_17  and  O_18
REMARK                            x       y       z     vdW  Elec       q    Type
REMARK                         _______ _______ _______ _____ _____    ______ ____
ROOT
ATOM      1  N   UNL     1      -0.488  11.091  22.111  0.00  0.00    +0.000 N 
ATOM      2  C   UNL     1      -0.481  10.906  20.656  0.00  0.00    +0.000 C 
ATOM      3  C   UNL     1       0.869  10.306  20.256  0.00  0.00    +0.000 C 
ATOM      4  N   UNL     1       1.111   9.037  20.956  0.00  0.00    +0.000 N 
ATOM      5  C   UNL     1       1.633   8.006  20.197  0.00  0.00    +0.000 C 
ATOM      6  O   UNL     1       1.869   8.178  19.000  0.00  0.00    +0.000 OA
ATOM      7  N   UNL     1       1.807   6.801  20.843  0.00  0.00    +0.000 N 
ATOM      8  C   UNL     1       1.017   9.143  22.427  0.00  0.00    +0.000 C 
ATOM      9  C   UNL     1      -0.287   9.851  22.884  0.00  0.00    +0.000 C 
ATOM     10  H   UNL     1       1.294   6.673  21.698  0.00  0.00    +0.000 HD
ENDROOT
BRANCH   1  16
ATOM     11  C   UNL     1      -4.495  12.375  24.629  0.00  0.00    +0.000 C 
ATOM     12  C   UNL     1      -3.224  12.775  23.943  0.00  0.00    +0.000 A 
ATOM     13  C   UNL     1      -2.724  14.075  24.049  0.00  0.00    +0.000 A 
ATOM     14  C   UNL     1      -1.513  14.407  23.447  0.00  0.00    +0.000 A 
ATOM     15  C   UNL     1      -0.783  13.433  22.759  0.00  0.00    +0.000 A 
ATOM     16  C   UNL     1      -1.249  12.117  22.648  0.00  0.00    +0.000 A 
ATOM     17  C   UNL     1      -2.492  11.818  23.225  0.00  0.00    +0.000 A 
ENDBRANCH   1  16
BRANCH   7  18
ATOM     18  C   UNL     1       2.293   5.621  20.232  0.00  0.00    +0.000 A 
ATOM     19  C   UNL     1       1.538   4.446  20.118  0.00  0.00    +0.000 A 
ATOM     20  C   UNL     1       2.096   3.276  19.597  0.00  0.00    +0.000 A 
ATOM     21  C   UNL     1       3.412   3.288  19.158  0.00  0.00    +0.000 A 
ATOM     22  C   UNL     1       4.164   4.455  19.209  0.00  0.00    +0.000 A 
ATOM     23  C   UNL     1       3.603   5.623  19.738  0.00  0.00    +0.000 A 
BRANCH  21  24
ATOM     24  O   UNL     1       4.004   2.159  18.676  0.00  0.00    +0.000 OA
ATOM     25  H   UNL     1       4.543   2.403  17.905  0.00  0.00    +0.000 HD
ENDBRANCH  21  24
ENDBRANCH   7  18
TORSDOF 3
ENDMDL
MODEL 2
REMARK VINA RESULT:      -7.3      0.378      1.471
REMARK  Name = 
REMARK  4 active torsions:
REMARK  status: ('A' for Active; 'I' for Inactive)
REMARK    1  A    between atoms: C_1  and  C_2
REMARK    2  A    between atoms: C_6  and  N_7
REMARK    3  A    between atoms: N_13  and  C_14
REMARK    4  A    between atoms: C_17  and  O_18
REMARK                            x       y       z     vdW  Elec       q    Type
REMARK                         _______ _______ _______ _____ _____    ______ ____
ROOT
ATOM      1  N   UNL     1      -0.520  11.087  22.333  0.00  0.00    +0.000 N 
ATOM      2  C   UNL     1      -0.528  10.965  20.871  0.00  0.00    +0.000 C 
ATOM      3  C   UNL     1       0.825  10.401  20.431  0.00  0.00    +0.000 C 
ATOM      4  N   UNL     1       1.091   9.107  21.072  0.00  0.00    +0.000 N 
ATOM      5  C   UNL     1       1.617   8.116  20.263  0.00  0.00    +0.000 C 
ATOM      6  O   UNL     1       1.837   8.342  19.073  0.00  0.00    +0.000 OA
ATOM      7  N   UNL     1       1.814   6.887  20.855  0.00  0.00    +0.000 N 
ATOM      8  C   UNL     1       1.013   9.148  22.547  0.00  0.00    +0.000 C 
ATOM      9  C   UNL     1      -0.294   9.818  23.049  0.00  0.00    +0.000 C 
ATOM     10  H   UNL     1       1.313   6.716  21.709  0.00  0.00    +0.000 HD
ENDROOT
BRANCH   1  16
ATOM     11  C   UNL     1      -1.083  15.870  23.259  0.00  0.00    +0.000 C 
ATOM     12  C   UNL     1      -1.610  14.470  23.357  0.00  0.00    +0.000 A 
ATOM     13  C   UNL     1      -2.908  14.216  23.806  0.00  0.00    +0.000 A 
ATOM     14  C   UNL     1      -3.391  12.911  23.837  0.00  0.00    +0.000 A 
ATOM     15  C   UNL     1      -2.589  11.856  23.393  0.00  0.00    +0.000 A 
ATOM     16  C   UNL     1      -1.288  12.079  22.922  0.00  0.00    +0.000 A 
ATOM     17  C   UNL     1      -0.808  13.396  22.942  0.00  0.00    +0.000 A 
ENDBRANCH   1  16
BRANCH   7  18
ATOM     18  C   UNL     1       2.308   5.741  20.188  0.00  0.00    +0.000 A 
ATOM     19  C   UNL     1       1.571   4.558  20.042  0.00  0.00    +0.000 A 
ATOM     20  C   UNL     1       2.139   3.420  19.465  0.00  0.00    +0.000 A 
ATOM     21  C   UNL     1       3.446   3.472  19.002  0.00  0.00    +0.000 A 
ATOM     22  C   UNL     1       4.178   4.649  19.085  0.00  0.00    +0.000 A 
ATOM     23  C   UNL     1       3.608   5.786  19.670  0.00  0.00    +0.000 A 
BRANCH  21  24
ATOM     24  O   UNL     1       4.047   2.374  18.464  0.00  0.00    +0.000 OA
ATOM     25  H   UNL     1       5.004   2.539  18.425  0.00  0.00    +0.000 HD
ENDBRANCH  21  24
ENDBRANCH   7  18
TORSDOF 3
ENDMDL
MODEL 3
REMARK VINA RESULT:      -7.3      1.988      2.293
REMARK  Name = 
REMARK  4 active torsions:
REMARK  status: ('A' for Active; 'I' for Inactive)
REMARK    1  A    between atoms: C_1  and  C_2
REMARK    2  A    between atoms: C_6  and  N_7
REMARK    3  A    between atoms: N_13  and  C_14
REMARK    4  A    between atoms: C_17  and  O_18
REMARK                            x       y       z     vdW  Elec       q    Type
REMARK                         _______ _______ _______ _____ _____    ______ ____
ROOT
ATOM      1  N   UNL     1      -0.564  10.718  20.784  0.00  0.00    +0.000 N 
ATOM      2  C   UNL     1      -0.551  10.727  19.317  0.00  0.00    +0.000 C 
ATOM      3  C   UNL     1       0.880  10.450  18.850  0.00  0.00    +0.000 C 
ATOM      4  N   UNL     1       1.369   9.170  19.379  0.00  0.00    +0.000 N 
ATOM      5  C   UNL     1       2.060   8.362  18.494  0.00  0.00    +0.000 C 
ATOM      6  O   UNL     1       2.236   8.729  17.332  0.00  0.00    +0.000 OA
ATOM      7  N   UNL     1       2.469   7.139  18.979  0.00  0.00    +0.000 N 
ATOM      8  C   UNL     1       1.285   9.064  20.850  0.00  0.00    +0.000 C 
ATOM      9  C   UNL     1      -0.119   9.449  21.389  0.00  0.00    +0.000 C 
ATOM     10  H   UNL     1       2.006   6.807  19.806  0.00  0.00    +0.000 HD
ENDROOT
BRANCH   1  16
ATOM     11  C   UNL     1      -4.506  13.616  20.451  0.00  0.00    +0.000 C 
ATOM     12  C   UNL     1      -3.490  12.919  21.305  0.00  0.00    +0.000 A 
ATOM     13  C   UNL     1      -3.622  12.877  22.694  0.00  0.00    +0.000 A 
ATOM     14  C   UNL     1      -2.694  12.178  23.461  0.00  0.00    +0.000 A 
ATOM     15  C   UNL     1      -1.645  11.495  22.839  0.00  0.00    +0.000 A 
ATOM     16  C   UNL     1      -1.494  11.504  21.446  0.00  0.00    +0.000 A 
ATOM     17  C   UNL     1      -2.415  12.251  20.699  0.00  0.00    +0.000 A 
ENDBRANCH   1  16
BRANCH   7  18
ATOM     18  C   UNL     1       3.156   6.160  18.221  0.00  0.00    +0.000 A 
ATOM     19  C   UNL     1       2.605   4.915  17.892  0.00  0.00    +0.000 A 
ATOM     20  C   UNL     1       3.359   3.943  17.229  0.00  0.00    +0.000 A 
ATOM     21  C   UNL     1       4.667   4.230  16.865  0.00  0.00    +0.000 A 
ATOM     22  C   UNL     1       5.217   5.477  17.130  0.00  0.00    +0.000 A 
ATOM     23  C   UNL     1       4.461   6.445  17.800  0.00  0.00    +0.000 A 
BRANCH  21  24
ATOM     24  O   UNL     1       5.447   3.298  16.248  0.00  0.00    +0.000 OA
ATOM     25  H   UNL     1       4.934   2.904  15.522  0.00  0.00    +0.000 HD
ENDBRANCH  21  24
ENDBRANCH   7  18
TORSDOF 3
ENDMDL
MODEL 4
REMARK VINA RESULT:      -7.3      0.510      1.798
REMARK  Name = 
REMARK  4 active torsions:
REMARK  status: ('A' for Active; 'I' for Inactive)
REMARK    1  A    between atoms: C_1  and  C_2
REMARK    2  A    between atoms: C_6  and  N_7
REMARK    3  A    between atoms: N_13  and  C_14
REMARK    4  A    between atoms: C_17  and  O_18
REMARK                            x       y       z     vdW  Elec       q    Type
REMARK                         _______ _______ _______ _____ _____    ______ ____
ROOT
ATOM      1  N   UNL     1      -0.662  11.149  22.388  0.00  0.00    +0.000 N 
ATOM      2  C   UNL     1      -0.670  11.037  20.926  0.00  0.00    +0.000 C 
ATOM      3  C   UNL     1       0.687  10.488  20.480  0.00  0.00    +0.000 C 
ATOM      4  N   UNL     1       0.965   9.192  21.113  0.00  0.00    +0.000 N 
ATOM      5  C   UNL     1       1.500   8.211  20.296  0.00  0.00    +0.000 C 
ATOM      6  O   UNL     1       1.716   8.447  19.107  0.00  0.00    +0.000 OA
ATOM      7  N   UNL     1       1.708   6.981  20.880  0.00  0.00    +0.000 N 
ATOM      8  C   UNL     1       0.889   9.222  22.588  0.00  0.00    +0.000 C 
ATOM      9  C   UNL     1      -0.424   9.877  23.095  0.00  0.00    +0.000 C 
ATOM     10  H   UNL     1       1.210   6.799  21.734  0.00  0.00    +0.000 HD
ENDROOT
BRANCH   1  16
ATOM     11  C   UNL     1      -1.217  15.909  23.431  0.00  0.00    +0.000 C 
ATOM     12  C   UNL     1      -1.756  14.510  23.477  0.00  0.00    +0.000 A 
ATOM     13  C   UNL     1      -3.066  14.254  23.886  0.00  0.00    +0.000 A 
ATOM     14  C   UNL     1      -3.559  12.952  23.869  0.00  0.00    +0.000 A 
ATOM     15  C   UNL     1      -2.752  11.904  23.417  0.00  0.00    +0.000 A 
ATOM     16  C   UNL     1      -1.438  12.130  22.985  0.00  0.00    +0.000 A 
ATOM     17  C   UNL     1      -0.950  13.442  23.053  0.00  0.00    +0.000 A 
ENDBRANCH   1  16
BRANCH   7  18
ATOM     18  C   UNL     1       2.212   5.843  20.205  0.00  0.00    +0.000 A 
ATOM     19  C   UNL     1       3.420   5.841  19.496  0.00  0.00    +0.000 A 
ATOM     20  C   UNL     1       3.826   4.723  18.762  0.00  0.00    +0.000 A 
ATOM     21  C   UNL     1       3.030   3.586  18.761  0.00  0.00    +0.000 A 
ATOM     22  C   UNL     1       1.856   3.544  19.501  0.00  0.00    +0.000 A 
ATOM     23  C   UNL     1       1.450   4.669  20.229  0.00  0.00    +0.000 A 
BRANCH  21  24
ATOM     24  O   UNL     1       3.373   2.488  18.031  0.00  0.00    +0.000 OA
ATOM     25  H   UNL     1       3.294   2.712  17.088  0.00  0.00    +0.000 HD
ENDBRANCH  21  24
ENDBRANCH   7  18
TORSDOF 3
ENDMDL
MODEL 5
REMARK VINA RESULT:      -7.3      2.910      9.282
REMARK  Name = 
REMARK  4 active torsions:
REMARK  status: ('A' for Active; 'I' for Inactive)
REMARK    1  A    between atoms: C_1  and  C_2
REMARK    2  A    between atoms: C_6  and  N_7
REMARK    3  A    between atoms: N_13  and  C_14
REMARK    4  A    between atoms: C_17  and  O_18
REMARK                            x       y       z     vdW  Elec       q    Type
REMARK                         _______ _______ _______ _____ _____    ______ ____
ROOT
ATOM      1  N   UNL     1       1.558   8.346  19.569  0.00  0.00    +0.000 N 
ATOM      2  C   UNL     1       1.341   9.641  18.916  0.00  0.00    +0.000 C 
ATOM      3  C   UNL     1      -0.093  10.090  19.208  0.00  0.00    +0.000 C 
ATOM      4  N   UNL     1      -0.336  10.174  20.654  0.00  0.00    +0.000 N 
ATOM      5  C   UNL     1      -1.033  11.283  21.097  0.00  0.00    +0.000 C 
ATOM      6  O   UNL     1      -1.414  12.135  20.293  0.00  0.00    +0.000 OA
ATOM      7  N   UNL     1      -1.211  11.387  22.459  0.00  0.00    +0.000 N 
ATOM      8  C   UNL     1      -0.037   8.923  21.380  0.00  0.00    +0.000 C 
ATOM      9  C   UNL     1       1.367   8.360  21.031  0.00  0.00    +0.000 C 
ATOM     10  H   UNL     1      -0.599  10.834  23.035  0.00  0.00    +0.000 HD
ENDROOT
BRANCH   1  16
ATOM     11  C   UNL     1       3.338   3.778  19.458  0.00  0.00    +0.000 C 
ATOM     12  C   UNL     1       3.334   5.171  18.904  0.00  0.00    +0.000 A 
ATOM     13  C   UNL     1       4.030   5.484  17.735  0.00  0.00    +0.000 A 
ATOM     14  C   UNL     1       3.967   6.773  17.211  0.00  0.00    +0.000 A 
ATOM     15  C   UNL     1       3.185   7.746  17.840  0.00  0.00    +0.000 A 
ATOM     16  C   UNL     1       2.461   7.459  19.005  0.00  0.00    +0.000 A 
ATOM     17  C   UNL     1       2.577   6.167  19.537  0.00  0.00    +0.000 A 
ENDBRANCH   1  16
BRANCH   7  18
ATOM     18  C   UNL     1      -1.865  12.462  23.108  0.00  0.00    +0.000 A 
ATOM     19  C   UNL     1      -1.230  13.670  23.425  0.00  0.00    +0.000 A 
ATOM     20  C   UNL     1      -1.889  14.662  24.156  0.00  0.00    +0.000 A 
ATOM     21  C   UNL     1      -3.204  14.457  24.548  0.00  0.00    +0.000 A 
ATOM     22  C   UNL     1      -3.872  13.292  24.197  0.00  0.00    +0.000 A 
ATOM     23  C   UNL     1      -3.207  12.297  23.471  0.00  0.00    +0.000 A 
BRANCH  21  24
ATOM     24  O   UNL     1      -3.870  15.385  25.290  0.00  0.00    +0.000 OA
ATOM     25  H   UNL     1      -3.229  16.049  25.595  0.00  0.00    +0.000 HD
ENDBRANCH  21  24
ENDBRANCH   7  18
TORSDOF 3
ENDMDL
MODEL 6
REMARK VINA RESULT:      -7.3      1.306      1.761
REMARK  Name = 
REMARK  4 active torsions:
REMARK  status: ('A' for Active; 'I' for Inactive)
REMARK    1  A    between atoms: C_1  and  C_2
REMARK    2  A    between atoms: C_6  and  N_7
REMARK    3  A    between atoms: N_13  and  C_14
REMARK    4  A    between atoms: C_17  and  O_18
REMARK                            x       y       z     vdW  Elec       q    Type
REMARK                         _______ _______ _______ _____ _____    ______ ____
ROOT
ATOM      1  N   UNL     1      -0.422  10.747  21.233  0.00  0.00    +0.000 N 
ATOM      2  C   UNL     1      -0.374  10.444  19.799  0.00  0.00    +0.000 C 
ATOM      3  C   UNL     1       1.023   9.912  19.469  0.00  0.00    +0.000 C 
ATOM      4  N   UNL     1       1.340   8.726  20.275  0.00  0.00    +0.000 N 
ATOM      5  C   UNL     1       1.949   7.676  19.612  0.00  0.00    +0.000 C 
ATOM      6  O   UNL     1       2.195   7.765  18.408  0.00  0.00    +0.000 OA
ATOM      7  N   UNL     1       2.195   6.545  20.359  0.00  0.00    +0.000 N 
ATOM      8  C   UNL     1       1.211   8.945  21.730  0.00  0.00    +0.000 C 
ATOM      9  C   UNL     1      -0.149   9.592  22.109  0.00  0.00    +0.000 C 
ATOM     10  H   UNL     1       1.676   6.451  21.214  0.00  0.00    +0.000 HD
ENDROOT
BRANCH   1  16
ATOM     11  C   UNL     1      -4.446  13.422  20.395  0.00  0.00    +0.000 C 
ATOM     12  C   UNL     1      -3.297  13.073  21.293  0.00  0.00    +0.000 A 
ATOM     13  C   UNL     1      -3.222  13.569  22.596  0.00  0.00    +0.000 A 
ATOM     14  C   UNL     1      -2.173  13.187  23.427  0.00  0.00    +0.000 A 
ATOM     15  C   UNL     1      -1.208  12.285  22.968  0.00  0.00    +0.000 A 
ATOM     16  C   UNL     1      -1.265  11.756  21.672  0.00  0.00    +0.000 A 
ATOM     17  C   UNL     1      -2.305  12.190  20.839  0.00  0.00    +0.000 A 
ENDBRANCH   1  16
BRANCH   7  18
ATOM     18  C   UNL     1       2.776   5.356  19.855  0.00  0.00    +0.000 A 
ATOM     19  C   UNL     1       4.141   5.227  19.572  0.00  0.00    +0.000 A 
ATOM     20  C   UNL     1       4.650   4.067  18.981  0.00  0.00    +0.000 A 
ATOM     21  C   UNL     1       3.791   3.015  18.698  0.00  0.00    +0.000 A 
ATOM     22  C   UNL     1       2.442   3.098  19.021  0.00  0.00    +0.000 A 
ATOM     23  C   UNL     1       1.935   4.264  19.606  0.00  0.00    +0.000 A 
BRANCH  21  24
ATOM     24  O   UNL     1       4.241   1.882  18.091  0.00  0.00    +0.000 OA
ATOM     25  H   UNL     1       5.185   1.778  18.300  0.00  0.00    +0.000 HD
ENDBRANCH  21  24
ENDBRANCH   7  18
TORSDOF 3
ENDMDL
MODEL 7
REMARK VINA RESULT:      -7.3      2.947      9.352
REMARK  Name = 
REMARK  4 active torsions:
REMARK  status: ('A' for Active; 'I' for Inactive)
REMARK    1  A    between atoms: C_1  and  C_2
REMARK    2  A    between atoms: C_6  and  N_7
REMARK    3  A    between atoms: N_13  and  C_14
REMARK    4  A    between atoms: C_17  and  O_18
REMARK                            x       y       z     vdW  Elec       q    Type
REMARK                         _______ _______ _______ _____ _____    ______ ____
ROOT
ATOM      1  N   UNL     1       1.580   8.087  19.710  0.00  0.00    +0.000 N 
ATOM      2  C   UNL     1       1.471   9.395  19.054  0.00  0.00    +0.000 C 
ATOM      3  C   UNL     1       0.050   9.922  19.271  0.00  0.00    +0.000 C 
ATOM      4  N   UNL     1      -0.265  10.015  20.703  0.00  0.00    +0.000 N 
ATOM      5  C   UNL     1      -0.923  11.160  21.114  0.00  0.00    +0.000 C 
ATOM      6  O   UNL     1      -1.212  12.034  20.297  0.00  0.00    +0.000 OA
ATOM      7  N   UNL     1      -1.168  11.268  22.466  0.00  0.00    +0.000 N 
ATOM      8  C   UNL     1      -0.076   8.746  21.436  0.00  0.00    +0.000 C 
ATOM      9  C   UNL     1       1.312   8.108  21.160  0.00  0.00    +0.000 C 
ATOM     10  H   UNL     1      -0.620  10.681  23.070  0.00  0.00    +0.000 HD
ENDROOT
BRANCH   1  16
ATOM     11  C   UNL     1       4.867   7.000  16.236  0.00  0.00    +0.000 C 
ATOM     12  C   UNL     1       4.141   6.608  17.488  0.00  0.00    +0.000 A 
ATOM     13  C   UNL     1       4.509   5.472  18.211  0.00  0.00    +0.000 A 
ATOM     14  C   UNL     1       3.854   5.160  19.399  0.00  0.00    +0.000 A 
ATOM     15  C   UNL     1       2.845   5.997  19.883  0.00  0.00    +0.000 A 
ATOM     16  C   UNL     1       2.463   7.154  19.189  0.00  0.00    +0.000 A 
ATOM     17  C   UNL     1       3.107   7.423  17.974  0.00  0.00    +0.000 A 
ENDBRANCH   1  16
BRANCH   7  18
ATOM     18  C   UNL     1      -1.795  12.376  23.085  0.00  0.00    +0.000 A 
ATOM     19  C   UNL     1      -1.133  13.577  23.367  0.00  0.00    +0.000 A 
ATOM     20  C   UNL     1      -1.766  14.605  24.070  0.00  0.00    +0.000 A 
ATOM     21  C   UNL     1      -3.085  14.442  24.470  0.00  0.00    +0.000 A 
ATOM     22  C   UNL     1      -3.781  13.282  24.153  0.00  0.00    +0.000 A 
ATOM     23  C   UNL     1      -3.140  12.253  23.454  0.00  0.00    +0.000 A 
BRANCH  21  24
ATOM     24  O   UNL     1      -3.728  15.405  25.187  0.00  0.00    +0.000 OA
ATOM     25  H   UNL     1      -4.575  15.042  25.495  0.00  0.00    +0.000 HD
ENDBRANCH  21  24
ENDBRANCH   7  18
TORSDOF 3
ENDMDL
MODEL 8
REMARK VINA RESULT:      -7.2      2.916      9.409
REMARK  Name = 
REMARK  4 active torsions:
REMARK  status: ('A' for Active; 'I' for Inactive)
REMARK    1  A    between atoms: C_1  and  C_2
REMARK    2  A    between atoms: C_6  and  N_7
REMARK    3  A    between atoms: N_13  and  C_14
REMARK    4  A    between atoms: C_17  and  O_18
REMARK                            x       y       z     vdW  Elec       q    Type
REMARK                         _______ _______ _______ _____ _____    ______ ____
ROOT
ATOM      1  N   UNL     1       1.854   7.950  19.685  0.00  0.00    +0.000 N 
ATOM      2  C   UNL     1       1.295   7.540  20.978  0.00  0.00    +0.000 C 
ATOM      3  C   UNL     1       1.439   8.710  21.954  0.00  0.00    +0.000 C 
ATOM      4  N   UNL     1       0.768   9.911  21.440  0.00  0.00    +0.000 N 
ATOM      5  C   UNL     1       0.019  10.634  22.351  0.00  0.00    +0.000 C 
ATOM      6  O   UNL     1      -0.060  10.260  23.522  0.00  0.00    +0.000 OA
ATOM      7  N   UNL     1      -0.653  11.729  21.854  0.00  0.00    +0.000 N 
ATOM      8  C   UNL     1       1.222  10.315  20.094  0.00  0.00    +0.000 C 
ATOM      9  C   UNL     1       1.205   9.132  19.088  0.00  0.00    +0.000 C 
ATOM     10  H   UNL     1      -0.788  11.758  20.858  0.00  0.00    +0.000 HD
ENDROOT
BRANCH   1  16
ATOM     11  C   UNL     1       5.261   6.829  16.341  0.00  0.00    +0.000 C 
ATOM     12  C   UNL     1       4.129   6.391  17.221  0.00  0.00    +0.000 A 
ATOM     13  C   UNL     1       3.813   5.039  17.372  0.00  0.00    +0.000 A 
ATOM     14  C   UNL     1       2.792   4.656  18.236  0.00  0.00    +0.000 A 
ATOM     15  C   UNL     1       2.101   5.619  18.976  0.00  0.00    +0.000 A 
ATOM     16  C   UNL     1       2.406   6.982  18.861  0.00  0.00    +0.000 A 
ATOM     17  C   UNL     1       3.407   7.348  17.951  0.00  0.00    +0.000 A 
ENDBRANCH   1  16
BRANCH   7  18
ATOM     18  C   UNL     1      -1.497  12.572  22.616  0.00  0.00    +0.000 A 
ATOM     19  C   UNL     1      -1.086  13.806  23.136  0.00  0.00    +0.000 A 
ATOM     20  C   UNL     1      -1.923  14.555  23.966  0.00  0.00    +0.000 A 
ATOM     21  C   UNL     1      -3.195  14.081  24.256  0.00  0.00    +0.000 A 
ATOM     22  C   UNL     1      -3.646  12.888  23.707  0.00  0.00    +0.000 A 
ATOM     23  C   UNL     1      -2.801  12.137  22.881  0.00  0.00    +0.000 A 
BRANCH  21  24
ATOM     24  O   UNL     1      -4.029  14.765  25.089  0.00  0.00    +0.000 OA
ATOM     25  H   UNL     1      -3.488  15.334  25.662  0.00  0.00    +0.000 HD
ENDBRANCH  21  24
ENDBRANCH   7  18
TORSDOF 3
ENDMDL
MODEL 9
REMARK VINA RESULT:      -7.2      0.612      1.175
REMARK  Name = 
REMARK  4 active torsions:
REMARK  status: ('A' for Active; 'I' for Inactive)
REMARK    1  A    between atoms: C_1  and  C_2
REMARK    2  A    between atoms: C_6  and  N_7
REMARK    3  A    between atoms: N_13  and  C_14
REMARK    4  A    between atoms: C_17  and  O_18
REMARK                            x       y       z     vdW  Elec       q    Type
REMARK                         _______ _______ _______ _____ _____    ______ ____
ROOT
ATOM      1  N   UNL     1      -0.481  10.932  21.475  0.00  0.00    +0.000 N 
ATOM      2  C   UNL     1      -0.447  10.625  20.041  0.00  0.00    +0.000 C 
ATOM      3  C   UNL     1       0.930  10.048  19.707  0.00  0.00    +0.000 C 
ATOM      4  N   UNL     1       1.213   8.854  20.515  0.00  0.00    +0.000 N 
ATOM      5  C   UNL     1       1.785   7.784  19.851  0.00  0.00    +0.000 C 
ATOM      6  O   UNL     1       2.030   7.864  18.646  0.00  0.00    +0.000 OA
ATOM      7  N   UNL     1       1.998   6.647  20.599  0.00  0.00    +0.000 N 
ATOM      8  C   UNL     1       1.096   9.080  21.970  0.00  0.00    +0.000 C 
ATOM      9  C   UNL     1      -0.241   9.771  22.353  0.00  0.00    +0.000 C 
ATOM     10  H   UNL     1       1.480   6.571  21.457  0.00  0.00    +0.000 HD
ENDROOT
BRANCH   1  16
ATOM     11  C   UNL     1      -4.075  12.370  24.486  0.00  0.00    +0.000 C 
ATOM     12  C   UNL     1      -3.053  12.716  23.444  0.00  0.00    +0.000 A 
ATOM     13  C   UNL     1      -2.778  14.045  23.115  0.00  0.00    +0.000 A 
ATOM     14  C   UNL     1      -1.788  14.341  22.183  0.00  0.00    +0.000 A 
ATOM     15  C   UNL     1      -1.049  13.311  21.595  0.00  0.00    +0.000 A 
ATOM     16  C   UNL     1      -1.289  11.968  21.916  0.00  0.00    +0.000 A 
ATOM     17  C   UNL     1      -2.321  11.693  22.823  0.00  0.00    +0.000 A 
ENDBRANCH   1  16
BRANCH   7  18
ATOM     18  C   UNL     1       2.538   5.440  20.095  0.00  0.00    +0.000 A 
ATOM     19  C   UNL     1       3.839   5.332  19.587  0.00  0.00    +0.000 A 
ATOM     20  C   UNL     1       4.293   4.144  19.008  0.00  0.00    +0.000 A 
ATOM     21  C   UNL     1       3.448   3.044  18.965  0.00  0.00    +0.000 A 
ATOM     22  C   UNL     1       2.174   3.109  19.513  0.00  0.00    +0.000 A 
ATOM     23  C   UNL     1       1.721   4.303  20.085  0.00  0.00    +0.000 A 
BRANCH  21  24
ATOM     24  O   UNL     1       3.840   1.878  18.378  0.00  0.00    +0.000 OA
ATOM     25  H   UNL     1       4.735   2.002  18.020  0.00  0.00    +0.000 HD
ENDBRANCH  21  24
ENDBRANCH   7  18
TORSDOF 3
ENDMDL
