MODEL 1
REMARK VINA RESULT:      -6.9      0.000      0.000
REMARK  Name = 
REMARK  3 active torsions:
REMARK  status: ('A' for Active; 'I' for Inactive)
REMARK    1  A    between atoms: O_1  and  C_2
REMARK    2  A    between atoms: C_2  and  C_3
REMARK    3  A    between atoms: C_3  and  C_4
REMARK                            x       y       z     vdW  Elec       q    Type
REMARK                         _______ _______ _______ _____ _____    ______ ____
ROOT
ATOM      1  C   UNL     1       4.863   4.448  17.405  0.00  0.00    +0.000 C 
ATOM      2  C   UNL     1       5.128   4.493  15.884  0.00  0.00    +0.000 C 
ATOM      3  C   UNL     1       6.544   4.041  15.527  0.00  0.00    +0.000 C 
ATOM      4  N   UNL     1       7.551   4.830  16.235  0.00  0.00    +0.000 NA
ATOM      5  C   UNL     1       7.391   4.656  17.680  0.00  0.00    +0.000 C 
ATOM      6  C   UNL     1       6.016   5.128  18.161  0.00  0.00    +0.000 C 
ATOM      7  H   UNL     1       7.446   5.815  15.997  0.00  0.00    +0.000 HD
ENDROOT
BRANCH   1   8
ATOM      8  O   UNL     1       4.814   3.068  17.797  0.00  0.00    +0.000 OA
ATOM      9  H   UNL     1       4.366   2.567  17.096  0.00  0.00    +0.000 HD
ENDBRANCH   1   8
BRANCH   1  10
ATOM     10  C   UNL     1       3.496   5.125  17.694  0.00  0.00    +0.000 C 
BRANCH  10  11
ATOM     11  C   UNL     1       2.629   4.484  18.757  0.00  0.00    +0.000 A 
ATOM     12  C   UNL     1       1.621   3.575  18.406  0.00  0.00    +0.000 A 
ATOM     13  C   UNL     1       0.857   2.945  19.390  0.00  0.00    +0.000 A 
ATOM     14  C   UNL     1       1.096   3.208  20.736  0.00  0.00    +0.000 A 
ATOM     15  C   UNL     1       2.090   4.116  21.098  0.00  0.00    +0.000 A 
ATOM     16  C   UNL     1       2.845   4.757  20.114  0.00  0.00    +0.000 A 
ENDBRANCH  10  11
ENDBRANCH   1  10
TORSDOF 3
ENDMDL
MODEL 2
REMARK VINA RESULT:      -6.8      0.139      1.295
REMARK  Name = 
REMARK  3 active torsions:
REMARK  status: ('A' for Active; 'I' for Inactive)
REMARK    1  A    between atoms: O_1  and  C_2
REMARK    2  A    between atoms: C_2  and  C_3
REMARK    3  A    between atoms: C_3  and  C_4
REMARK                            x       y       z     vdW  Elec       q    Type
REMARK                         _______ _______ _______ _____ _____    ______ ____
ROOT
ATOM      1  C   UNL     1       4.878   4.441  17.269  0.00  0.00    +0.000 C 
ATOM      2  C   UNL     1       5.141   4.564  15.752  0.00  0.00    +0.000 C 
ATOM      3  C   UNL     1       6.554   4.125  15.370  0.00  0.00    +0.000 C 
ATOM      4  N   UNL     1       7.565   4.873  16.116  0.00  0.00    +0.000 NA
ATOM      5  C   UNL     1       7.407   4.626  17.550  0.00  0.00    +0.000 C 
ATOM      6  C   UNL     1       6.034   5.076  18.057  0.00  0.00    +0.000 C 
ATOM      7  H   UNL     1       7.463   5.869  15.929  0.00  0.00    +0.000 HD
ENDROOT
BRANCH   1   8
ATOM      8  O   UNL     1       4.824   3.043  17.589  0.00  0.00    +0.000 OA
ATOM      9  H   UNL     1       3.915   2.732  17.449  0.00  0.00    +0.000 HD
ENDBRANCH   1   8
BRANCH   1  10
ATOM     10  C   UNL     1       3.513   5.106  17.595  0.00  0.00    +0.000 C 
BRANCH  10  11
ATOM     11  C   UNL     1       2.693   4.475  18.699  0.00  0.00    +0.000 A 
ATOM     12  C   UNL     1       2.933   4.797  20.043  0.00  0.00    +0.000 A 
ATOM     13  C   UNL     1       2.142   4.255  21.057  0.00  0.00    +0.000 A 
ATOM     14  C   UNL     1       1.097   3.392  20.742  0.00  0.00    +0.000 A 
ATOM     15  C   UNL     1       0.852   3.057  19.411  0.00  0.00    +0.000 A 
ATOM     16  C   UNL     1       1.652   3.588  18.397  0.00  0.00    +0.000 A 
ENDBRANCH  10  11
ENDBRANCH   1  10
TORSDOF 3
ENDMDL
MODEL 3
REMARK VINA RESULT:      -6.7      1.039      1.612
REMARK  Name = 
REMARK  3 active torsions:
REMARK  status: ('A' for Active; 'I' for Inactive)
REMARK    1  A    between atoms: O_1  and  C_2
REMARK    2  A    between atoms: C_2  and  C_3
REMARK    3  A    between atoms: C_3  and  C_4
REMARK                            x       y       z     vdW  Elec       q    Type
REMARK                         _______ _______ _______ _____ _____    ______ ____
ROOT
ATOM      1  C   UNL     1       4.862   5.395  17.533  0.00  0.00    +0.000 C 
ATOM      2  C   UNL     1       5.068   4.547  16.259  0.00  0.00    +0.000 C 
ATOM      3  C   UNL     1       6.547   4.324  15.942  0.00  0.00    +0.000 C 
ATOM      4  N   UNL     1       7.264   5.593  15.821  0.00  0.00    +0.000 NA
ATOM      5  C   UNL     1       7.197   6.323  17.088  0.00  0.00    +0.000 C 
ATOM      6  C   UNL     1       5.754   6.647  17.482  0.00  0.00    +0.000 C 
ATOM      7  H   UNL     1       6.846   6.155  15.082  0.00  0.00    +0.000 HD
ENDROOT
BRANCH   1   8
ATOM      8  O   UNL     1       5.263   4.597  18.657  0.00  0.00    +0.000 OA
ATOM      9  H   UNL     1       5.614   3.755  18.323  0.00  0.00    +0.000 HD
ENDBRANCH   1   8
BRANCH   1  10
ATOM     10  C   UNL     1       3.357   5.755  17.655  0.00  0.00    +0.000 C 
BRANCH  10  11
ATOM     11  C   UNL     1       2.493   4.811  18.465  0.00  0.00    +0.000 A 
ATOM     12  C   UNL     1       2.161   5.107  19.794  0.00  0.00    +0.000 A 
ATOM     13  C   UNL     1       1.321   4.262  20.523  0.00  0.00    +0.000 A 
ATOM     14  C   UNL     1       0.797   3.117  19.930  0.00  0.00    +0.000 A 
ATOM     15  C   UNL     1       1.125   2.807  18.611  0.00  0.00    +0.000 A 
ATOM     16  C   UNL     1       1.976   3.644  17.887  0.00  0.00    +0.000 A 
ENDBRANCH  10  11
ENDBRANCH   1  10
TORSDOF 3
ENDMDL
MODEL 4
REMARK VINA RESULT:      -6.7      1.023      1.035
REMARK  Name = 
REMARK  3 active torsions:
REMARK  status: ('A' for Active; 'I' for Inactive)
REMARK    1  A    between atoms: O_1  and  C_2
REMARK    2  A    between atoms: C_2  and  C_3
REMARK    3  A    between atoms: C_3  and  C_4
REMARK                            x       y       z     vdW  Elec       q    Type
REMARK                         _______ _______ _______ _____ _____    ______ ____
ROOT
ATOM      1  C   UNL     1       4.833   5.407  17.520  0.00  0.00    +0.000 C 
ATOM      2  C   UNL     1       5.005   4.596  16.217  0.00  0.00    +0.000 C 
ATOM      3  C   UNL     1       6.473   4.321  15.892  0.00  0.00    +0.000 C 
ATOM      4  N   UNL     1       7.244   5.561  15.816  0.00  0.00    +0.000 NA
ATOM      5  C   UNL     1       7.206   6.249  17.107  0.00  0.00    +0.000 C 
ATOM      6  C   UNL     1       5.778   6.620  17.513  0.00  0.00    +0.000 C 
ATOM      7  H   UNL     1       6.851   6.166  15.096  0.00  0.00    +0.000 HD
ENDROOT
BRANCH   1   8
ATOM      8  O   UNL     1       5.199   4.554  18.615  0.00  0.00    +0.000 OA
ATOM      9  H   UNL     1       4.974   5.008  19.444  0.00  0.00    +0.000 HD
ENDBRANCH   1   8
BRANCH   1  10
ATOM     10  C   UNL     1       3.345   5.826  17.656  0.00  0.00    +0.000 C 
BRANCH  10  11
ATOM     11  C   UNL     1       2.444   4.899  18.444  0.00  0.00    +0.000 A 
ATOM     12  C   UNL     1       1.928   3.734  17.859  0.00  0.00    +0.000 A 
ATOM     13  C   UNL     1       1.140   2.853  18.603  0.00  0.00    +0.000 A 
ATOM     14  C   UNL     1       0.866   3.121  19.940  0.00  0.00    +0.000 A 
ATOM     15  C   UNL     1       1.366   4.279  20.532  0.00  0.00    +0.000 A 
ATOM     16  C   UNL     1       2.142   5.168  19.785  0.00  0.00    +0.000 A 
ENDBRANCH  10  11
ENDBRANCH   1  10
TORSDOF 3
ENDMDL
MODEL 5
REMARK VINA RESULT:      -6.6      1.463      1.653
REMARK  Name = 
REMARK  3 active torsions:
REMARK  status: ('A' for Active; 'I' for Inactive)
REMARK    1  A    between atoms: O_1  and  C_2
REMARK    2  A    between atoms: C_2  and  C_3
REMARK    3  A    between atoms: C_3  and  C_4
REMARK                            x       y       z     vdW  Elec       q    Type
REMARK                         _______ _______ _______ _____ _____    ______ ____
ROOT
ATOM      1  C   UNL     1       4.899   4.095  17.425  0.00  0.00    +0.000 C 
ATOM      2  C   UNL     1       5.399   4.041  15.966  0.00  0.00    +0.000 C 
ATOM      3  C   UNL     1       6.253   5.253  15.597  0.00  0.00    +0.000 C 
ATOM      4  N   UNL     1       5.534   6.504  15.834  0.00  0.00    +0.000 NA
ATOM      5  C   UNL     1       5.201   6.623  17.253  0.00  0.00    +0.000 C 
ATOM      6  C   UNL     1       4.299   5.479  17.724  0.00  0.00    +0.000 C 
ATOM      7  H   UNL     1       4.679   6.519  15.280  0.00  0.00    +0.000 HD
ENDROOT
BRANCH   1   8
ATOM      8  O   UNL     1       6.033   3.898  18.282  0.00  0.00    +0.000 OA
ATOM      9  H   UNL     1       6.763   4.449  17.954  0.00  0.00    +0.000 HD
ENDBRANCH   1   8
BRANCH   1  10
ATOM     10  C   UNL     1       3.870   2.953  17.645  0.00  0.00    +0.000 C 
BRANCH  10  11
ATOM     11  C   UNL     1       2.994   3.052  18.876  0.00  0.00    +0.000 A 
ATOM     12  C   UNL     1       1.647   3.423  18.767  0.00  0.00    +0.000 A 
ATOM     13  C   UNL     1       0.826   3.463  19.896  0.00  0.00    +0.000 A 
ATOM     14  C   UNL     1       1.338   3.123  21.145  0.00  0.00    +0.000 A 
ATOM     15  C   UNL     1       2.678   2.759  21.268  0.00  0.00    +0.000 A 
ATOM     16  C   UNL     1       3.503   2.733  20.142  0.00  0.00    +0.000 A 
ENDBRANCH  10  11
ENDBRANCH   1  10
TORSDOF 3
ENDMDL
MODEL 6
REMARK VINA RESULT:      -6.6      1.473      1.984
REMARK  Name = 
REMARK  3 active torsions:
REMARK  status: ('A' for Active; 'I' for Inactive)
REMARK    1  A    between atoms: O_1  and  C_2
REMARK    2  A    between atoms: C_2  and  C_3
REMARK    3  A    between atoms: C_3  and  C_4
REMARK                            x       y       z     vdW  Elec       q    Type
REMARK                         _______ _______ _______ _____ _____    ______ ____
ROOT
ATOM      1  C   UNL     1       4.863   4.069  17.428  0.00  0.00    +0.000 C 
ATOM      2  C   UNL     1       5.404   4.031  15.983  0.00  0.00    +0.000 C 
ATOM      3  C   UNL     1       6.236   5.266  15.640  0.00  0.00    +0.000 C 
ATOM      4  N   UNL     1       5.479   6.498  15.860  0.00  0.00    +0.000 NA
ATOM      5  C   UNL     1       5.104   6.604  17.270  0.00  0.00    +0.000 C 
ATOM      6  C   UNL     1       4.220   5.436  17.714  0.00  0.00    +0.000 C 
ATOM      7  H   UNL     1       4.639   6.492  15.284  0.00  0.00    +0.000 HD
ENDROOT
BRANCH   1   8
ATOM      8  O   UNL     1       5.979   3.898  18.315  0.00  0.00    +0.000 OA
ATOM      9  H   UNL     1       6.796   3.961  17.793  0.00  0.00    +0.000 HD
ENDBRANCH   1   8
BRANCH   1  10
ATOM     10  C   UNL     1       3.859   2.900  17.618  0.00  0.00    +0.000 C 
BRANCH  10  11
ATOM     11  C   UNL     1       2.972   2.954  18.844  0.00  0.00    +0.000 A 
ATOM     12  C   UNL     1       3.490   2.668  20.115  0.00  0.00    +0.000 A 
ATOM     13  C   UNL     1       2.685   2.770  21.251  0.00  0.00    +0.000 A 
ATOM     14  C   UNL     1       1.356   3.166  21.132  0.00  0.00    +0.000 A 
ATOM     15  C   UNL     1       0.826   3.446  19.873  0.00  0.00    +0.000 A 
ATOM     16  C   UNL     1       1.628   3.331  18.735  0.00  0.00    +0.000 A 
ENDBRANCH  10  11
ENDBRANCH   1  10
TORSDOF 3
ENDMDL
MODEL 7
REMARK VINA RESULT:      -6.5      1.546      2.087
REMARK  Name = 
REMARK  3 active torsions:
REMARK  status: ('A' for Active; 'I' for Inactive)
REMARK    1  A    between atoms: O_1  and  C_2
REMARK    2  A    between atoms: C_2  and  C_3
REMARK    3  A    between atoms: C_3  and  C_4
REMARK                            x       y       z     vdW  Elec       q    Type
REMARK                         _______ _______ _______ _____ _____    ______ ____
ROOT
ATOM      1  C   UNL     1       4.303   5.884  17.747  0.00  0.00    +0.000 C 
ATOM      2  C   UNL     1       4.906   5.544  19.127  0.00  0.00    +0.000 C 
ATOM      3  C   UNL     1       6.395   5.211  19.046  0.00  0.00    +0.000 C 
ATOM      4  N   UNL     1       6.647   4.118  18.107  0.00  0.00    +0.000 NA
ATOM      5  C   UNL     1       6.216   4.509  16.764  0.00  0.00    +0.000 C 
ATOM      6  C   UNL     1       4.718   4.821  16.716  0.00  0.00    +0.000 C 
ATOM      7  H   UNL     1       6.135   3.288  18.401  0.00  0.00    +0.000 HD
ENDROOT
BRANCH   1   8
ATOM      8  O   UNL     1       4.843   7.149  17.335  0.00  0.00    +0.000 OA
ATOM      9  H   UNL     1       5.614   6.982  16.769  0.00  0.00    +0.000 HD
ENDBRANCH   1   8
BRANCH   1  10
ATOM     10  C   UNL     1       2.761   5.992  17.887  0.00  0.00    +0.000 C 
BRANCH  10  11
ATOM     11  C   UNL     1       2.065   4.880  18.643  0.00  0.00    +0.000 A 
ATOM     12  C   UNL     1       1.674   3.704  17.987  0.00  0.00    +0.000 A 
ATOM     13  C   UNL     1       1.080   2.658  18.697  0.00  0.00    +0.000 A 
ATOM     14  C   UNL     1       0.877   2.770  20.069  0.00  0.00    +0.000 A 
ATOM     15  C   UNL     1       1.255   3.937  20.732  0.00  0.00    +0.000 A 
ATOM     16  C   UNL     1       1.837   4.989  20.021  0.00  0.00    +0.000 A 
ENDBRANCH  10  11
ENDBRANCH   1  10
TORSDOF 3
ENDMDL
MODEL 8
REMARK VINA RESULT:      -6.5      1.532      2.401
REMARK  Name = 
REMARK  3 active torsions:
REMARK  status: ('A' for Active; 'I' for Inactive)
REMARK    1  A    between atoms: O_1  and  C_2
REMARK    2  A    between atoms: C_2  and  C_3
REMARK    3  A    between atoms: C_3  and  C_4
REMARK                            x       y       z     vdW  Elec       q    Type
REMARK                         _______ _______ _______ _____ _____    ______ ____
ROOT
ATOM      1  C   UNL     1       4.395   5.899  17.715  0.00  0.00    +0.000 C 
ATOM      2  C   UNL     1       5.007   5.565  19.093  0.00  0.00    +0.000 C 
ATOM      3  C   UNL     1       6.498   5.242  19.005  0.00  0.00    +0.000 C 
ATOM      4  N   UNL     1       6.752   4.150  18.066  0.00  0.00    +0.000 NA
ATOM      5  C   UNL     1       6.312   4.537  16.725  0.00  0.00    +0.000 C 
ATOM      6  C   UNL     1       4.812   4.838  16.683  0.00  0.00    +0.000 C 
ATOM      7  H   UNL     1       6.248   3.317  18.363  0.00  0.00    +0.000 HD
ENDROOT
BRANCH   1   8
ATOM      8  O   UNL     1       4.924   7.168  17.300  0.00  0.00    +0.000 OA
ATOM      9  H   UNL     1       4.361   7.868  17.668  0.00  0.00    +0.000 HD
ENDBRANCH   1   8
BRANCH   1  10
ATOM     10  C   UNL     1       2.853   5.997  17.863  0.00  0.00    +0.000 C 
BRANCH  10  11
ATOM     11  C   UNL     1       2.167   4.874  18.612  0.00  0.00    +0.000 A 
ATOM     12  C   UNL     1       1.893   4.991  19.982  0.00  0.00    +0.000 A 
ATOM     13  C   UNL     1       1.213   3.977  20.660  0.00  0.00    +0.000 A 
ATOM     14  C   UNL     1       0.792   2.840  19.977  0.00  0.00    +0.000 A 
ATOM     15  C   UNL     1       1.064   2.708  18.616  0.00  0.00    +0.000 A 
ATOM     16  C   UNL     1       1.756   3.715  17.940  0.00  0.00    +0.000 A 
ENDBRANCH  10  11
ENDBRANCH   1  10
TORSDOF 3
ENDMDL
MODEL 9
REMARK VINA RESULT:      -6.4      2.761      4.999
REMARK  Name = 
REMARK  3 active torsions:
REMARK  status: ('A' for Active; 'I' for Inactive)
REMARK    1  A    between atoms: O_1  and  C_2
REMARK    2  A    between atoms: C_2  and  C_3
REMARK    3  A    between atoms: C_3  and  C_4
REMARK                            x       y       z     vdW  Elec       q    Type
REMARK                         _______ _______ _______ _____ _____    ______ ____
ROOT
ATOM      1  C   UNL     1       2.022   2.739  19.084  0.00  0.00    +0.000 C 
ATOM      2  C   UNL     1       3.455   2.829  19.651  0.00  0.00    +0.000 C 
ATOM      3  C   UNL     1       3.555   2.272  21.071  0.00  0.00    +0.000 C 
ATOM      4  N   UNL     1       2.616   2.937  21.973  0.00  0.00    +0.000 NA
ATOM      5  C   UNL     1       1.245   2.713  21.514  0.00  0.00    +0.000 C 
ATOM      6  C   UNL     1       1.014   3.280  20.111  0.00  0.00    +0.000 C 
ATOM      7  H   UNL     1       2.809   3.937  21.993  0.00  0.00    +0.000 HD
ENDROOT
BRANCH   1   8
ATOM      8  O   UNL     1       1.733   1.352  18.851  0.00  0.00    +0.000 OA
ATOM      9  H   UNL     1       2.393   1.002  18.231  0.00  0.00    +0.000 HD
ENDBRANCH   1   8
BRANCH   1  10
ATOM     10  C   UNL     1       1.965   3.519  17.742  0.00  0.00    +0.000 C 
BRANCH  10  11
ATOM     11  C   UNL     1       2.879   4.718  17.611  0.00  0.00    +0.000 A 
ATOM     12  C   UNL     1       4.105   4.614  16.939  0.00  0.00    +0.000 A 
ATOM     13  C   UNL     1       4.923   5.733  16.773  0.00  0.00    +0.000 A 
ATOM     14  C   UNL     1       4.523   6.971  17.268  0.00  0.00    +0.000 A 
ATOM     15  C   UNL     1       3.310   7.087  17.945  0.00  0.00    +0.000 A 
ATOM     16  C   UNL     1       2.498   5.965  18.123  0.00  0.00    +0.000 A 
ENDBRANCH  10  11
ENDBRANCH   1  10
TORSDOF 3
ENDMDL
