MODEL 1
REMARK VINA RESULT:      -8.3      0.000      0.000
REMARK  Name = 
REMARK  7 active torsions:
REMARK  status: ('A' for Active; 'I' for Inactive)
REMARK    1  A    between atoms: C_2  and  C_3
REMARK    2  A    between atoms: C_6  and  C_7
REMARK    3  A    between atoms: C_10  and  C_11
REMARK    4  A    between atoms: C_11  and  O_12
REMARK    5  A    between atoms: C_18  and  C_19
REMARK    6  A    between atoms: C_26  and  C_27
REMARK    7  A    between atoms: C_32  and  O_33
REMARK                            x       y       z     vdW  Elec       q    Type
REMARK                         _______ _______ _______ _____ _____    ______ ____
ROOT
ATOM      1  O   UNL     1       1.005  10.319  22.105  0.00  0.00    +0.000 OA
ATOM      2  C   UNL     1       0.687   9.896  20.987  0.00  0.00    +0.000 C 
ATOM      3  N   UNL     1      -0.256  10.580  20.217  0.00  0.00    +0.000 N 
ATOM      4  N   UNL     1      -0.877  10.049  19.114  0.00  0.00    +0.000 NA
ATOM      5  C   UNL     1      -1.709  10.946  18.674  0.00  0.00    +0.000 C 
ATOM      6  C   UNL     1      -1.825  12.187  19.515  0.00  0.00    +0.000 C 
ATOM      7  C   UNL     1      -0.775  11.897  20.583  0.00  0.00    +0.000 C 
ENDROOT
BRANCH   5   8
ATOM      8  C   UNL     1      -2.496  10.768  17.443  0.00  0.00    +0.000 A 
ATOM      9  C   UNL     1      -2.095   9.906  16.423  0.00  0.00    +0.000 A 
ATOM     10  C   UNL     1      -2.893   9.772  15.289  0.00  0.00    +0.000 A 
ATOM     11  C   UNL     1      -4.067  10.507  15.214  0.00  0.00    +0.000 A 
ATOM     12  N   UNL     1      -4.487  11.346  16.185  0.00  0.00    +0.000 NA
ATOM     13  C   UNL     1      -3.693  11.455  17.281  0.00  0.00    +0.000 A 
ENDBRANCH   5   8
BRANCH   7  14
ATOM     14  C   UNL     1       0.295  12.968  20.665  0.00  0.00    +0.000 A 
ATOM     15  C   UNL     1       1.101  13.215  19.539  0.00  0.00    +0.000 A 
ATOM     16  C   UNL     1       2.047  14.240  19.548  0.00  0.00    +0.000 A 
ATOM     17  C   UNL     1       2.204  15.036  20.679  0.00  0.00    +0.000 A 
ATOM     18  C   UNL     1       1.423  14.800  21.808  0.00  0.00    +0.000 A 
ATOM     19  C   UNL     1       0.484  13.770  21.797  0.00  0.00    +0.000 A 
BRANCH  19  20
ATOM     20  O   UNL     1      -0.266  13.537  22.914  0.00  0.00    +0.000 OA
ATOM     21  H   UNL     1      -0.823  12.758  22.750  0.00  0.00    +0.000 HD
ENDBRANCH  19  20
ENDBRANCH   7  14
BRANCH   2  22
ATOM     22  C   UNL     1       1.274   8.663  20.467  0.00  0.00    +0.000 A 
ATOM     23  C   UNL     1       1.244   7.425  21.082  0.00  0.00    +0.000 A 
ATOM     24  C   UNL     1       1.927   6.423  20.332  0.00  0.00    +0.000 A 
ATOM     25  C   UNL     1       2.503   6.920  19.176  0.00  0.00    +0.000 A 
ATOM     26  S   UNL     1       2.254   8.614  19.067  0.00  0.00    +0.000 S 
BRANCH  25  27
ATOM     27  C   UNL     1       3.301   6.219  18.156  0.00  0.00    +0.000 A 
ATOM     28  C   UNL     1       4.219   6.892  17.336  0.00  0.00    +0.000 A 
ATOM     29  C   UNL     1       4.991   6.201  16.397  0.00  0.00    +0.000 A 
ATOM     30  C   UNL     1       4.866   4.814  16.251  0.00  0.00    +0.000 A 
ATOM     31  C   UNL     1       3.921   4.143  17.037  0.00  0.00    +0.000 A 
ATOM     32  C   UNL     1       3.156   4.835  17.983  0.00  0.00    +0.000 A 
BRANCH  30  33
ATOM     33  C   UNL     1       5.684   4.091  15.213  0.00  0.00    +0.000 C 
BRANCH  33  34
ATOM     34  O   UNL     1       7.033   4.541  15.197  0.00  0.00    +0.000 OA
ATOM     35  H   UNL     1       7.340   4.529  16.119  0.00  0.00    +0.000 HD
ENDBRANCH  33  34
ENDBRANCH  30  33
ENDBRANCH  25  27
ENDBRANCH   2  22
TORSDOF 7
ENDMDL
MODEL 2
REMARK VINA RESULT:      -8.3      2.466      4.746
REMARK  Name = 
REMARK  7 active torsions:
REMARK  status: ('A' for Active; 'I' for Inactive)
REMARK    1  A    between atoms: C_2  and  C_3
REMARK    2  A    between atoms: C_6  and  C_7
REMARK    3  A    between atoms: C_10  and  C_11
REMARK    4  A    between atoms: C_11  and  O_12
REMARK    5  A    between atoms: C_18  and  C_19
REMARK    6  A    between atoms: C_26  and  C_27
REMARK    7  A    between atoms: C_32  and  O_33
REMARK                            x       y       z     vdW  Elec       q    Type
REMARK                         _______ _______ _______ _____ _____    ______ ____
ROOT
ATOM      1  O   UNL     1      -1.294  10.279  19.037  0.00  0.00    +0.000 OA
ATOM      2  C   UNL     1      -0.077  10.458  19.163  0.00  0.00    +0.000 C 
ATOM      3  N   UNL     1       0.435  11.751  19.295  0.00  0.00    +0.000 N 
ATOM      4  N   UNL     1       1.763  12.069  19.153  0.00  0.00    +0.000 NA
ATOM      5  C   UNL     1       1.867  13.355  19.308  0.00  0.00    +0.000 C 
ATOM      6  C   UNL     1       0.567  14.093  19.477  0.00  0.00    +0.000 C 
ATOM      7  C   UNL     1      -0.415  12.926  19.478  0.00  0.00    +0.000 C 
ENDROOT
BRANCH   5   8
ATOM      8  C   UNL     1       3.162  14.055  19.312  0.00  0.00    +0.000 A 
ATOM      9  C   UNL     1       3.843  14.362  18.135  0.00  0.00    +0.000 A 
ATOM     10  C   UNL     1       5.058  15.041  18.207  0.00  0.00    +0.000 A 
ATOM     11  C   UNL     1       5.550  15.388  19.456  0.00  0.00    +0.000 A 
ATOM     12  N   UNL     1       4.914  15.111  20.614  0.00  0.00    +0.000 NA
ATOM     13  C   UNL     1       3.730  14.453  20.516  0.00  0.00    +0.000 A 
ENDBRANCH   5   8
BRANCH   7  14
ATOM     14  C   UNL     1      -1.263  12.870  20.734  0.00  0.00    +0.000 A 
ATOM     15  C   UNL     1      -0.632  12.946  21.988  0.00  0.00    +0.000 A 
ATOM     16  C   UNL     1      -1.381  12.971  23.165  0.00  0.00    +0.000 A 
ATOM     17  C   UNL     1      -2.771  12.923  23.109  0.00  0.00    +0.000 A 
ATOM     18  C   UNL     1      -3.415  12.836  21.877  0.00  0.00    +0.000 A 
ATOM     19  C   UNL     1      -2.662  12.804  20.704  0.00  0.00    +0.000 A 
BRANCH  19  20
ATOM     20  O   UNL     1      -3.302  12.704  19.502  0.00  0.00    +0.000 OA
ATOM     21  H   UNL     1      -3.059  13.474  18.962  0.00  0.00    +0.000 HD
ENDBRANCH  19  20
ENDBRANCH   7  14
BRANCH   2  22
ATOM     22  C   UNL     1       0.844   9.323  19.149  0.00  0.00    +0.000 A 
ATOM     23  C   UNL     1       1.232   8.576  20.246  0.00  0.00    +0.000 A 
ATOM     24  C   UNL     1       2.161   7.549  19.909  0.00  0.00    +0.000 A 
ATOM     25  C   UNL     1       2.498   7.551  18.566  0.00  0.00    +0.000 A 
ATOM     26  S   UNL     1       1.725   8.853  17.761  0.00  0.00    +0.000 S 
BRANCH  25  27
ATOM     27  C   UNL     1       3.429   6.674  17.838  0.00  0.00    +0.000 A 
ATOM     28  C   UNL     1       4.525   7.180  17.122  0.00  0.00    +0.000 A 
ATOM     29  C   UNL     1       5.416   6.326  16.465  0.00  0.00    +0.000 A 
ATOM     30  C   UNL     1       5.235   4.939  16.504  0.00  0.00    +0.000 A 
ATOM     31  C   UNL     1       4.119   4.430  17.181  0.00  0.00    +0.000 A 
ATOM     32  C   UNL     1       3.235   5.285  17.846  0.00  0.00    +0.000 A 
BRANCH  30  33
ATOM     33  C   UNL     1       6.188   4.036  15.765  0.00  0.00    +0.000 C 
BRANCH  33  34
ATOM     34  O   UNL     1       7.473   4.629  15.621  0.00  0.00    +0.000 OA
ATOM     35  H   UNL     1       7.971   4.408  16.427  0.00  0.00    +0.000 HD
ENDBRANCH  33  34
ENDBRANCH  30  33
ENDBRANCH  25  27
ENDBRANCH   2  22
TORSDOF 7
ENDMDL
MODEL 3
REMARK VINA RESULT:      -8.1      0.751      1.198
REMARK  Name = 
REMARK  7 active torsions:
REMARK  status: ('A' for Active; 'I' for Inactive)
REMARK    1  A    between atoms: C_2  and  C_3
REMARK    2  A    between atoms: C_6  and  C_7
REMARK    3  A    between atoms: C_10  and  C_11
REMARK    4  A    between atoms: C_11  and  O_12
REMARK    5  A    between atoms: C_18  and  C_19
REMARK    6  A    between atoms: C_26  and  C_27
REMARK    7  A    between atoms: C_32  and  O_33
REMARK                            x       y       z     vdW  Elec       q    Type
REMARK                         _______ _______ _______ _____ _____    ______ ____
ROOT
ATOM      1  O   UNL     1       1.083  10.368  22.012  0.00  0.00    +0.000 OA
ATOM      2  C   UNL     1       0.749   9.930  20.905  0.00  0.00    +0.000 C 
ATOM      3  N   UNL     1      -0.203  10.605  20.138  0.00  0.00    +0.000 N 
ATOM      4  N   UNL     1      -0.840  10.060  19.051  0.00  0.00    +0.000 NA
ATOM      5  C   UNL     1      -1.676  10.952  18.610  0.00  0.00    +0.000 C 
ATOM      6  C   UNL     1      -1.779  12.205  19.435  0.00  0.00    +0.000 C 
ATOM      7  C   UNL     1      -0.714  11.928  20.492  0.00  0.00    +0.000 C 
ENDROOT
BRANCH   5   8
ATOM      8  C   UNL     1      -2.480  10.758  17.392  0.00  0.00    +0.000 A 
ATOM      9  C   UNL     1      -2.096   9.879  16.381  0.00  0.00    +0.000 A 
ATOM     10  C   UNL     1      -2.910   9.731  15.259  0.00  0.00    +0.000 A 
ATOM     11  C   UNL     1      -4.082  10.470  15.189  0.00  0.00    +0.000 A 
ATOM     12  N   UNL     1      -4.486  11.326  16.152  0.00  0.00    +0.000 NA
ATOM     13  C   UNL     1      -3.677  11.448  17.236  0.00  0.00    +0.000 A 
ENDBRANCH   5   8
BRANCH   7  14
ATOM     14  C   UNL     1       0.359  12.998  20.544  0.00  0.00    +0.000 A 
ATOM     15  C   UNL     1       0.454  13.814  21.685  0.00  0.00    +0.000 A 
ATOM     16  C   UNL     1       1.472  14.761  21.804  0.00  0.00    +0.000 A 
ATOM     17  C   UNL     1       2.412  14.907  20.787  0.00  0.00    +0.000 A 
ATOM     18  C   UNL     1       2.329  14.114  19.645  0.00  0.00    +0.000 A 
ATOM     19  C   UNL     1       1.306  13.174  19.527  0.00  0.00    +0.000 A 
BRANCH  19  20
ATOM     20  O   UNL     1       1.224  12.414  18.397  0.00  0.00    +0.000 OA
ATOM     21  H   UNL     1       2.118  12.108  18.169  0.00  0.00    +0.000 HD
ENDBRANCH  19  20
ENDBRANCH   7  14
BRANCH   2  22
ATOM     22  C   UNL     1       1.327   8.688  20.395  0.00  0.00    +0.000 A 
ATOM     23  C   UNL     1       1.286   7.455  21.018  0.00  0.00    +0.000 A 
ATOM     24  C   UNL     1       1.962   6.442  20.276  0.00  0.00    +0.000 A 
ATOM     25  C   UNL     1       2.541   6.926  19.116  0.00  0.00    +0.000 A 
ATOM     26  S   UNL     1       2.306   8.620  18.995  0.00  0.00    +0.000 S 
BRANCH  25  27
ATOM     27  C   UNL     1       3.334   6.211  18.103  0.00  0.00    +0.000 A 
ATOM     28  C   UNL     1       4.271   6.867  17.289  0.00  0.00    +0.000 A 
ATOM     29  C   UNL     1       5.037   6.162  16.356  0.00  0.00    +0.000 A 
ATOM     30  C   UNL     1       4.887   4.778  16.208  0.00  0.00    +0.000 A 
ATOM     31  C   UNL     1       3.923   4.124  16.987  0.00  0.00    +0.000 A 
ATOM     32  C   UNL     1       3.165   4.829  17.927  0.00  0.00    +0.000 A 
BRANCH  30  33
ATOM     33  C   UNL     1       5.699   4.040  15.176  0.00  0.00    +0.000 C 
BRANCH  33  34
ATOM     34  O   UNL     1       6.992   4.611  15.015  0.00  0.00    +0.000 OA
ATOM     35  H   UNL     1       6.955   5.159  14.212  0.00  0.00    +0.000 HD
ENDBRANCH  33  34
ENDBRANCH  30  33
ENDBRANCH  25  27
ENDBRANCH   2  22
TORSDOF 7
ENDMDL
MODEL 4
REMARK VINA RESULT:      -7.9      2.256      4.660
REMARK  Name = 
REMARK  7 active torsions:
REMARK  status: ('A' for Active; 'I' for Inactive)
REMARK    1  A    between atoms: C_2  and  C_3
REMARK    2  A    between atoms: C_6  and  C_7
REMARK    3  A    between atoms: C_10  and  C_11
REMARK    4  A    between atoms: C_11  and  O_12
REMARK    5  A    between atoms: C_18  and  C_19
REMARK    6  A    between atoms: C_26  and  C_27
REMARK    7  A    between atoms: C_32  and  O_33
REMARK                            x       y       z     vdW  Elec       q    Type
REMARK                         _______ _______ _______ _____ _____    ______ ____
ROOT
ATOM      1  O   UNL     1      -1.349  10.141  19.003  0.00  0.00    +0.000 OA
ATOM      2  C   UNL     1      -0.138  10.347  19.145  0.00  0.00    +0.000 C 
ATOM      3  N   UNL     1       0.342  11.650  19.292  0.00  0.00    +0.000 N 
ATOM      4  N   UNL     1       1.664  12.000  19.167  0.00  0.00    +0.000 NA
ATOM      5  C   UNL     1       1.737  13.286  19.333  0.00  0.00    +0.000 C 
ATOM      6  C   UNL     1       0.419  13.993  19.492  0.00  0.00    +0.000 C 
ATOM      7  C   UNL     1      -0.537  12.804  19.474  0.00  0.00    +0.000 C 
ENDROOT
BRANCH   5   8
ATOM      8  C   UNL     1       3.015  14.017  19.356  0.00  0.00    +0.000 A 
ATOM      9  C   UNL     1       3.700  14.351  18.190  0.00  0.00    +0.000 A 
ATOM     10  C   UNL     1       4.899  15.057  18.280  0.00  0.00    +0.000 A 
ATOM     11  C   UNL     1       5.370  15.403  19.537  0.00  0.00    +0.000 A 
ATOM     12  N   UNL     1       4.730  15.099  20.686  0.00  0.00    +0.000 NA
ATOM     13  C   UNL     1       3.562  14.416  20.570  0.00  0.00    +0.000 A 
ENDBRANCH   5   8
BRANCH   7  14
ATOM     14  C   UNL     1      -1.397  12.719  20.719  0.00  0.00    +0.000 A 
ATOM     15  C   UNL     1      -2.767  13.025  20.624  0.00  0.00    +0.000 A 
ATOM     16  C   UNL     1      -3.608  12.890  21.729  0.00  0.00    +0.000 A 
ATOM     17  C   UNL     1      -3.097  12.445  22.945  0.00  0.00    +0.000 A 
ATOM     18  C   UNL     1      -1.741  12.148  23.062  0.00  0.00    +0.000 A 
ATOM     19  C   UNL     1      -0.903  12.291  21.958  0.00  0.00    +0.000 A 
BRANCH  19  20
ATOM     20  O   UNL     1       0.427  12.011  22.087  0.00  0.00    +0.000 OA
ATOM     21  H   UNL     1       0.835  12.059  21.206  0.00  0.00    +0.000 HD
ENDBRANCH  19  20
ENDBRANCH   7  14
BRANCH   2  22
ATOM     22  C   UNL     1       0.809   9.234  19.133  0.00  0.00    +0.000 A 
ATOM     23  C   UNL     1       1.227   8.510  20.234  0.00  0.00    +0.000 A 
ATOM     24  C   UNL     1       2.176   7.500  19.898  0.00  0.00    +0.000 A 
ATOM     25  C   UNL     1       2.497   7.494  18.552  0.00  0.00    +0.000 A 
ATOM     26  S   UNL     1       1.684   8.767  17.741  0.00  0.00    +0.000 S 
BRANCH  25  27
ATOM     27  C   UNL     1       3.439   6.629  17.823  0.00  0.00    +0.000 A 
ATOM     28  C   UNL     1       4.543   7.148  17.129  0.00  0.00    +0.000 A 
ATOM     29  C   UNL     1       5.445   6.306  16.471  0.00  0.00    +0.000 A 
ATOM     30  C   UNL     1       5.267   4.918  16.487  0.00  0.00    +0.000 A 
ATOM     31  C   UNL     1       4.143   4.396  17.141  0.00  0.00    +0.000 A 
ATOM     32  C   UNL     1       3.248   5.240  17.807  0.00  0.00    +0.000 A 
BRANCH  30  33
ATOM     33  C   UNL     1       6.231   4.028  15.747  0.00  0.00    +0.000 C 
BRANCH  33  34
ATOM     34  O   UNL     1       7.509   4.638  15.604  0.00  0.00    +0.000 OA
ATOM     35  H   UNL     1       7.764   4.955  16.487  0.00  0.00    +0.000 HD
ENDBRANCH  33  34
ENDBRANCH  30  33
ENDBRANCH  25  27
ENDBRANCH   2  22
TORSDOF 7
ENDMDL
MODEL 5
REMARK VINA RESULT:      -7.8      2.431      4.853
REMARK  Name = 
REMARK  7 active torsions:
REMARK  status: ('A' for Active; 'I' for Inactive)
REMARK    1  A    between atoms: C_2  and  C_3
REMARK    2  A    between atoms: C_6  and  C_7
REMARK    3  A    between atoms: C_10  and  C_11
REMARK    4  A    between atoms: C_11  and  O_12
REMARK    5  A    between atoms: C_18  and  C_19
REMARK    6  A    between atoms: C_26  and  C_27
REMARK    7  A    between atoms: C_32  and  O_33
REMARK                            x       y       z     vdW  Elec       q    Type
REMARK                         _______ _______ _______ _____ _____    ______ ____
ROOT
ATOM      1  O   UNL     1      -1.533  10.182  18.785  0.00  0.00    +0.000 OA
ATOM      2  C   UNL     1      -0.345  10.441  19.007  0.00  0.00    +0.000 C 
ATOM      3  N   UNL     1       0.077  11.768  19.125  0.00  0.00    +0.000 N 
ATOM      4  N   UNL     1       1.392  12.162  19.083  0.00  0.00    +0.000 NA
ATOM      5  C   UNL     1       1.406  13.457  19.189  0.00  0.00    +0.000 C 
ATOM      6  C   UNL     1       0.055  14.119  19.213  0.00  0.00    +0.000 C 
ATOM      7  C   UNL     1      -0.853  12.894  19.182  0.00  0.00    +0.000 C 
ENDROOT
BRANCH   5   8
ATOM      8  C   UNL     1       2.652  14.237  19.272  0.00  0.00    +0.000 A 
ATOM      9  C   UNL     1       2.892  15.144  20.303  0.00  0.00    +0.000 A 
ATOM     10  C   UNL     1       4.100  15.840  20.332  0.00  0.00    +0.000 A 
ATOM     11  C   UNL     1       5.025  15.604  19.327  0.00  0.00    +0.000 A 
ATOM     12  N   UNL     1       4.826  14.729  18.317  0.00  0.00    +0.000 NA
ATOM     13  C   UNL     1       3.644  14.060  18.315  0.00  0.00    +0.000 A 
ENDBRANCH   5   8
BRANCH   7  14
ATOM     14  C   UNL     1      -1.804  12.834  20.361  0.00  0.00    +0.000 A 
ATOM     15  C   UNL     1      -1.294  13.009  21.660  0.00  0.00    +0.000 A 
ATOM     16  C   UNL     1      -2.144  13.033  22.765  0.00  0.00    +0.000 A 
ATOM     17  C   UNL     1      -3.517  12.887  22.593  0.00  0.00    +0.000 A 
ATOM     18  C   UNL     1      -4.042  12.702  21.316  0.00  0.00    +0.000 A 
ATOM     19  C   UNL     1      -3.188  12.671  20.215  0.00  0.00    +0.000 A 
BRANCH  19  20
ATOM     20  O   UNL     1      -3.710  12.474  18.969  0.00  0.00    +0.000 OA
ATOM     21  H   UNL     1      -4.158  13.292  18.693  0.00  0.00    +0.000 HD
ENDBRANCH  19  20
ENDBRANCH   7  14
BRANCH   2  22
ATOM     22  C   UNL     1       0.639   9.367  19.122  0.00  0.00    +0.000 A 
ATOM     23  C   UNL     1       1.004   8.719  20.288  0.00  0.00    +0.000 A 
ATOM     24  C   UNL     1       2.009   7.731  20.075  0.00  0.00    +0.000 A 
ATOM     25  C   UNL     1       2.423   7.665  18.756  0.00  0.00    +0.000 A 
ATOM     26  S   UNL     1       1.626   8.860  17.821  0.00  0.00    +0.000 S 
BRANCH  25  27
ATOM     27  C   UNL     1       3.444   6.799  18.143  0.00  0.00    +0.000 A 
ATOM     28  C   UNL     1       3.695   5.498  18.606  0.00  0.00    +0.000 A 
ATOM     29  C   UNL     1       4.646   4.681  17.987  0.00  0.00    +0.000 A 
ATOM     30  C   UNL     1       5.376   5.144  16.885  0.00  0.00    +0.000 A 
ATOM     31  C   UNL     1       5.161   6.456  16.446  0.00  0.00    +0.000 A 
ATOM     32  C   UNL     1       4.202   7.268  17.060  0.00  0.00    +0.000 A 
BRANCH  30  33
ATOM     33  C   UNL     1       6.418   4.261  16.250  0.00  0.00    +0.000 C 
BRANCH  33  34
ATOM     34  O   UNL     1       7.652   4.307  16.959  0.00  0.00    +0.000 OA
ATOM     35  H   UNL     1       7.506   3.838  17.798  0.00  0.00    +0.000 HD
ENDBRANCH  33  34
ENDBRANCH  30  33
ENDBRANCH  25  27
ENDBRANCH   2  22
TORSDOF 7
ENDMDL
MODEL 6
REMARK VINA RESULT:      -7.8      1.698      2.237
REMARK  Name = 
REMARK  7 active torsions:
REMARK  status: ('A' for Active; 'I' for Inactive)
REMARK    1  A    between atoms: C_2  and  C_3
REMARK    2  A    between atoms: C_6  and  C_7
REMARK    3  A    between atoms: C_10  and  C_11
REMARK    4  A    between atoms: C_11  and  O_12
REMARK    5  A    between atoms: C_18  and  C_19
REMARK    6  A    between atoms: C_26  and  C_27
REMARK    7  A    between atoms: C_32  and  O_33
REMARK                            x       y       z     vdW  Elec       q    Type
REMARK                         _______ _______ _______ _____ _____    ______ ____
ROOT
ATOM      1  O   UNL     1       1.038  10.596  21.860  0.00  0.00    +0.000 OA
ATOM      2  C   UNL     1       0.706  10.224  20.729  0.00  0.00    +0.000 C 
ATOM      3  N   UNL     1      -0.346  10.855  20.060  0.00  0.00    +0.000 N 
ATOM      4  N   UNL     1      -0.967  10.341  18.949  0.00  0.00    +0.000 NA
ATOM      5  C   UNL     1      -1.911  11.172  18.621  0.00  0.00    +0.000 C 
ATOM      6  C   UNL     1      -2.110  12.329  19.561  0.00  0.00    +0.000 C 
ATOM      7  C   UNL     1      -0.978  12.078  20.552  0.00  0.00    +0.000 C 
ENDROOT
BRANCH   5   8
ATOM      8  C   UNL     1      -2.742  11.000  17.418  0.00  0.00    +0.000 A 
ATOM      9  C   UNL     1      -4.033  11.517  17.327  0.00  0.00    +0.000 A 
ATOM     10  C   UNL     1      -4.762  11.332  16.153  0.00  0.00    +0.000 A 
ATOM     11  C   UNL     1      -4.172  10.633  15.111  0.00  0.00    +0.000 A 
ATOM     12  N   UNL     1      -2.923  10.123  15.163  0.00  0.00    +0.000 NA
ATOM     13  C   UNL     1      -2.233  10.322  16.316  0.00  0.00    +0.000 A 
ENDBRANCH   5   8
BRANCH   7  14
ATOM     14  C   UNL     1      -0.022  13.250  20.666  0.00  0.00    +0.000 A 
ATOM     15  C   UNL     1       0.532  13.795  19.494  0.00  0.00    +0.000 A 
ATOM     16  C   UNL     1       1.358  14.918  19.549  0.00  0.00    +0.000 A 
ATOM     17  C   UNL     1       1.642  15.517  20.773  0.00  0.00    +0.000 A 
ATOM     18  C   UNL     1       1.111  14.985  21.947  0.00  0.00    +0.000 A 
ATOM     19  C   UNL     1       0.292  13.859  21.887  0.00  0.00    +0.000 A 
BRANCH  19  20
ATOM     20  O   UNL     1      -0.210  13.336  23.044  0.00  0.00    +0.000 OA
ATOM     21  H   UNL     1       0.493  12.825  23.478  0.00  0.00    +0.000 HD
ENDBRANCH  19  20
ENDBRANCH   7  14
BRANCH   2  22
ATOM     22  C   UNL     1       1.388   9.102  20.088  0.00  0.00    +0.000 A 
ATOM     23  C   UNL     1       1.816   9.052  18.774  0.00  0.00    +0.000 A 
ATOM     24  C   UNL     1       2.429   7.808  18.443  0.00  0.00    +0.000 A 
ATOM     25  C   UNL     1       2.425   6.912  19.498  0.00  0.00    +0.000 A 
ATOM     26  S   UNL     1       1.610   7.586  20.848  0.00  0.00    +0.000 S 
BRANCH  25  27
ATOM     27  C   UNL     1       2.936   5.533  19.551  0.00  0.00    +0.000 A 
ATOM     28  C   UNL     1       3.959   5.084  18.700  0.00  0.00    +0.000 A 
ATOM     29  C   UNL     1       4.453   3.779  18.791  0.00  0.00    +0.000 A 
ATOM     30  C   UNL     1       3.938   2.884  19.735  0.00  0.00    +0.000 A 
ATOM     31  C   UNL     1       2.888   3.313  20.558  0.00  0.00    +0.000 A 
ATOM     32  C   UNL     1       2.402   4.621  20.473  0.00  0.00    +0.000 A 
BRANCH  30  33
ATOM     33  C   UNL     1       4.461   1.473  19.797  0.00  0.00    +0.000 C 
BRANCH  33  34
ATOM     34  O   UNL     1       4.326   0.804  18.548  0.00  0.00    +0.000 OA
ATOM     35  H   UNL     1       3.771   1.374  17.989  0.00  0.00    +0.000 HD
ENDBRANCH  33  34
ENDBRANCH  30  33
ENDBRANCH  25  27
ENDBRANCH   2  22
TORSDOF 7
ENDMDL
MODEL 7
REMARK VINA RESULT:      -7.7      2.229      2.875
REMARK  Name = 
REMARK  7 active torsions:
REMARK  status: ('A' for Active; 'I' for Inactive)
REMARK    1  A    between atoms: C_2  and  C_3
REMARK    2  A    between atoms: C_6  and  C_7
REMARK    3  A    between atoms: C_10  and  C_11
REMARK    4  A    between atoms: C_11  and  O_12
REMARK    5  A    between atoms: C_18  and  C_19
REMARK    6  A    between atoms: C_26  and  C_27
REMARK    7  A    between atoms: C_32  and  O_33
REMARK                            x       y       z     vdW  Elec       q    Type
REMARK                         _______ _______ _______ _____ _____    ______ ____
ROOT
ATOM      1  O   UNL     1       1.592  12.175  21.379  0.00  0.00    +0.000 OA
ATOM      2  C   UNL     1       0.815  11.648  20.574  0.00  0.00    +0.000 C 
ATOM      3  N   UNL     1      -0.450  12.198  20.354  0.00  0.00    +0.000 N 
ATOM      4  N   UNL     1      -1.472  11.541  19.714  0.00  0.00    +0.000 NA
ATOM      5  C   UNL     1      -2.500  12.335  19.719  0.00  0.00    +0.000 C 
ATOM      6  C   UNL     1      -2.320  13.621  20.478  0.00  0.00    +0.000 C 
ATOM      7  C   UNL     1      -0.858  13.493  20.895  0.00  0.00    +0.000 C 
ENDROOT
BRANCH   5   8
ATOM      8  C   UNL     1      -3.765  12.007  19.042  0.00  0.00    +0.000 A 
ATOM      9  C   UNL     1      -3.800  11.433  17.772  0.00  0.00    +0.000 A 
ATOM     10  C   UNL     1      -5.031  11.133  17.191  0.00  0.00    +0.000 A 
ATOM     11  C   UNL     1      -6.186  11.419  17.904  0.00  0.00    +0.000 A 
ATOM     12  N   UNL     1      -6.189  11.969  19.136  0.00  0.00    +0.000 NA
ATOM     13  C   UNL     1      -4.976  12.247  19.681  0.00  0.00    +0.000 A 
ENDBRANCH   5   8
BRANCH   7  14
ATOM     14  C   UNL     1      -0.002  14.648  20.411  0.00  0.00    +0.000 A 
ATOM     15  C   UNL     1      -0.118  15.070  19.075  0.00  0.00    +0.000 A 
ATOM     16  C   UNL     1       0.597  16.174  18.609  0.00  0.00    +0.000 A 
ATOM     17  C   UNL     1       1.437  16.875  19.469  0.00  0.00    +0.000 A 
ATOM     18  C   UNL     1       1.574  16.466  20.794  0.00  0.00    +0.000 A 
ATOM     19  C   UNL     1       0.863  15.358  21.253  0.00  0.00    +0.000 A 
BRANCH  19  20
ATOM     20  O   UNL     1       1.016  14.956  22.548  0.00  0.00    +0.000 OA
ATOM     21  H   UNL     1       0.185  14.544  22.840  0.00  0.00    +0.000 HD
ENDBRANCH  19  20
ENDBRANCH   7  14
BRANCH   2  22
ATOM     22  C   UNL     1       1.197  10.430  19.864  0.00  0.00    +0.000 A 
ATOM     23  C   UNL     1       1.411  10.314  18.502  0.00  0.00    +0.000 A 
ATOM     24  C   UNL     1       1.751   8.986  18.111  0.00  0.00    +0.000 A 
ATOM     25  C   UNL     1       1.754   8.099  19.174  0.00  0.00    +0.000 A 
ATOM     26  S   UNL     1       1.273   8.896  20.614  0.00  0.00    +0.000 S 
BRANCH  25  27
ATOM     27  C   UNL     1       2.030   6.653  19.180  0.00  0.00    +0.000 A 
ATOM     28  C   UNL     1       1.889   5.872  20.337  0.00  0.00    +0.000 A 
ATOM     29  C   UNL     1       2.125   4.494  20.312  0.00  0.00    +0.000 A 
ATOM     30  C   UNL     1       2.509   3.857  19.127  0.00  0.00    +0.000 A 
ATOM     31  C   UNL     1       2.693   4.638  17.979  0.00  0.00    +0.000 A 
ATOM     32  C   UNL     1       2.448   6.014  18.003  0.00  0.00    +0.000 A 
BRANCH  30  33
ATOM     33  C   UNL     1       2.789   2.377  19.126  0.00  0.00    +0.000 C 
BRANCH  33  34
ATOM     34  O   UNL     1       2.312   1.750  17.941  0.00  0.00    +0.000 OA
ATOM     35  H   UNL     1       2.569   0.814  18.001  0.00  0.00    +0.000 HD
ENDBRANCH  33  34
ENDBRANCH  30  33
ENDBRANCH  25  27
ENDBRANCH   2  22
TORSDOF 7
ENDMDL
MODEL 8
REMARK VINA RESULT:      -7.6      1.644      2.068
REMARK  Name = 
REMARK  7 active torsions:
REMARK  status: ('A' for Active; 'I' for Inactive)
REMARK    1  A    between atoms: C_2  and  C_3
REMARK    2  A    between atoms: C_6  and  C_7
REMARK    3  A    between atoms: C_10  and  C_11
REMARK    4  A    between atoms: C_11  and  O_12
REMARK    5  A    between atoms: C_18  and  C_19
REMARK    6  A    between atoms: C_26  and  C_27
REMARK    7  A    between atoms: C_32  and  O_33
REMARK                            x       y       z     vdW  Elec       q    Type
REMARK                         _______ _______ _______ _____ _____    ______ ____
ROOT
ATOM      1  O   UNL     1       1.165  10.767  21.900  0.00  0.00    +0.000 OA
ATOM      2  C   UNL     1       0.747  10.445  20.783  0.00  0.00    +0.000 C 
ATOM      3  N   UNL     1      -0.337  11.120  20.215  0.00  0.00    +0.000 N 
ATOM      4  N   UNL     1      -1.044  10.660  19.131  0.00  0.00    +0.000 NA
ATOM      5  C   UNL     1      -1.993  11.518  18.903  0.00  0.00    +0.000 C 
ATOM      6  C   UNL     1      -2.104  12.640  19.899  0.00  0.00    +0.000 C 
ATOM      7  C   UNL     1      -0.910  12.331  20.797  0.00  0.00    +0.000 C 
ENDROOT
BRANCH   5   8
ATOM      8  C   UNL     1      -2.909  11.407  17.756  0.00  0.00    +0.000 A 
ATOM      9  C   UNL     1      -2.486  10.952  16.508  0.00  0.00    +0.000 A 
ATOM     10  C   UNL     1      -3.407  10.855  15.467  0.00  0.00    +0.000 A 
ATOM     11  C   UNL     1      -4.723  11.220  15.712  0.00  0.00    +0.000 A 
ATOM     12  N   UNL     1      -5.167  11.661  16.908  0.00  0.00    +0.000 NA
ATOM     13  C   UNL     1      -4.250  11.740  17.906  0.00  0.00    +0.000 A 
ENDBRANCH   5   8
BRANCH   7  14
ATOM     14  C   UNL     1       0.072  13.483  20.888  0.00  0.00    +0.000 A 
ATOM     15  C   UNL     1       0.796  13.855  19.741  0.00  0.00    +0.000 A 
ATOM     16  C   UNL     1       1.655  14.954  19.764  0.00  0.00    +0.000 A 
ATOM     17  C   UNL     1       1.805  15.700  20.930  0.00  0.00    +0.000 A 
ATOM     18  C   UNL     1       1.105  15.340  22.079  0.00  0.00    +0.000 A 
ATOM     19  C   UNL     1       0.252  14.238  22.054  0.00  0.00    +0.000 A 
BRANCH  19  20
ATOM     20  O   UNL     1      -0.417  13.884  23.190  0.00  0.00    +0.000 OA
ATOM     21  H   UNL     1      -1.365  13.834  22.982  0.00  0.00    +0.000 HD
ENDBRANCH  19  20
ENDBRANCH   7  14
BRANCH   2  22
ATOM     22  C   UNL     1       1.363   9.340  20.051  0.00  0.00    +0.000 A 
ATOM     23  C   UNL     1       1.769   9.363  18.730  0.00  0.00    +0.000 A 
ATOM     24  C   UNL     1       2.312   8.117  18.301  0.00  0.00    +0.000 A 
ATOM     25  C   UNL     1       2.277   7.149  19.289  0.00  0.00    +0.000 A 
ATOM     26  S   UNL     1       1.517   7.764  20.698  0.00  0.00    +0.000 S 
BRANCH  25  27
ATOM     27  C   UNL     1       2.719   5.746  19.235  0.00  0.00    +0.000 A 
ATOM     28  C   UNL     1       3.389   5.218  18.121  0.00  0.00    +0.000 A 
ATOM     29  C   UNL     1       3.829   3.891  18.104  0.00  0.00    +0.000 A 
ATOM     30  C   UNL     1       3.610   3.052  19.203  0.00  0.00    +0.000 A 
ATOM     31  C   UNL     1       2.904   3.561  20.301  0.00  0.00    +0.000 A 
ATOM     32  C   UNL     1       2.474   4.891  20.320  0.00  0.00    +0.000 A 
BRANCH  30  33
ATOM     33  C   UNL     1       4.064   1.617  19.155  0.00  0.00    +0.000 C 
BRANCH  33  34
ATOM     34  O   UNL     1       5.184   1.389  20.003  0.00  0.00    +0.000 OA
ATOM     35  H   UNL     1       4.897   1.610  20.906  0.00  0.00    +0.000 HD
ENDBRANCH  33  34
ENDBRANCH  30  33
ENDBRANCH  25  27
ENDBRANCH   2  22
TORSDOF 7
ENDMDL
MODEL 9
REMARK VINA RESULT:      -7.6      2.603      4.986
REMARK  Name = 
REMARK  7 active torsions:
REMARK  status: ('A' for Active; 'I' for Inactive)
REMARK    1  A    between atoms: C_2  and  C_3
REMARK    2  A    between atoms: C_6  and  C_7
REMARK    3  A    between atoms: C_10  and  C_11
REMARK    4  A    between atoms: C_11  and  O_12
REMARK    5  A    between atoms: C_18  and  C_19
REMARK    6  A    between atoms: C_26  and  C_27
REMARK    7  A    between atoms: C_32  and  O_33
REMARK                            x       y       z     vdW  Elec       q    Type
REMARK                         _______ _______ _______ _____ _____    ______ ____
ROOT
ATOM      1  O   UNL     1      -1.444  11.098  19.583  0.00  0.00    +0.000 OA
ATOM      2  C   UNL     1      -0.213  11.149  19.674  0.00  0.00    +0.000 C 
ATOM      3  N   UNL     1       0.440  12.383  19.728  0.00  0.00    +0.000 N 
ATOM      4  N   UNL     1       1.790  12.546  19.542  0.00  0.00    +0.000 NA
ATOM      5  C   UNL     1       2.037  13.819  19.628  0.00  0.00    +0.000 C 
ATOM      6  C   UNL     1       0.830  14.702  19.785  0.00  0.00    +0.000 C 
ATOM      7  C   UNL     1      -0.273  13.651  19.868  0.00  0.00    +0.000 C 
ENDROOT
BRANCH   5   8
ATOM      8  C   UNL     1       3.399  14.373  19.568  0.00  0.00    +0.000 A 
ATOM      9  C   UNL     1       4.044  14.631  18.359  0.00  0.00    +0.000 A 
ATOM     10  C   UNL     1       5.329  15.171  18.371  0.00  0.00    +0.000 A 
ATOM     11  C   UNL     1       5.925  15.432  19.595  0.00  0.00    +0.000 A 
ATOM     12  N   UNL     1       5.329  15.199  20.784  0.00  0.00    +0.000 NA
ATOM     13  C   UNL     1       4.075  14.678  20.743  0.00  0.00    +0.000 A 
ENDBRANCH   5   8
BRANCH   7  14
ATOM     14  C   UNL     1      -1.089  13.750  21.142  0.00  0.00    +0.000 A 
ATOM     15  C   UNL     1      -0.421  13.900  22.370  0.00  0.00    +0.000 A 
ATOM     16  C   UNL     1      -1.135  14.067  23.557  0.00  0.00    +0.000 A 
ATOM     17  C   UNL     1      -2.526  14.091  23.537  0.00  0.00    +0.000 A 
ATOM     18  C   UNL     1      -3.207  13.934  22.332  0.00  0.00    +0.000 A 
ATOM     19  C   UNL     1      -2.489  13.760  21.150  0.00  0.00    +0.000 A 
BRANCH  19  20
ATOM     20  O   UNL     1      -3.166  13.591  19.976  0.00  0.00    +0.000 OA
ATOM     21  H   UNL     1      -4.008  13.147  20.171  0.00  0.00    +0.000 HD
ENDBRANCH  19  20
ENDBRANCH   7  14
BRANCH   2  22
ATOM     22  C   UNL     1       0.579   9.921  19.700  0.00  0.00    +0.000 A 
ATOM     23  C   UNL     1       0.854   9.152  20.816  0.00  0.00    +0.000 A 
ATOM     24  C   UNL     1       1.675   8.025  20.518  0.00  0.00    +0.000 A 
ATOM     25  C   UNL     1       2.046   7.972  19.186  0.00  0.00    +0.000 A 
ATOM     26  S   UNL     1       1.442   9.338  18.343  0.00  0.00    +0.000 S 
BRANCH  25  27
ATOM     27  C   UNL     1       2.896   6.988  18.494  0.00  0.00    +0.000 A 
ATOM     28  C   UNL     1       2.931   5.637  18.873  0.00  0.00    +0.000 A 
ATOM     29  C   UNL     1       3.720   4.713  18.181  0.00  0.00    +0.000 A 
ATOM     30  C   UNL     1       4.498   5.115  17.089  0.00  0.00    +0.000 A 
ATOM     31  C   UNL     1       4.500   6.470  16.733  0.00  0.00    +0.000 A 
ATOM     32  C   UNL     1       3.703   7.390  17.420  0.00  0.00    +0.000 A 
BRANCH  30  33
ATOM     33  C   UNL     1       5.366   4.111  16.374  0.00  0.00    +0.000 C 
BRANCH  33  34
ATOM     34  O   UNL     1       6.569   3.851  17.088  0.00  0.00    +0.000 OA
ATOM     35  H   UNL     1       6.990   3.091  16.651  0.00  0.00    +0.000 HD
ENDBRANCH  33  34
ENDBRANCH  30  33
ENDBRANCH  25  27
ENDBRANCH   2  22
TORSDOF 7
ENDMDL
