MODEL 1
REMARK VINA RESULT:      -9.1      0.000      0.000
REMARK  Name = 
REMARK  3 active torsions:
REMARK  status: ('A' for Active; 'I' for Inactive)
REMARK    1  A    between atoms: C_1  and  N_2
REMARK    2  A    between atoms: C_11  and  C_12
REMARK    3  A    between atoms: C_21  and  N_22
REMARK                            x       y       z     vdW  Elec       q    Type
REMARK                         _______ _______ _______ _____ _____    ______ ____
ROOT
ATOM      1  C   UNL     1      -6.053  13.116  18.980  0.00  0.00    +0.000 C 
ATOM      2  N   UNL     1      -4.854  12.374  18.704  0.00  0.00    +0.000 N 
ATOM      3  N   UNL     1      -4.691  11.610  17.565  0.00  0.00    +0.000 NA
ATOM      4  C   UNL     1      -3.496  11.118  17.703  0.00  0.00    +0.000 A 
ATOM      5  C   UNL     1      -2.798  10.233  16.776  0.00  0.00    +0.000 A 
ATOM      6  C   UNL     1      -1.568   9.856  17.098  0.00  0.00    +0.000 A 
ATOM      7  C   UNL     1      -0.960  10.298  18.396  0.00  0.00    +0.000 A 
ATOM      8  N   UNL     1       0.295   9.827  18.738  0.00  0.00    +0.000 N 
ATOM      9  C   UNL     1       1.317   9.456  17.768  0.00  0.00    +0.000 C 
ATOM     10  C   UNL     1       1.787   8.029  18.031  0.00  0.00    +0.000 C 
ATOM     11  C   UNL     1       2.213   7.815  19.504  0.00  0.00    +0.000 C 
ATOM     12  C   UNL     1       1.128   8.342  20.494  0.00  0.00    +0.000 C 
ATOM     13  C   UNL     1       0.737   9.795  20.132  0.00  0.00    +0.000 C 
ATOM     14  N   UNL     1      -1.611  11.086  19.221  0.00  0.00    +0.000 NA
ATOM     15  N   UNL     1      -2.852  11.482  18.830  0.00  0.00    +0.000 N 
ATOM     16  C   UNL     1      -3.704  12.319  19.524  0.00  0.00    +0.000 A 
ATOM     17  O   UNL     1      -3.543  12.897  20.585  0.00  0.00    +0.000 OA
ENDROOT
BRANCH  11  18
ATOM     18  C   UNL     1       2.563   6.351  19.748  0.00  0.00    +0.000 A 
ATOM     19  C   UNL     1       1.745   5.537  20.548  0.00  0.00    +0.000 A 
ATOM     20  C   UNL     1       2.054   4.191  20.726  0.00  0.00    +0.000 A 
ATOM     21  F   UNL     1       1.244   3.429  21.472  0.00  0.00    +0.000 F 
ATOM     22  C   UNL     1       3.180   3.639  20.126  0.00  0.00    +0.000 A 
ATOM     23  F   UNL     1       3.462   2.339  20.291  0.00  0.00    +0.000 F 
ATOM     24  C   UNL     1       4.016   4.425  19.347  0.00  0.00    +0.000 A 
ATOM     25  C   UNL     1       3.704   5.771  19.166  0.00  0.00    +0.000 A 
ATOM     26  F   UNL     1       4.516   6.512  18.402  0.00  0.00    +0.000 F 
ENDBRANCH  11  18
BRANCH  12  27
ATOM     27  N   UNL     1       1.562   8.243  21.897  0.00  0.00    +0.000 NA
ATOM     28  H   UNL     1       0.759   8.098  22.509  0.00  0.00    +0.000 HD
ATOM     29  H   UNL     1       1.986   9.123  22.190  0.00  0.00    +0.000 HD
ENDBRANCH  12  27
TORSDOF 2
ENDMDL
MODEL 2
REMARK VINA RESULT:      -8.6      1.864      2.034
REMARK  Name = 
REMARK  3 active torsions:
REMARK  status: ('A' for Active; 'I' for Inactive)
REMARK    1  A    between atoms: C_1  and  N_2
REMARK    2  A    between atoms: C_11  and  C_12
REMARK    3  A    between atoms: C_21  and  N_22
REMARK                            x       y       z     vdW  Elec       q    Type
REMARK                         _______ _______ _______ _____ _____    ______ ____
ROOT
ATOM      1  C   UNL     1      -4.446  13.481  21.597  0.00  0.00    +0.000 C 
ATOM      2  N   UNL     1      -3.450  12.732  20.883  0.00  0.00    +0.000 N 
ATOM      3  N   UNL     1      -3.510  12.508  19.522  0.00  0.00    +0.000 NA
ATOM      4  C   UNL     1      -2.443  11.806  19.286  0.00  0.00    +0.000 A 
ATOM      5  C   UNL     1      -1.998  11.292  17.994  0.00  0.00    +0.000 A 
ATOM      6  C   UNL     1      -0.862  10.608  17.966  0.00  0.00    +0.000 A 
ATOM      7  C   UNL     1      -0.109  10.345  19.236  0.00  0.00    +0.000 A 
ATOM      8  N   UNL     1       1.032   9.564  19.184  0.00  0.00    +0.000 N 
ATOM      9  C   UNL     1       1.901   9.470  18.018  0.00  0.00    +0.000 C 
ATOM     10  C   UNL     1       2.067   8.008  17.614  0.00  0.00    +0.000 C 
ATOM     11  C   UNL     1       2.511   7.119  18.801  0.00  0.00    +0.000 C 
ATOM     12  C   UNL     1       1.615   7.354  20.057  0.00  0.00    +0.000 C 
ATOM     13  C   UNL     1       1.525   8.867  20.372  0.00  0.00    +0.000 C 
ATOM     14  N   UNL     1      -0.535  10.807  20.389  0.00  0.00    +0.000 NA
ATOM     15  N   UNL     1      -1.680  11.539  20.364  0.00  0.00    +0.000 N 
ATOM     16  C   UNL     1      -2.298  12.136  21.447  0.00  0.00    +0.000 A 
ATOM     17  O   UNL     1      -1.964  12.171  22.619  0.00  0.00    +0.000 OA
ENDROOT
BRANCH  11  18
ATOM     18  C   UNL     1       2.551   5.653  18.380  0.00  0.00    +0.000 A 
ATOM     19  C   UNL     1       1.511   4.775  18.723  0.00  0.00    +0.000 A 
ATOM     20  C   UNL     1       1.541   3.451  18.295  0.00  0.00    +0.000 A 
ATOM     21  F   UNL     1       0.524   2.639  18.612  0.00  0.00    +0.000 F 
ATOM     22  C   UNL     1       2.605   2.977  17.535  0.00  0.00    +0.000 A 
ATOM     23  F   UNL     1       2.619   1.705  17.115  0.00  0.00    +0.000 F 
ATOM     24  C   UNL     1       3.656   3.818  17.200  0.00  0.00    +0.000 A 
ATOM     25  C   UNL     1       3.623   5.145  17.625  0.00  0.00    +0.000 A 
ATOM     26  F   UNL     1       4.640   5.945  17.282  0.00  0.00    +0.000 F 
ENDBRANCH  11  18
BRANCH  12  27
ATOM     27  N   UNL     1       2.087   6.596  21.226  0.00  0.00    +0.000 NA
ATOM     28  H   UNL     1       2.918   7.034  21.623  0.00  0.00    +0.000 HD
ATOM     29  H   UNL     1       2.371   5.659  20.939  0.00  0.00    +0.000 HD
ENDBRANCH  12  27
TORSDOF 2
ENDMDL
MODEL 3
REMARK VINA RESULT:      -8.4      1.341      1.378
REMARK  Name = 
REMARK  3 active torsions:
REMARK  status: ('A' for Active; 'I' for Inactive)
REMARK    1  A    between atoms: C_1  and  N_2
REMARK    2  A    between atoms: C_11  and  C_12
REMARK    3  A    between atoms: C_21  and  N_22
REMARK                            x       y       z     vdW  Elec       q    Type
REMARK                         _______ _______ _______ _____ _____    ______ ____
ROOT
ATOM      1  C   UNL     1      -4.955  13.382  20.255  0.00  0.00    +0.000 C 
ATOM      2  N   UNL     1      -3.886  12.571  19.743  0.00  0.00    +0.000 N 
ATOM      3  N   UNL     1      -3.896  12.033  18.471  0.00  0.00    +0.000 NA
ATOM      4  C   UNL     1      -2.772  11.384  18.412  0.00  0.00    +0.000 A 
ATOM      5  C   UNL     1      -2.257  10.622  17.279  0.00  0.00    +0.000 A 
ATOM      6  C   UNL     1      -1.071  10.045  17.417  0.00  0.00    +0.000 A 
ATOM      7  C   UNL     1      -0.331  10.146  18.718  0.00  0.00    +0.000 A 
ATOM      8  N   UNL     1       0.868   9.469  18.857  0.00  0.00    +0.000 N 
ATOM      9  C   UNL     1       1.770   9.178  17.751  0.00  0.00    +0.000 C 
ATOM     10  C   UNL     1       2.059   7.681  17.700  0.00  0.00    +0.000 C 
ATOM     11  C   UNL     1       2.541   7.131  19.064  0.00  0.00    +0.000 C 
ATOM     12  C   UNL     1       1.599   7.578  20.225  0.00  0.00    +0.000 C 
ATOM     13  C   UNL     1       1.385   9.111  20.178  0.00  0.00    +0.000 C 
ATOM     14  N   UNL     1      -0.820  10.827  19.729  0.00  0.00    +0.000 NA
ATOM     15  N   UNL     1      -2.017  11.438  19.527  0.00  0.00    +0.000 N 
ATOM     16  C   UNL     1      -2.706  12.218  20.436  0.00  0.00    +0.000 A 
ATOM     17  O   UNL     1      -2.405  12.552  21.570  0.00  0.00    +0.000 OA
ENDROOT
BRANCH  11  18
ATOM     18  C   UNL     1       2.706   5.616  18.998  0.00  0.00    +0.000 A 
ATOM     19  C   UNL     1       1.614   4.784  18.702  0.00  0.00    +0.000 A 
ATOM     20  C   UNL     1       1.789   3.407  18.602  0.00  0.00    +0.000 A 
ATOM     21  F   UNL     1       0.738   2.636  18.293  0.00  0.00    +0.000 F 
ATOM     22  C   UNL     1       3.040   2.836  18.806  0.00  0.00    +0.000 A 
ATOM     23  F   UNL     1       3.203   1.510  18.693  0.00  0.00    +0.000 F 
ATOM     24  C   UNL     1       4.132   3.633  19.119  0.00  0.00    +0.000 A 
ATOM     25  C   UNL     1       3.957   5.012  19.214  0.00  0.00    +0.000 A 
ATOM     26  F   UNL     1       5.023   5.767  19.507  0.00  0.00    +0.000 F 
ENDBRANCH  11  18
BRANCH  12  27
ATOM     27  N   UNL     1       2.100   7.153  21.542  0.00  0.00    +0.000 NA
ATOM     28  H   UNL     1       3.000   6.683  21.446  0.00  0.00    +0.000 HD
ATOM     29  H   UNL     1       1.464   6.467  21.948  0.00  0.00    +0.000 HD
ENDBRANCH  12  27
TORSDOF 2
ENDMDL
MODEL 4
REMARK VINA RESULT:      -8.3      4.720      8.794
REMARK  Name = 
REMARK  3 active torsions:
REMARK  status: ('A' for Active; 'I' for Inactive)
REMARK    1  A    between atoms: C_1  and  N_2
REMARK    2  A    between atoms: C_11  and  C_12
REMARK    3  A    between atoms: C_21  and  N_22
REMARK                            x       y       z     vdW  Elec       q    Type
REMARK                         _______ _______ _______ _____ _____    ______ ____
ROOT
ATOM      1  C   UNL     1       4.302   1.031  18.016  0.00  0.00    +0.000 C 
ATOM      2  N   UNL     1       3.671   2.185  18.595  0.00  0.00    +0.000 N 
ATOM      3  N   UNL     1       2.658   2.097  19.529  0.00  0.00    +0.000 NA
ATOM      4  C   UNL     1       2.377   3.340  19.784  0.00  0.00    +0.000 A 
ATOM      5  C   UNL     1       1.372   3.838  20.718  0.00  0.00    +0.000 A 
ATOM      6  C   UNL     1       1.255   5.154  20.846  0.00  0.00    +0.000 A 
ATOM      7  C   UNL     1       2.101   6.070  20.013  0.00  0.00    +0.000 A 
ATOM      8  N   UNL     1       1.901   7.435  20.114  0.00  0.00    +0.000 N 
ATOM      9  C   UNL     1       1.418   8.100  21.317  0.00  0.00    +0.000 C 
ATOM     10  C   UNL     1       0.185   8.935  20.986  0.00  0.00    +0.000 C 
ATOM     11  C   UNL     1       0.428   9.893  19.795  0.00  0.00    +0.000 C 
ATOM     12  C   UNL     1       1.058   9.143  18.579  0.00  0.00    +0.000 C 
ATOM     13  C   UNL     1       2.300   8.339  19.034  0.00  0.00    +0.000 C 
ATOM     14  N   UNL     1       2.991   5.598  19.170  0.00  0.00    +0.000 NA
ATOM     15  N   UNL     1       3.107   4.245  19.104  0.00  0.00    +0.000 N 
ATOM     16  C   UNL     1       3.984   3.533  18.308  0.00  0.00    +0.000 A 
ATOM     17  O   UNL     1       4.840   3.930  17.535  0.00  0.00    +0.000 OA
ENDROOT
BRANCH  11  18
ATOM     18  C   UNL     1      -0.862  10.620  19.427  0.00  0.00    +0.000 A 
ATOM     19  C   UNL     1      -1.692  10.142  18.400  0.00  0.00    +0.000 A 
ATOM     20  C   UNL     1      -2.887  10.792  18.104  0.00  0.00    +0.000 A 
ATOM     21  F   UNL     1      -3.675  10.302  17.138  0.00  0.00    +0.000 F 
ATOM     22  C   UNL     1      -3.268  11.927  18.811  0.00  0.00    +0.000 A 
ATOM     23  F   UNL     1      -4.427  12.538  18.530  0.00  0.00    +0.000 F 
ATOM     24  C   UNL     1      -2.457  12.432  19.817  0.00  0.00    +0.000 A 
ATOM     25  C   UNL     1      -1.263  11.778  20.115  0.00  0.00    +0.000 A 
ATOM     26  F   UNL     1      -0.498  12.273  21.096  0.00  0.00    +0.000 F 
ENDBRANCH  11  18
BRANCH  12  27
ATOM     27  N   UNL     1       1.393  10.058  17.476  0.00  0.00    +0.000 NA
ATOM     28  H   UNL     1       1.042   9.693  16.591  0.00  0.00    +0.000 HD
ATOM     29  H   UNL     1       2.406  10.120  17.375  0.00  0.00    +0.000 HD
ENDBRANCH  12  27
TORSDOF 2
ENDMDL
MODEL 5
REMARK VINA RESULT:      -8.0      0.884      1.642
REMARK  Name = 
REMARK  3 active torsions:
REMARK  status: ('A' for Active; 'I' for Inactive)
REMARK    1  A    between atoms: C_1  and  N_2
REMARK    2  A    between atoms: C_11  and  C_12
REMARK    3  A    between atoms: C_21  and  N_22
REMARK                            x       y       z     vdW  Elec       q    Type
REMARK                         _______ _______ _______ _____ _____    ______ ____
ROOT
ATOM      1  C   UNL     1      -5.681  13.469  19.871  0.00  0.00    +0.000 C 
ATOM      2  N   UNL     1      -4.564  12.667  19.457  0.00  0.00    +0.000 N 
ATOM      3  N   UNL     1      -4.579  11.892  18.315  0.00  0.00    +0.000 NA
ATOM      4  C   UNL     1      -3.402  11.342  18.311  0.00  0.00    +0.000 A 
ATOM      5  C   UNL     1      -2.868  10.419  17.314  0.00  0.00    +0.000 A 
ATOM      6  C   UNL     1      -1.627   9.982  17.486  0.00  0.00    +0.000 A 
ATOM      7  C   UNL     1      -0.844  10.398  18.695  0.00  0.00    +0.000 A 
ATOM      8  N   UNL     1       0.420   9.867  18.885  0.00  0.00    +0.000 N 
ATOM      9  C   UNL     1       1.295   9.442  17.801  0.00  0.00    +0.000 C 
ATOM     10  C   UNL     1       1.723   7.994  18.019  0.00  0.00    +0.000 C 
ATOM     11  C   UNL     1       2.316   7.765  19.430  0.00  0.00    +0.000 C 
ATOM     12  C   UNL     1       1.388   8.349  20.541  0.00  0.00    +0.000 C 
ATOM     13  C   UNL     1       1.027   9.819  20.215  0.00  0.00    +0.000 C 
ATOM     14  N   UNL     1      -1.349  11.221  19.586  0.00  0.00    +0.000 NA
ATOM     15  N   UNL     1      -2.607  11.677  19.346  0.00  0.00    +0.000 N 
ATOM     16  C   UNL     1      -3.326  12.559  20.130  0.00  0.00    +0.000 A 
ATOM     17  O   UNL     1      -3.007  13.132  21.158  0.00  0.00    +0.000 OA
ENDROOT
BRANCH  11  18
ATOM     18  C   UNL     1       2.621   6.286  19.644  0.00  0.00    +0.000 A 
ATOM     19  C   UNL     1       3.850   5.737  19.245  0.00  0.00    +0.000 A 
ATOM     20  C   UNL     1       4.132   4.396  19.486  0.00  0.00    +0.000 A 
ATOM     21  F   UNL     1       5.322   3.902  19.121  0.00  0.00    +0.000 F 
ATOM     22  C   UNL     1       3.196   3.578  20.111  0.00  0.00    +0.000 A 
ATOM     23  F   UNL     1       3.480   2.291  20.352  0.00  0.00    +0.000 F 
ATOM     24  C   UNL     1       1.966   4.089  20.497  0.00  0.00    +0.000 A 
ATOM     25  C   UNL     1       1.687   5.434  20.260  0.00  0.00    +0.000 A 
ATOM     26  F   UNL     1       0.499   5.913  20.649  0.00  0.00    +0.000 F 
ENDBRANCH  11  18
BRANCH  12  27
ATOM     27  N   UNL     1       1.986   8.234  21.881  0.00  0.00    +0.000 NA
ATOM     28  H   UNL     1       1.314   8.513  22.596  0.00  0.00    +0.000 HD
ATOM     29  H   UNL     1       2.773   8.878  21.964  0.00  0.00    +0.000 HD
ENDBRANCH  12  27
TORSDOF 2
ENDMDL
MODEL 6
REMARK VINA RESULT:      -8.0      4.982      8.715
REMARK  Name = 
REMARK  3 active torsions:
REMARK  status: ('A' for Active; 'I' for Inactive)
REMARK    1  A    between atoms: C_1  and  N_2
REMARK    2  A    between atoms: C_11  and  C_12
REMARK    3  A    between atoms: C_21  and  N_22
REMARK                            x       y       z     vdW  Elec       q    Type
REMARK                         _______ _______ _______ _____ _____    ______ ____
ROOT
ATOM      1  C   UNL     1       6.093   3.690  15.260  0.00  0.00    +0.000 C 
ATOM      2  N   UNL     1       5.175   4.381  16.123  0.00  0.00    +0.000 N 
ATOM      3  N   UNL     1       4.125   3.752  16.760  0.00  0.00    +0.000 NA
ATOM      4  C   UNL     1       3.558   4.713  17.424  0.00  0.00    +0.000 A 
ATOM      5  C   UNL     1       2.387   4.611  18.289  0.00  0.00    +0.000 A 
ATOM      6  C   UNL     1       1.974   5.716  18.895  0.00  0.00    +0.000 A 
ATOM      7  C   UNL     1       2.673   7.019  18.643  0.00  0.00    +0.000 A 
ATOM      8  N   UNL     1       2.173   8.168  19.230  0.00  0.00    +0.000 N 
ATOM      9  C   UNL     1       1.447   8.187  20.493  0.00  0.00    +0.000 C 
ATOM     10  C   UNL     1       0.097   8.872  20.305  0.00  0.00    +0.000 C 
ATOM     11  C   UNL     1       0.235  10.263  19.639  0.00  0.00    +0.000 C 
ATOM     12  C   UNL     1       1.122  10.197  18.357  0.00  0.00    +0.000 C 
ATOM     13  C   UNL     1       2.462   9.489  18.672  0.00  0.00    +0.000 C 
ATOM     14  N   UNL     1       3.718   7.090  17.851  0.00  0.00    +0.000 NA
ATOM     15  N   UNL     1       4.132   5.924  17.286  0.00  0.00    +0.000 N 
ATOM     16  C   UNL     1       5.212   5.758  16.440  0.00  0.00    +0.000 A 
ATOM     17  O   UNL     1       6.029   6.572  16.043  0.00  0.00    +0.000 OA
ENDROOT
BRANCH  11  18
ATOM     18  C   UNL     1      -1.143  10.858  19.366  0.00  0.00    +0.000 A 
ATOM     19  C   UNL     1      -1.957  10.352  18.340  0.00  0.00    +0.000 A 
ATOM     20  C   UNL     1      -3.229  10.877  18.130  0.00  0.00    +0.000 A 
ATOM     21  F   UNL     1      -3.997  10.359  17.162  0.00  0.00    +0.000 F 
ATOM     22  C   UNL     1      -3.705  11.916  18.922  0.00  0.00    +0.000 A 
ATOM     23  F   UNL     1      -4.936  12.405  18.723  0.00  0.00    +0.000 F 
ATOM     24  C   UNL     1      -2.913  12.448  19.930  0.00  0.00    +0.000 A 
ATOM     25  C   UNL     1      -1.641  11.919  20.142  0.00  0.00    +0.000 A 
ATOM     26  F   UNL     1      -0.896  12.438  21.126  0.00  0.00    +0.000 F 
ENDBRANCH  11  18
BRANCH  12  27
ATOM     27  N   UNL     1       1.350  11.528  17.771  0.00  0.00    +0.000 NA
ATOM     28  H   UNL     1       0.477  11.912  17.410  0.00  0.00    +0.000 HD
ATOM     29  H   UNL     1       1.978  11.450  16.972  0.00  0.00    +0.000 HD
ENDBRANCH  12  27
TORSDOF 2
ENDMDL
MODEL 7
REMARK VINA RESULT:      -7.8      1.654      1.905
REMARK  Name = 
REMARK  3 active torsions:
REMARK  status: ('A' for Active; 'I' for Inactive)
REMARK    1  A    between atoms: C_1  and  N_2
REMARK    2  A    between atoms: C_11  and  C_12
REMARK    3  A    between atoms: C_21  and  N_22
REMARK                            x       y       z     vdW  Elec       q    Type
REMARK                         _______ _______ _______ _____ _____    ______ ____
ROOT
ATOM      1  C   UNL     1      -4.897  13.208  20.318  0.00  0.00    +0.000 C 
ATOM      2  N   UNL     1      -3.794  12.451  19.793  0.00  0.00    +0.000 N 
ATOM      3  N   UNL     1      -3.710  12.066  18.470  0.00  0.00    +0.000 NA
ATOM      4  C   UNL     1      -2.586  11.417  18.418  0.00  0.00    +0.000 A 
ATOM      5  C   UNL     1      -1.990  10.787  17.244  0.00  0.00    +0.000 A 
ATOM      6  C   UNL     1      -0.818  10.185  17.400  0.00  0.00    +0.000 A 
ATOM      7  C   UNL     1      -0.177  10.126  18.755  0.00  0.00    +0.000 A 
ATOM      8  N   UNL     1       1.008   9.426  18.901  0.00  0.00    +0.000 N 
ATOM      9  C   UNL     1       1.989   9.256  17.837  0.00  0.00    +0.000 C 
ATOM     10  C   UNL     1       2.278   7.772  17.633  0.00  0.00    +0.000 C 
ATOM     11  C   UNL     1       2.657   7.062  18.955  0.00  0.00    +0.000 C 
ATOM     12  C   UNL     1       1.632   7.380  20.088  0.00  0.00    +0.000 C 
ATOM     13  C   UNL     1       1.425   8.909  20.205  0.00  0.00    +0.000 C 
ATOM     14  N   UNL     1      -0.738  10.690  19.801  0.00  0.00    +0.000 NA
ATOM     15  N   UNL     1      -1.916  11.332  19.584  0.00  0.00    +0.000 N 
ATOM     16  C   UNL     1      -2.669  12.008  20.526  0.00  0.00    +0.000 A 
ATOM     17  O   UNL     1      -2.452  12.203  21.709  0.00  0.00    +0.000 OA
ENDROOT
BRANCH  11  18
ATOM     18  C   UNL     1       2.824   5.564  18.723  0.00  0.00    +0.000 A 
ATOM     19  C   UNL     1       3.893   4.858  19.298  0.00  0.00    +0.000 A 
ATOM     20  C   UNL     1       4.008   3.484  19.114  0.00  0.00    +0.000 A 
ATOM     21  F   UNL     1       5.021   2.829  19.695  0.00  0.00    +0.000 F 
ATOM     22  C   UNL     1       3.075   2.793  18.348  0.00  0.00    +0.000 A 
ATOM     23  F   UNL     1       3.184   1.467  18.187  0.00  0.00    +0.000 F 
ATOM     24  C   UNL     1       2.020   3.468  17.751  0.00  0.00    +0.000 A 
ATOM     25  C   UNL     1       1.903   4.844  17.940  0.00  0.00    +0.000 A 
ATOM     26  F   UNL     1       0.873   5.477  17.366  0.00  0.00    +0.000 F 
ENDBRANCH  11  18
BRANCH  12  27
ATOM     27  N   UNL     1       2.034   6.798  21.379  0.00  0.00    +0.000 NA
ATOM     28  H   UNL     1       3.029   6.575  21.374  0.00  0.00    +0.000 HD
ATOM     29  H   UNL     1       1.545   5.916  21.527  0.00  0.00    +0.000 HD
ENDBRANCH  12  27
TORSDOF 2
ENDMDL
MODEL 8
REMARK VINA RESULT:      -7.8      4.982      8.702
REMARK  Name = 
REMARK  3 active torsions:
REMARK  status: ('A' for Active; 'I' for Inactive)
REMARK    1  A    between atoms: C_1  and  N_2
REMARK    2  A    between atoms: C_11  and  C_12
REMARK    3  A    between atoms: C_21  and  N_22
REMARK                            x       y       z     vdW  Elec       q    Type
REMARK                         _______ _______ _______ _____ _____    ______ ____
ROOT
ATOM      1  C   UNL     1       6.188   3.883  15.195  0.00  0.00    +0.000 C 
ATOM      2  N   UNL     1       5.249   4.538  16.063  0.00  0.00    +0.000 N 
ATOM      3  N   UNL     1       4.188   3.881  16.654  0.00  0.00    +0.000 NA
ATOM      4  C   UNL     1       3.602   4.815  17.341  0.00  0.00    +0.000 A 
ATOM      5  C   UNL     1       2.414   4.676  18.176  0.00  0.00    +0.000 A 
ATOM      6  C   UNL     1       1.982   5.756  18.813  0.00  0.00    +0.000 A 
ATOM      7  C   UNL     1       2.680   7.070  18.623  0.00  0.00    +0.000 A 
ATOM      8  N   UNL     1       2.161   8.195  19.241  0.00  0.00    +0.000 N 
ATOM      9  C   UNL     1       1.409   8.164  20.488  0.00  0.00    +0.000 C 
ATOM     10  C   UNL     1       0.060   8.850  20.296  0.00  0.00    +0.000 C 
ATOM     11  C   UNL     1       0.204  10.265  19.685  0.00  0.00    +0.000 C 
ATOM     12  C   UNL     1       1.119  10.250  18.421  0.00  0.00    +0.000 C 
ATOM     13  C   UNL     1       2.456   9.537  18.738  0.00  0.00    +0.000 C 
ATOM     14  N   UNL     1       3.741   7.175  17.857  0.00  0.00    +0.000 NA
ATOM     15  N   UNL     1       4.173   6.033  17.259  0.00  0.00    +0.000 N 
ATOM     16  C   UNL     1       5.272   5.902  16.431  0.00  0.00    +0.000 A 
ATOM     17  O   UNL     1       6.092   6.734  16.081  0.00  0.00    +0.000 OA
ENDROOT
BRANCH  11  18
ATOM     18  C   UNL     1      -1.170  10.864  19.404  0.00  0.00    +0.000 A 
ATOM     19  C   UNL     1      -1.689  11.889  20.210  0.00  0.00    +0.000 A 
ATOM     20  C   UNL     1      -2.926  12.456  19.916  0.00  0.00    +0.000 A 
ATOM     21  F   UNL     1      -3.388  13.451  20.684  0.00  0.00    +0.000 F 
ATOM     22  C   UNL     1      -3.669  12.006  18.830  0.00  0.00    +0.000 A 
ATOM     23  F   UNL     1      -4.852  12.567  18.544  0.00  0.00    +0.000 F 
ATOM     24  C   UNL     1      -3.189  10.980  18.029  0.00  0.00    +0.000 A 
ATOM     25  C   UNL     1      -1.948  10.417  18.322  0.00  0.00    +0.000 A 
ATOM     26  F   UNL     1      -1.496   9.435  17.532  0.00  0.00    +0.000 F 
ENDBRANCH  11  18
BRANCH  12  27
ATOM     27  N   UNL     1       1.352  11.603  17.889  0.00  0.00    +0.000 NA
ATOM     28  H   UNL     1       2.072  11.582  17.167  0.00  0.00    +0.000 HD
ATOM     29  H   UNL     1       1.709  12.207  18.628  0.00  0.00    +0.000 HD
ENDBRANCH  12  27
TORSDOF 2
ENDMDL
MODEL 9
REMARK VINA RESULT:      -7.6      5.147      8.767
REMARK  Name = 
REMARK  3 active torsions:
REMARK  status: ('A' for Active; 'I' for Inactive)
REMARK    1  A    between atoms: C_1  and  N_2
REMARK    2  A    between atoms: C_11  and  C_12
REMARK    3  A    between atoms: C_21  and  N_22
REMARK                            x       y       z     vdW  Elec       q    Type
REMARK                         _______ _______ _______ _____ _____    ______ ____
ROOT
ATOM      1  C   UNL     1       5.388   4.145  18.466  0.00  0.00    +0.000 C 
ATOM      2  N   UNL     1       4.473   5.249  18.554  0.00  0.00    +0.000 N 
ATOM      3  N   UNL     1       4.477   6.301  17.659  0.00  0.00    +0.000 NA
ATOM      4  C   UNL     1       3.517   7.063  18.089  0.00  0.00    +0.000 A 
ATOM      5  C   UNL     1       3.072   8.326  17.507  0.00  0.00    +0.000 A 
ATOM      6  C   UNL     1       2.056   8.945  18.093  0.00  0.00    +0.000 A 
ATOM      7  C   UNL     1       1.439   8.372  19.334  0.00  0.00    +0.000 A 
ATOM      8  N   UNL     1       0.430   9.080  19.964  0.00  0.00    +0.000 N 
ATOM      9  C   UNL     1      -0.489   9.975  19.274  0.00  0.00    +0.000 C 
ATOM     10  C   UNL     1      -0.455  11.354  19.925  0.00  0.00    +0.000 C 
ATOM     11  C   UNL     1      -0.676  11.285  21.456  0.00  0.00    +0.000 C 
ATOM     12  C   UNL     1       0.254  10.223  22.120  0.00  0.00    +0.000 C 
ATOM     13  C   UNL     1       0.130   8.868  21.380  0.00  0.00    +0.000 C 
ATOM     14  N   UNL     1       1.863   7.240  19.847  0.00  0.00    +0.000 NA
ATOM     15  N   UNL     1       2.878   6.619  19.188  0.00  0.00    +0.000 N 
ATOM     16  C   UNL     1       3.467   5.417  19.533  0.00  0.00    +0.000 A 
ATOM     17  O   UNL     1       3.211   4.652  20.446  0.00  0.00    +0.000 OA
ENDROOT
BRANCH  11  18
ATOM     18  C   UNL     1      -0.519  12.668  22.078  0.00  0.00    +0.000 A 
ATOM     19  C   UNL     1       0.469  13.556  21.623  0.00  0.00    +0.000 A 
ATOM     20  C   UNL     1       0.573  14.831  22.170  0.00  0.00    +0.000 A 
ATOM     21  F   UNL     1       1.507  15.670  21.701  0.00  0.00    +0.000 F 
ATOM     22  C   UNL     1      -0.289  15.239  23.182  0.00  0.00    +0.000 A 
ATOM     23  F   UNL     1      -0.192  16.473  23.694  0.00  0.00    +0.000 F 
ATOM     24  C   UNL     1      -1.261  14.375  23.665  0.00  0.00    +0.000 A 
ATOM     25  C   UNL     1      -1.367  13.099  23.113  0.00  0.00    +0.000 A 
ATOM     26  F   UNL     1      -2.318  12.283  23.583  0.00  0.00    +0.000 F 
ENDBRANCH  11  18
BRANCH  12  27
ATOM     27  N   UNL     1      -0.017  10.068  23.558  0.00  0.00    +0.000 NA
ATOM     28  H   UNL     1      -0.997   9.831  23.712  0.00  0.00    +0.000 HD
ATOM     29  H   UNL     1       0.139  10.956  24.036  0.00  0.00    +0.000 HD
ENDBRANCH  12  27
TORSDOF 2
ENDMDL
