MODEL 1
REMARK VINA RESULT:      -8.0      0.000      0.000
REMARK  Name = 
REMARK  5 active torsions:
REMARK  status: ('A' for Active; 'I' for Inactive)
REMARK    1  A    between atoms: C_2  and  C_11
REMARK    2  A    between atoms: N_3  and  C_4
REMARK    3  A    between atoms: C_4  and  C_5
REMARK    4  A    between atoms: C_14  and  C_15
REMARK    5  A    between atoms: C_15  and  N_16
REMARK                            x       y       z     vdW  Elec       q    Type
REMARK                         _______ _______ _______ _____ _____    ______ ____
ROOT
ATOM      1  C   UNL     1       5.520   6.370  17.709  0.00  0.00    +0.000 A 
ATOM      2  C   UNL     1       5.622   5.562  18.845  0.00  0.00    +0.000 A 
ATOM      3  C   UNL     1       4.483   5.340  19.629  0.00  0.00    +0.000 A 
ATOM      4  C   UNL     1       3.262   5.958  19.312  0.00  0.00    +0.000 A 
ATOM      5  C   UNL     1       3.165   6.669  18.111  0.00  0.00    +0.000 A 
ATOM      6  C   UNL     1       4.278   6.828  17.285  0.00  0.00    +0.000 A 
ENDROOT
BRANCH   1   8
ATOM      7  O   UNL     1       7.148   8.006  17.209  0.00  0.00    +0.000 OA
ATOM      8  C   UNL     1       6.760   6.855  17.043  0.00  0.00    +0.000 C 
ATOM      9  N   UNL     1       7.419   5.986  16.198  0.00  0.00    +0.000 N 
ATOM     10  H   UNL     1       8.259   6.363  15.775  0.00  0.00    +0.000 HD
BRANCH   9  11
ATOM     11  C   UNL     1       7.003   4.650  15.804  0.00  0.00    +0.000 C 
BRANCH  11  12
ATOM     12  C   UNL     1       6.919   4.484  14.321  0.00  0.00    +0.000 A 
ATOM     13  C   UNL     1       7.758   5.214  13.471  0.00  0.00    +0.000 A 
ATOM     14  C   UNL     1       7.680   5.031  12.093  0.00  0.00    +0.000 A 
ATOM     15  C   UNL     1       6.767   4.123  11.558  0.00  0.00    +0.000 A 
ATOM     16  C   UNL     1       5.932   3.389  12.400  0.00  0.00    +0.000 A 
ATOM     17  C   UNL     1       6.005   3.570  13.777  0.00  0.00    +0.000 A 
ENDBRANCH  11  12
ENDBRANCH   9  11
ENDBRANCH   1   8
BRANCH   4  18
ATOM     18  C   UNL     1       2.027   5.816  20.175  0.00  0.00    +0.000 C 
BRANCH  18  19
ATOM     19  N   UNL     1       1.374   4.512  20.279  0.00  0.00    +0.000 NA
ATOM     20  C   UNL     1       1.815   3.583  21.324  0.00  0.00    +0.000 C 
ATOM     21  C   UNL     1       2.878   2.559  20.883  0.00  0.00    +0.000 C 
ATOM     22  O   UNL     1       2.537   1.903  19.655  0.00  0.00    +0.000 OA
ATOM     23  C   UNL     1       2.249   2.845  18.616  0.00  0.00    +0.000 C 
ATOM     24  C   UNL     1       1.123   3.801  19.026  0.00  0.00    +0.000 C 
ENDBRANCH  18  19
ENDBRANCH   4  18
TORSDOF 5
ENDMDL
MODEL 2
REMARK VINA RESULT:      -7.9      0.125      1.017
REMARK  Name = 
REMARK  5 active torsions:
REMARK  status: ('A' for Active; 'I' for Inactive)
REMARK    1  A    between atoms: C_2  and  C_11
REMARK    2  A    between atoms: N_3  and  C_4
REMARK    3  A    between atoms: C_4  and  C_5
REMARK    4  A    between atoms: C_14  and  C_15
REMARK    5  A    between atoms: C_15  and  N_16
REMARK                            x       y       z     vdW  Elec       q    Type
REMARK                         _______ _______ _______ _____ _____    ______ ____
ROOT
ATOM      1  C   UNL     1       5.498   6.321  17.729  0.00  0.00    +0.000 A 
ATOM      2  C   UNL     1       5.622   5.543  18.883  0.00  0.00    +0.000 A 
ATOM      3  C   UNL     1       4.489   5.305  19.671  0.00  0.00    +0.000 A 
ATOM      4  C   UNL     1       3.251   5.879  19.338  0.00  0.00    +0.000 A 
ATOM      5  C   UNL     1       3.134   6.560  18.122  0.00  0.00    +0.000 A 
ATOM      6  C   UNL     1       4.243   6.732  17.293  0.00  0.00    +0.000 A 
ENDROOT
BRANCH   1   8
ATOM      7  O   UNL     1       7.087   7.989  17.206  0.00  0.00    +0.000 OA
ATOM      8  C   UNL     1       6.724   6.828  17.052  0.00  0.00    +0.000 C 
ATOM      9  N   UNL     1       7.399   5.966  16.213  0.00  0.00    +0.000 N 
ATOM     10  H   UNL     1       8.228   6.358  15.783  0.00  0.00    +0.000 HD
BRANCH   9  11
ATOM     11  C   UNL     1       7.012   4.617  15.834  0.00  0.00    +0.000 C 
BRANCH  11  12
ATOM     12  C   UNL     1       6.918   4.438  14.353  0.00  0.00    +0.000 A 
ATOM     13  C   UNL     1       5.968   3.576  13.796  0.00  0.00    +0.000 A 
ATOM     14  C   UNL     1       5.881   3.437  12.412  0.00  0.00    +0.000 A 
ATOM     15  C   UNL     1       6.740   4.155  11.582  0.00  0.00    +0.000 A 
ATOM     16  C   UNL     1       7.687   5.019  12.131  0.00  0.00    +0.000 A 
ATOM     17  C   UNL     1       7.778   5.159  13.512  0.00  0.00    +0.000 A 
ENDBRANCH  11  12
ENDBRANCH   9  11
ENDBRANCH   1   8
BRANCH   4  18
ATOM     18  C   UNL     1       2.019   5.720  20.203  0.00  0.00    +0.000 C 
BRANCH  18  19
ATOM     19  N   UNL     1       1.297   4.449  20.194  0.00  0.00    +0.000 NA
ATOM     20  C   UNL     1       1.632   3.440  21.203  0.00  0.00    +0.000 C 
ATOM     21  C   UNL     1       2.667   2.388  20.759  0.00  0.00    +0.000 C 
ATOM     22  O   UNL     1       2.365   1.823  19.478  0.00  0.00    +0.000 OA
ATOM     23  C   UNL     1       2.183   2.836  18.483  0.00  0.00    +0.000 C 
ATOM     24  C   UNL     1       1.085   3.825  18.888  0.00  0.00    +0.000 C 
ENDBRANCH  18  19
ENDBRANCH   4  18
TORSDOF 5
ENDMDL
MODEL 3
REMARK VINA RESULT:      -7.9      0.845      1.362
REMARK  Name = 
REMARK  5 active torsions:
REMARK  status: ('A' for Active; 'I' for Inactive)
REMARK    1  A    between atoms: C_2  and  C_11
REMARK    2  A    between atoms: N_3  and  C_4
REMARK    3  A    between atoms: C_4  and  C_5
REMARK    4  A    between atoms: C_14  and  C_15
REMARK    5  A    between atoms: C_15  and  N_16
REMARK                            x       y       z     vdW  Elec       q    Type
REMARK                         _______ _______ _______ _____ _____    ______ ____
ROOT
ATOM      1  C   UNL     1       5.872   6.574  17.844  0.00  0.00    +0.000 A 
ATOM      2  C   UNL     1       4.645   7.049  17.370  0.00  0.00    +0.000 A 
ATOM      3  C   UNL     1       3.462   6.606  17.974  0.00  0.00    +0.000 A 
ATOM      4  C   UNL     1       3.497   5.658  19.010  0.00  0.00    +0.000 A 
ATOM      5  C   UNL     1       4.739   5.286  19.534  0.00  0.00    +0.000 A 
ATOM      6  C   UNL     1       5.922   5.786  18.988  0.00  0.00    +0.000 A 
ENDROOT
BRANCH   1   8
ATOM      7  O   UNL     1       7.763   7.819  17.173  0.00  0.00    +0.000 OA
ATOM      8  C   UNL     1       7.103   6.795  17.037  0.00  0.00    +0.000 C 
ATOM      9  N   UNL     1       7.441   5.838  16.103  0.00  0.00    +0.000 N 
ATOM     10  H   UNL     1       8.289   6.034  15.586  0.00  0.00    +0.000 HD
BRANCH   9  11
ATOM     11  C   UNL     1       6.685   4.650  15.741  0.00  0.00    +0.000 C 
BRANCH  11  12
ATOM     12  C   UNL     1       6.662   4.406  14.267  0.00  0.00    +0.000 A 
ATOM     13  C   UNL     1       7.610   5.002  13.429  0.00  0.00    +0.000 A 
ATOM     14  C   UNL     1       7.587   4.746  12.059  0.00  0.00    +0.000 A 
ATOM     15  C   UNL     1       6.619   3.898  11.522  0.00  0.00    +0.000 A 
ATOM     16  C   UNL     1       5.673   3.298  12.354  0.00  0.00    +0.000 A 
ATOM     17  C   UNL     1       5.693   3.552  13.721  0.00  0.00    +0.000 A 
ENDBRANCH  11  12
ENDBRANCH   9  11
ENDBRANCH   1   8
BRANCH   4  18
ATOM     18  C   UNL     1       2.243   5.086  19.635  0.00  0.00    +0.000 C 
BRANCH  18  19
ATOM     19  N   UNL     1       1.836   3.722  19.302  0.00  0.00    +0.000 NA
ATOM     20  C   UNL     1       2.464   2.605  20.014  0.00  0.00    +0.000 C 
ATOM     21  C   UNL     1       3.680   1.978  19.305  0.00  0.00    +0.000 C 
ATOM     22  O   UNL     1       3.429   1.695  17.923  0.00  0.00    +0.000 OA
ATOM     23  C   UNL     1       2.949   2.850  17.226  0.00  0.00    +0.000 C 
ATOM     24  C   UNL     1       1.683   3.411  17.881  0.00  0.00    +0.000 C 
ENDBRANCH  18  19
ENDBRANCH   4  18
TORSDOF 5
ENDMDL
MODEL 4
REMARK VINA RESULT:      -7.9      0.835      1.684
REMARK  Name = 
REMARK  5 active torsions:
REMARK  status: ('A' for Active; 'I' for Inactive)
REMARK    1  A    between atoms: C_2  and  C_11
REMARK    2  A    between atoms: N_3  and  C_4
REMARK    3  A    between atoms: C_4  and  C_5
REMARK    4  A    between atoms: C_14  and  C_15
REMARK    5  A    between atoms: C_15  and  N_16
REMARK                            x       y       z     vdW  Elec       q    Type
REMARK                         _______ _______ _______ _____ _____    ______ ____
ROOT
ATOM      1  C   UNL     1       5.815   6.579  17.869  0.00  0.00    +0.000 A 
ATOM      2  C   UNL     1       4.605   7.087  17.387  0.00  0.00    +0.000 A 
ATOM      3  C   UNL     1       3.406   6.669  17.978  0.00  0.00    +0.000 A 
ATOM      4  C   UNL     1       3.408   5.714  19.008  0.00  0.00    +0.000 A 
ATOM      5  C   UNL     1       4.636   5.308  19.541  0.00  0.00    +0.000 A 
ATOM      6  C   UNL     1       5.835   5.783  19.008  0.00  0.00    +0.000 A 
ENDROOT
BRANCH   1   8
ATOM      7  O   UNL     1       7.735   7.788  17.214  0.00  0.00    +0.000 OA
ATOM      8  C   UNL     1       7.058   6.775  17.075  0.00  0.00    +0.000 C 
ATOM      9  N   UNL     1       7.389   5.808  16.147  0.00  0.00    +0.000 N 
ATOM     10  H   UNL     1       8.246   5.987  15.638  0.00  0.00    +0.000 HD
BRANCH   9  11
ATOM     11  C   UNL     1       6.616   4.633  15.782  0.00  0.00    +0.000 C 
BRANCH  11  12
ATOM     12  C   UNL     1       6.630   4.366  14.311  0.00  0.00    +0.000 A 
ATOM     13  C   UNL     1       5.695   3.502  13.733  0.00  0.00    +0.000 A 
ATOM     14  C   UNL     1       5.709   3.281  12.357  0.00  0.00    +0.000 A 
ATOM     15  C   UNL     1       6.655   3.920  11.556  0.00  0.00    +0.000 A 
ATOM     16  C   UNL     1       7.587   4.786  12.127  0.00  0.00    +0.000 A 
ATOM     17  C   UNL     1       7.577   5.007  13.500  0.00  0.00    +0.000 A 
ENDBRANCH  11  12
ENDBRANCH   9  11
ENDBRANCH   1   8
BRANCH   4  18
ATOM     18  C   UNL     1       2.135   5.169  19.618  0.00  0.00    +0.000 C 
BRANCH  18  19
ATOM     19  N   UNL     1       1.674   3.835  19.239  0.00  0.00    +0.000 NA
ATOM     20  C   UNL     1       2.242   2.670  19.924  0.00  0.00    +0.000 C 
ATOM     21  C   UNL     1       3.440   2.012  19.214  0.00  0.00    +0.000 C 
ATOM     22  O   UNL     1       3.198   1.781  17.821  0.00  0.00    +0.000 OA
ATOM     23  C   UNL     1       2.779   2.976  17.152  0.00  0.00    +0.000 C 
ATOM     24  C   UNL     1       1.529   3.573  17.807  0.00  0.00    +0.000 C 
ENDBRANCH  18  19
ENDBRANCH   4  18
TORSDOF 5
ENDMDL
MODEL 5
REMARK VINA RESULT:      -7.9      3.413      5.575
REMARK  Name = 
REMARK  5 active torsions:
REMARK  status: ('A' for Active; 'I' for Inactive)
REMARK    1  A    between atoms: C_2  and  C_11
REMARK    2  A    between atoms: N_3  and  C_4
REMARK    3  A    between atoms: C_4  and  C_5
REMARK    4  A    between atoms: C_14  and  C_15
REMARK    5  A    between atoms: C_15  and  N_16
REMARK                            x       y       z     vdW  Elec       q    Type
REMARK                         _______ _______ _______ _____ _____    ______ ____
ROOT
ATOM      1  C   UNL     1       2.458   4.631  18.540  0.00  0.00    +0.000 A 
ATOM      2  C   UNL     1       2.008   4.370  19.838  0.00  0.00    +0.000 A 
ATOM      3  C   UNL     1       1.694   5.445  20.679  0.00  0.00    +0.000 A 
ATOM      4  C   UNL     1       1.874   6.770  20.249  0.00  0.00    +0.000 A 
ATOM      5  C   UNL     1       2.219   6.997  18.913  0.00  0.00    +0.000 A 
ATOM      6  C   UNL     1       2.457   5.930  18.047  0.00  0.00    +0.000 A 
ENDROOT
BRANCH   1   8
ATOM      7  O   UNL     1       2.400   2.886  16.950  0.00  0.00    +0.000 OA
ATOM      8  C   UNL     1       3.073   3.533  17.745  0.00  0.00    +0.000 C 
ATOM      9  N   UNL     1       4.402   3.238  17.973  0.00  0.00    +0.000 N 
ATOM     10  H   UNL     1       4.772   2.488  17.402  0.00  0.00    +0.000 HD
BRANCH   9  11
ATOM     11  C   UNL     1       5.278   3.826  18.972  0.00  0.00    +0.000 C 
BRANCH  11  12
ATOM     12  C   UNL     1       6.100   4.951  18.430  0.00  0.00    +0.000 A 
ATOM     13  C   UNL     1       5.852   5.468  17.154  0.00  0.00    +0.000 A 
ATOM     14  C   UNL     1       6.615   6.530  16.673  0.00  0.00    +0.000 A 
ATOM     15  C   UNL     1       7.626   7.078  17.461  0.00  0.00    +0.000 A 
ATOM     16  C   UNL     1       7.876   6.569  18.736  0.00  0.00    +0.000 A 
ATOM     17  C   UNL     1       7.118   5.508  19.219  0.00  0.00    +0.000 A 
ENDBRANCH  11  12
ENDBRANCH   9  11
ENDBRANCH   1   8
BRANCH   4  18
ATOM     18  C   UNL     1       1.629   7.960  21.150  0.00  0.00    +0.000 C 
BRANCH  18  19
ATOM     19  N   UNL     1       0.424   8.766  20.959  0.00  0.00    +0.000 NA
ATOM     20  C   UNL     1       0.545  10.071  20.302  0.00  0.00    +0.000 C 
ATOM     21  C   UNL     1       0.704  11.271  21.254  0.00  0.00    +0.000 C 
ATOM     22  O   UNL     1      -0.256  11.265  22.318  0.00  0.00    +0.000 OA
ATOM     23  C   UNL     1      -0.248  10.022  23.029  0.00  0.00    +0.000 C 
ATOM     24  C   UNL     1      -0.502   8.839  22.089  0.00  0.00    +0.000 C 
ENDBRANCH  18  19
ENDBRANCH   4  18
TORSDOF 5
ENDMDL
MODEL 6
REMARK VINA RESULT:      -7.9      3.688      5.720
REMARK  Name = 
REMARK  5 active torsions:
REMARK  status: ('A' for Active; 'I' for Inactive)
REMARK    1  A    between atoms: C_2  and  C_11
REMARK    2  A    between atoms: N_3  and  C_4
REMARK    3  A    between atoms: C_4  and  C_5
REMARK    4  A    between atoms: C_14  and  C_15
REMARK    5  A    between atoms: C_15  and  N_16
REMARK                            x       y       z     vdW  Elec       q    Type
REMARK                         _______ _______ _______ _____ _____    ______ ____
ROOT
ATOM      1  C   UNL     1       2.429   5.201  18.722  0.00  0.00    +0.000 A 
ATOM      2  C   UNL     1       2.696   6.435  18.122  0.00  0.00    +0.000 A 
ATOM      3  C   UNL     1       2.418   7.612  18.828  0.00  0.00    +0.000 A 
ATOM      4  C   UNL     1       1.833   7.561  20.104  0.00  0.00    +0.000 A 
ATOM      5  C   UNL     1       1.681   6.315  20.721  0.00  0.00    +0.000 A 
ATOM      6  C   UNL     1       2.030   5.142  20.052  0.00  0.00    +0.000 A 
ENDROOT
BRANCH   1   8
ATOM      7  O   UNL     1       1.440   3.640  17.251  0.00  0.00    +0.000 OA
ATOM      8  C   UNL     1       2.435   3.967  17.890  0.00  0.00    +0.000 C 
ATOM      9  N   UNL     1       3.571   3.184  17.906  0.00  0.00    +0.000 N 
ATOM     10  H   UNL     1       3.524   2.360  17.319  0.00  0.00    +0.000 HD
BRANCH   9  11
ATOM     11  C   UNL     1       4.764   3.375  18.714  0.00  0.00    +0.000 C 
BRANCH  11  12
ATOM     12  C   UNL     1       5.665   4.438  18.172  0.00  0.00    +0.000 A 
ATOM     13  C   UNL     1       6.385   5.272  19.033  0.00  0.00    +0.000 A 
ATOM     14  C   UNL     1       7.236   6.244  18.511  0.00  0.00    +0.000 A 
ATOM     15  C   UNL     1       7.370   6.387  17.131  0.00  0.00    +0.000 A 
ATOM     16  C   UNL     1       6.657   5.556  16.266  0.00  0.00    +0.000 A 
ATOM     17  C   UNL     1       5.805   4.586  16.784  0.00  0.00    +0.000 A 
ENDBRANCH  11  12
ENDBRANCH   9  11
ENDBRANCH   1   8
BRANCH   4  18
ATOM     18  C   UNL     1       1.438   8.805  20.870  0.00  0.00    +0.000 C 
BRANCH  18  19
ATOM     19  N   UNL     1       0.022   9.151  20.992  0.00  0.00    +0.000 NA
ATOM     20  C   UNL     1      -0.447  10.415  20.418  0.00  0.00    +0.000 C 
ATOM     21  C   UNL     1      -0.493  11.603  21.398  0.00  0.00    +0.000 C 
ATOM     22  O   UNL     1      -1.136  11.274  22.635  0.00  0.00    +0.000 OA
ATOM     23  C   UNL     1      -0.557  10.113  23.240  0.00  0.00    +0.000 C 
ATOM     24  C   UNL     1      -0.602   8.909  22.293  0.00  0.00    +0.000 C 
ENDBRANCH  18  19
ENDBRANCH   4  18
TORSDOF 5
ENDMDL
MODEL 7
REMARK VINA RESULT:      -7.8      3.864      7.857
REMARK  Name = 
REMARK  5 active torsions:
REMARK  status: ('A' for Active; 'I' for Inactive)
REMARK    1  A    between atoms: C_2  and  C_11
REMARK    2  A    between atoms: N_3  and  C_4
REMARK    3  A    between atoms: C_4  and  C_5
REMARK    4  A    between atoms: C_14  and  C_15
REMARK    5  A    between atoms: C_15  and  N_16
REMARK                            x       y       z     vdW  Elec       q    Type
REMARK                         _______ _______ _______ _____ _____    ______ ____
ROOT
ATOM      1  C   UNL     1       7.364   6.097  17.925  0.00  0.00    +0.000 A 
ATOM      2  C   UNL     1       8.243   6.478  18.943  0.00  0.00    +0.000 A 
ATOM      3  C   UNL     1       8.609   7.824  19.059  0.00  0.00    +0.000 A 
ATOM      4  C   UNL     1       8.143   8.777  18.139  0.00  0.00    +0.000 A 
ATOM      5  C   UNL     1       7.181   8.387  17.202  0.00  0.00    +0.000 A 
ATOM      6  C   UNL     1       6.752   7.061  17.132  0.00  0.00    +0.000 A 
ENDROOT
BRANCH   1   8
ATOM      7  O   UNL     1       7.926   4.112  16.775  0.00  0.00    +0.000 OA
ATOM      8  C   UNL     1       7.200   4.653  17.602  0.00  0.00    +0.000 C 
ATOM      9  N   UNL     1       6.176   3.966  18.222  0.00  0.00    +0.000 N 
ATOM     10  H   UNL     1       6.112   2.987  17.972  0.00  0.00    +0.000 HD
BRANCH   9  11
ATOM     11  C   UNL     1       5.163   4.506  19.113  0.00  0.00    +0.000 C 
BRANCH  11  12
ATOM     12  C   UNL     1       3.818   3.890  18.899  0.00  0.00    +0.000 A 
ATOM     13  C   UNL     1       3.620   2.936  17.895  0.00  0.00    +0.000 A 
ATOM     14  C   UNL     1       2.364   2.357  17.724  0.00  0.00    +0.000 A 
ATOM     15  C   UNL     1       1.305   2.726  18.551  0.00  0.00    +0.000 A 
ATOM     16  C   UNL     1       1.497   3.674  19.557  0.00  0.00    +0.000 A 
ATOM     17  C   UNL     1       2.748   4.256  19.730  0.00  0.00    +0.000 A 
ENDBRANCH  11  12
ENDBRANCH   9  11
ENDBRANCH   1   8
BRANCH   4  18
ATOM     18  C   UNL     1       8.577  10.226  18.174  0.00  0.00    +0.000 C 
BRANCH  18  19
ATOM     19  N   UNL     1       9.685  10.620  19.043  0.00  0.00    +0.000 NA
ATOM     20  C   UNL     1       9.388  11.072  20.405  0.00  0.00    +0.000 C 
ATOM     21  C   UNL     1       9.250  12.597  20.574  0.00  0.00    +0.000 C 
ATOM     22  O   UNL     1      10.326  13.320  19.964  0.00  0.00    +0.000 OA
ATOM     23  C   UNL     1      10.497  12.954  18.591  0.00  0.00    +0.000 C 
ATOM     24  C   UNL     1      10.730  11.447  18.440  0.00  0.00    +0.000 C 
ENDBRANCH  18  19
ENDBRANCH   4  18
TORSDOF 5
ENDMDL
MODEL 8
REMARK VINA RESULT:      -7.8      3.681      6.664
REMARK  Name = 
REMARK  5 active torsions:
REMARK  status: ('A' for Active; 'I' for Inactive)
REMARK    1  A    between atoms: C_2  and  C_11
REMARK    2  A    between atoms: N_3  and  C_4
REMARK    3  A    between atoms: C_4  and  C_5
REMARK    4  A    between atoms: C_14  and  C_15
REMARK    5  A    between atoms: C_15  and  N_16
REMARK                            x       y       z     vdW  Elec       q    Type
REMARK                         _______ _______ _______ _____ _____    ______ ____
ROOT
ATOM      1  C   UNL     1       4.335   5.932  18.771  0.00  0.00    +0.000 A 
ATOM      2  C   UNL     1       3.324   6.196  19.699  0.00  0.00    +0.000 A 
ATOM      3  C   UNL     1       2.389   7.202  19.421  0.00  0.00    +0.000 A 
ATOM      4  C   UNL     1       2.489   7.972  18.251  0.00  0.00    +0.000 A 
ATOM      5  C   UNL     1       3.443   7.611  17.293  0.00  0.00    +0.000 A 
ATOM      6  C   UNL     1       4.327   6.558  17.530  0.00  0.00    +0.000 A 
ENDROOT
BRANCH   1   8
ATOM      7  O   UNL     1       6.523   5.606  19.597  0.00  0.00    +0.000 OA
ATOM      8  C   UNL     1       5.495   5.091  19.173  0.00  0.00    +0.000 C 
ATOM      9  N   UNL     1       5.390   3.725  19.001  0.00  0.00    +0.000 N 
ATOM     10  H   UNL     1       6.204   3.199  19.296  0.00  0.00    +0.000 HD
BRANCH   9  11
ATOM     11  C   UNL     1       4.295   2.993  18.389  0.00  0.00    +0.000 C 
BRANCH  11  12
ATOM     12  C   UNL     1       3.088   2.918  19.268  0.00  0.00    +0.000 A 
ATOM     13  C   UNL     1       3.217   2.707  20.644  0.00  0.00    +0.000 A 
ATOM     14  C   UNL     1       2.082   2.660  21.451  0.00  0.00    +0.000 A 
ATOM     15  C   UNL     1       0.817   2.823  20.889  0.00  0.00    +0.000 A 
ATOM     16  C   UNL     1       0.681   3.037  19.517  0.00  0.00    +0.000 A 
ATOM     17  C   UNL     1       1.812   3.083  18.708  0.00  0.00    +0.000 A 
ENDBRANCH  11  12
ENDBRANCH   9  11
ENDBRANCH   1   8
BRANCH   4  18
ATOM     18  C   UNL     1       1.555   9.123  17.949  0.00  0.00    +0.000 C 
BRANCH  18  19
ATOM     19  N   UNL     1       0.710   9.658  19.016  0.00  0.00    +0.000 NA
ATOM     20  C   UNL     1      -0.702   9.928  18.730  0.00  0.00    +0.000 C 
ATOM     21  C   UNL     1      -1.019  11.376  18.310  0.00  0.00    +0.000 C 
ATOM     22  O   UNL     1      -0.426  12.347  19.182  0.00  0.00    +0.000 OA
ATOM     23  C   UNL     1       0.982  12.136  19.327  0.00  0.00    +0.000 C 
ATOM     24  C   UNL     1       1.285  10.723  19.837  0.00  0.00    +0.000 C 
ENDBRANCH  18  19
ENDBRANCH   4  18
TORSDOF 5
ENDMDL
MODEL 9
REMARK VINA RESULT:      -7.8      3.680      5.772
REMARK  Name = 
REMARK  5 active torsions:
REMARK  status: ('A' for Active; 'I' for Inactive)
REMARK    1  A    between atoms: C_2  and  C_11
REMARK    2  A    between atoms: N_3  and  C_4
REMARK    3  A    between atoms: C_4  and  C_5
REMARK    4  A    between atoms: C_14  and  C_15
REMARK    5  A    between atoms: C_15  and  N_16
REMARK                            x       y       z     vdW  Elec       q    Type
REMARK                         _______ _______ _______ _____ _____    ______ ____
ROOT
ATOM      1  C   UNL     1       2.342   5.304  18.841  0.00  0.00    +0.000 A 
ATOM      2  C   UNL     1       2.604   6.450  18.085  0.00  0.00    +0.000 A 
ATOM      3  C   UNL     1       2.342   7.709  18.642  0.00  0.00    +0.000 A 
ATOM      4  C   UNL     1       1.776   7.824  19.922  0.00  0.00    +0.000 A 
ATOM      5  C   UNL     1       1.628   6.666  20.694  0.00  0.00    +0.000 A 
ATOM      6  C   UNL     1       1.962   5.416  20.173  0.00  0.00    +0.000 A 
ENDROOT
BRANCH   1   8
ATOM      7  O   UNL     1       1.320   3.570  17.605  0.00  0.00    +0.000 OA
ATOM      8  C   UNL     1       2.329   3.974  18.172  0.00  0.00    +0.000 C 
ATOM      9  N   UNL     1       3.467   3.199  18.259  0.00  0.00    +0.000 N 
ATOM     10  H   UNL     1       3.408   2.307  17.782  0.00  0.00    +0.000 HD
BRANCH   9  11
ATOM     11  C   UNL     1       4.679   3.489  19.006  0.00  0.00    +0.000 C 
BRANCH  11  12
ATOM     12  C   UNL     1       5.587   4.436  18.290  0.00  0.00    +0.000 A 
ATOM     13  C   UNL     1       5.660   4.439  16.893  0.00  0.00    +0.000 A 
ATOM     14  C   UNL     1       6.496   5.343  16.241  0.00  0.00    +0.000 A 
ATOM     15  C   UNL     1       7.262   6.244  16.979  0.00  0.00    +0.000 A 
ATOM     16  C   UNL     1       7.191   6.249  18.372  0.00  0.00    +0.000 A 
ATOM     17  C   UNL     1       6.359   5.347  19.027  0.00  0.00    +0.000 A 
ENDBRANCH  11  12
ENDBRANCH   9  11
ENDBRANCH   1   8
BRANCH   4  18
ATOM     18  C   UNL     1       1.398   9.156  20.530  0.00  0.00    +0.000 C 
BRANCH  18  19
ATOM     19  N   UNL     1       0.013   9.390  20.937  0.00  0.00    +0.000 NA
ATOM     20  C   UNL     1      -0.552  10.734  20.780  0.00  0.00    +0.000 C 
ATOM     21  C   UNL     1      -0.462  11.632  22.029  0.00  0.00    +0.000 C 
ATOM     22  O   UNL     1      -0.909  10.970  23.218  0.00  0.00    +0.000 OA
ATOM     23  C   UNL     1      -0.232   9.724  23.415  0.00  0.00    +0.000 C 
ATOM     24  C   UNL     1      -0.406   8.798  22.207  0.00  0.00    +0.000 C 
ENDBRANCH  18  19
ENDBRANCH   4  18
TORSDOF 5
ENDMDL
