MODEL 1
REMARK VINA RESULT:      -7.5      0.000      0.000
REMARK  Name = 
REMARK  6 active torsions:
REMARK  status: ('A' for Active; 'I' for Inactive)
REMARK    1  A    between atoms: C_1  and  C_2
REMARK    2  A    between atoms: C_2  and  C_3
REMARK    3  A    between atoms: C_4  and  O_5
REMARK    4  A    between atoms: N_9  and  C_10
REMARK    5  A    between atoms: C_13  and  C_14
REMARK    6  A    between atoms: C_16  and  C_17
REMARK                            x       y       z     vdW  Elec       q    Type
REMARK                         _______ _______ _______ _____ _____    ______ ____
ROOT
ATOM      1  C   UNL     1       4.191   4.136  18.754  0.00  0.00    +0.000 A 
ATOM      2  C   UNL     1       3.870   3.940  17.408  0.00  0.00    +0.000 A 
ATOM      3  C   UNL     1       4.771   4.287  16.407  0.00  0.00    +0.000 A 
ATOM      4  C   UNL     1       6.034   4.802  16.730  0.00  0.00    +0.000 A 
ATOM      5  C   UNL     1       6.386   4.995  18.078  0.00  0.00    +0.000 A 
ATOM      6  C   UNL     1       5.444   4.667  19.083  0.00  0.00    +0.000 A 
ENDROOT
BRANCH   1  12
ATOM      7  C   UNL     1       2.416   4.733  20.472  0.00  0.00    +0.000 C 
ATOM      8  C   UNL     1       1.441   3.782  21.194  0.00  0.00    +0.000 C 
ATOM      9  C   UNL     1       2.269   2.541  21.479  0.00  0.00    +0.000 C 
ATOM     10  C   UNL     1       3.224   2.515  20.315  0.00  0.00    +0.000 C 
ATOM     11  O   UNL     1       3.901   1.544  20.009  0.00  0.00    +0.000 OA
ATOM     12  N   UNL     1       3.239   3.790  19.731  0.00  0.00    +0.000 N 
BRANCH   7  14
ATOM     13  C   UNL     1       2.283   7.172  19.684  0.00  0.00    +0.000 C 
ATOM     14  C   UNL     1       1.695   5.768  19.587  0.00  0.00    +0.000 C 
ENDBRANCH   7  14
BRANCH   8  15
ATOM     15  O   UNL     1       0.320   3.414  20.375  0.00  0.00    +0.000 OA
ATOM     16  H   UNL     1       0.641   2.858  19.644  0.00  0.00    +0.000 HD
ENDBRANCH   8  15
ENDBRANCH   1  12
BRANCH   5  17
ATOM     17  C   UNL     1       7.726   5.544  18.511  0.00  0.00    +0.000 C 
ATOM     18  F   UNL     1       8.121   6.679  17.882  0.00  0.00    +0.000 F 
ATOM     19  F   UNL     1       7.740   5.839  19.841  0.00  0.00    +0.000 F 
ATOM     20  F   UNL     1       8.734   4.647  18.324  0.00  0.00    +0.000 F 
ENDBRANCH   5  17
BRANCH   4  21
ATOM     21  C   UNL     1       6.910   5.112  15.640  0.00  0.00    +0.000 C 
ATOM     22  N   UNL     1       7.648   5.377  14.779  0.00  0.00    +0.000 NA
ENDBRANCH   4  21
TORSDOF 5
ENDMDL
MODEL 2
REMARK VINA RESULT:      -7.5      1.228      2.322
REMARK  Name = 
REMARK  6 active torsions:
REMARK  status: ('A' for Active; 'I' for Inactive)
REMARK    1  A    between atoms: C_1  and  C_2
REMARK    2  A    between atoms: C_2  and  C_3
REMARK    3  A    between atoms: C_4  and  O_5
REMARK    4  A    between atoms: N_9  and  C_10
REMARK    5  A    between atoms: C_13  and  C_14
REMARK    6  A    between atoms: C_16  and  C_17
REMARK                            x       y       z     vdW  Elec       q    Type
REMARK                         _______ _______ _______ _____ _____    ______ ____
ROOT
ATOM      1  C   UNL     1       3.924   4.539  18.513  0.00  0.00    +0.000 A 
ATOM      2  C   UNL     1       3.670   4.429  17.144  0.00  0.00    +0.000 A 
ATOM      3  C   UNL     1       4.673   4.684  16.215  0.00  0.00    +0.000 A 
ATOM      4  C   UNL     1       5.967   5.017  16.634  0.00  0.00    +0.000 A 
ATOM      5  C   UNL     1       6.251   5.121  18.008  0.00  0.00    +0.000 A 
ATOM      6  C   UNL     1       5.211   4.889  18.940  0.00  0.00    +0.000 A 
ENDROOT
BRANCH   1  12
ATOM      7  C   UNL     1       2.229   3.004  19.624  0.00  0.00    +0.000 C 
ATOM      8  C   UNL     1       1.349   3.301  20.854  0.00  0.00    +0.000 C 
ATOM      9  C   UNL     1       0.935   4.752  20.679  0.00  0.00    +0.000 C 
ATOM     10  C   UNL     1       2.123   5.343  19.967  0.00  0.00    +0.000 C 
ATOM     11  O   UNL     1       2.324   6.544  19.857  0.00  0.00    +0.000 OA
ATOM     12  N   UNL     1       2.872   4.293  19.415  0.00  0.00    +0.000 N 
BRANCH   7  14
ATOM     13  C   UNL     1       3.664   1.151  18.578  0.00  0.00    +0.000 C 
ATOM     14  C   UNL     1       3.215   1.844  19.861  0.00  0.00    +0.000 C 
ENDBRANCH   7  14
BRANCH   8  15
ATOM     15  O   UNL     1       2.065   3.169  22.092  0.00  0.00    +0.000 OA
ATOM     16  H   UNL     1       1.456   2.817  22.765  0.00  0.00    +0.000 HD
ENDBRANCH   8  15
ENDBRANCH   1  12
BRANCH   5  17
ATOM     17  C   UNL     1       7.621   5.474  18.544  0.00  0.00    +0.000 C 
ATOM     18  F   UNL     1       8.143   6.638  18.082  0.00  0.00    +0.000 F 
ATOM     19  F   UNL     1       7.611   5.590  19.901  0.00  0.00    +0.000 F 
ATOM     20  F   UNL     1       8.546   4.515  18.263  0.00  0.00    +0.000 F 
ENDBRANCH   5  17
BRANCH   4  21
ATOM     21  C   UNL     1       6.946   5.242  15.613  0.00  0.00    +0.000 C 
ATOM     22  N   UNL     1       7.732   5.464  14.783  0.00  0.00    +0.000 NA
ENDBRANCH   4  21
TORSDOF 5
ENDMDL
MODEL 3
REMARK VINA RESULT:      -7.0      0.852      1.090
REMARK  Name = 
REMARK  6 active torsions:
REMARK  status: ('A' for Active; 'I' for Inactive)
REMARK    1  A    between atoms: C_1  and  C_2
REMARK    2  A    between atoms: C_2  and  C_3
REMARK    3  A    between atoms: C_4  and  O_5
REMARK    4  A    between atoms: N_9  and  C_10
REMARK    5  A    between atoms: C_13  and  C_14
REMARK    6  A    between atoms: C_16  and  C_17
REMARK                            x       y       z     vdW  Elec       q    Type
REMARK                         _______ _______ _______ _____ _____    ______ ____
ROOT
ATOM      1  C   UNL     1       4.295   4.249  18.499  0.00  0.00    +0.000 A 
ATOM      2  C   UNL     1       4.144   3.556  17.295  0.00  0.00    +0.000 A 
ATOM      3  C   UNL     1       4.909   3.891  16.184  0.00  0.00    +0.000 A 
ATOM      4  C   UNL     1       5.875   4.903  16.261  0.00  0.00    +0.000 A 
ATOM      5  C   UNL     1       6.056   5.605  17.465  0.00  0.00    +0.000 A 
ATOM      6  C   UNL     1       5.246   5.273  18.578  0.00  0.00    +0.000 A 
ENDROOT
BRANCH   1  12
ATOM      7  C   UNL     1       2.694   4.811  20.391  0.00  0.00    +0.000 C 
ATOM      8  C   UNL     1       1.867   3.835  21.252  0.00  0.00    +0.000 C 
ATOM      9  C   UNL     1       2.796   2.655  21.480  0.00  0.00    +0.000 C 
ATOM     10  C   UNL     1       3.612   2.638  20.214  0.00  0.00    +0.000 C 
ATOM     11  O   UNL     1       4.308   1.696  19.864  0.00  0.00    +0.000 OA
ATOM     12  N   UNL     1       3.483   3.888  19.590  0.00  0.00    +0.000 N 
BRANCH   7  14
ATOM     13  C   UNL     1       2.260   7.224  19.632  0.00  0.00    +0.000 C 
ATOM     14  C   UNL     1       1.815   5.767  19.562  0.00  0.00    +0.000 C 
ENDBRANCH   7  14
BRANCH   8  15
ATOM     15  O   UNL     1       0.684   3.372  20.581  0.00  0.00    +0.000 OA
ATOM     16  H   UNL     1       0.123   4.141  20.380  0.00  0.00    +0.000 HD
ENDBRANCH   8  15
ENDBRANCH   1  12
BRANCH   5  17
ATOM     17  C   UNL     1       7.076   6.709  17.633  0.00  0.00    +0.000 C 
ATOM     18  F   UNL     1       8.067   6.730  16.705  0.00  0.00    +0.000 F 
ATOM     19  F   UNL     1       6.496   7.939  17.576  0.00  0.00    +0.000 F 
ATOM     20  F   UNL     1       7.702   6.652  18.841  0.00  0.00    +0.000 F 
ENDBRANCH   5  17
BRANCH   4  21
ATOM     21  C   UNL     1       6.636   5.170  15.076  0.00  0.00    +0.000 C 
ATOM     22  N   UNL     1       7.254   5.348  14.107  0.00  0.00    +0.000 NA
ENDBRANCH   4  21
TORSDOF 5
ENDMDL
MODEL 4
REMARK VINA RESULT:      -7.0      3.671      6.276
REMARK  Name = 
REMARK  6 active torsions:
REMARK  status: ('A' for Active; 'I' for Inactive)
REMARK    1  A    between atoms: C_1  and  C_2
REMARK    2  A    between atoms: C_2  and  C_3
REMARK    3  A    between atoms: C_4  and  O_5
REMARK    4  A    between atoms: N_9  and  C_10
REMARK    5  A    between atoms: C_13  and  C_14
REMARK    6  A    between atoms: C_16  and  C_17
REMARK                            x       y       z     vdW  Elec       q    Type
REMARK                         _______ _______ _______ _____ _____    ______ ____
ROOT
ATOM      1  C   UNL     1       4.193   6.065  18.055  0.00  0.00    +0.000 A 
ATOM      2  C   UNL     1       3.900   5.447  19.273  0.00  0.00    +0.000 A 
ATOM      3  C   UNL     1       2.967   6.002  20.142  0.00  0.00    +0.000 A 
ATOM      4  C   UNL     1       2.273   7.169  19.794  0.00  0.00    +0.000 A 
ATOM      5  C   UNL     1       2.541   7.802  18.568  0.00  0.00    +0.000 A 
ATOM      6  C   UNL     1       3.517   7.241  17.709  0.00  0.00    +0.000 A 
ENDROOT
BRANCH   1  12
ATOM      7  C   UNL     1       6.389   6.119  16.775  0.00  0.00    +0.000 C 
ATOM      8  C   UNL     1       7.121   4.940  16.102  0.00  0.00    +0.000 C 
ATOM      9  C   UNL     1       6.007   4.101  15.500  0.00  0.00    +0.000 C 
ATOM     10  C   UNL     1       4.873   4.329  16.465  0.00  0.00    +0.000 C 
ATOM     11  O   UNL     1       3.862   3.643  16.503  0.00  0.00    +0.000 OA
ATOM     12  N   UNL     1       5.161   5.478  17.218  0.00  0.00    +0.000 N 
BRANCH   7  14
ATOM     13  C   UNL     1       7.748   8.144  17.575  0.00  0.00    +0.000 C 
ATOM     14  C   UNL     1       7.208   6.758  17.913  0.00  0.00    +0.000 C 
ENDBRANCH   7  14
BRANCH   8  15
ATOM     15  O   UNL     1       7.853   4.136  17.040  0.00  0.00    +0.000 OA
ATOM     16  H   UNL     1       8.503   4.703  17.490  0.00  0.00    +0.000 HD
ENDBRANCH   8  15
ENDBRANCH   1  12
BRANCH   5  17
ATOM     17  C   UNL     1       1.837   9.062  18.117  0.00  0.00    +0.000 C 
ATOM     18  F   UNL     1       1.605   9.978  19.091  0.00  0.00    +0.000 F 
ATOM     19  F   UNL     1       2.551   9.719  17.161  0.00  0.00    +0.000 F 
ATOM     20  F   UNL     1       0.624   8.802  17.557  0.00  0.00    +0.000 F 
ENDBRANCH   5  17
BRANCH   4  21
ATOM     21  C   UNL     1       1.313   7.662  20.737  0.00  0.00    +0.000 C 
ATOM     22  N   UNL     1       0.534   8.097  21.484  0.00  0.00    +0.000 NA
ENDBRANCH   4  21
TORSDOF 5
ENDMDL
MODEL 5
REMARK VINA RESULT:      -6.9      2.252      3.305
REMARK  Name = 
REMARK  6 active torsions:
REMARK  status: ('A' for Active; 'I' for Inactive)
REMARK    1  A    between atoms: C_1  and  C_2
REMARK    2  A    between atoms: C_2  and  C_3
REMARK    3  A    between atoms: C_4  and  O_5
REMARK    4  A    between atoms: N_9  and  C_10
REMARK    5  A    between atoms: C_13  and  C_14
REMARK    6  A    between atoms: C_16  and  C_17
REMARK                            x       y       z     vdW  Elec       q    Type
REMARK                         _______ _______ _______ _____ _____    ______ ____
ROOT
ATOM      1  C   UNL     1       3.738   4.330  18.290  0.00  0.00    +0.000 A 
ATOM      2  C   UNL     1       4.038   5.483  19.021  0.00  0.00    +0.000 A 
ATOM      3  C   UNL     1       5.103   6.298  18.652  0.00  0.00    +0.000 A 
ATOM      4  C   UNL     1       5.869   6.001  17.516  0.00  0.00    +0.000 A 
ATOM      5  C   UNL     1       5.577   4.854  16.757  0.00  0.00    +0.000 A 
ATOM      6  C   UNL     1       4.510   4.018  17.166  0.00  0.00    +0.000 A 
ENDROOT
BRANCH   1  12
ATOM      7  C   UNL     1       2.786   2.318  19.518  0.00  0.00    +0.000 C 
ATOM      8  C   UNL     1       1.309   2.022  19.847  0.00  0.00    +0.000 C 
ATOM      9  C   UNL     1       0.550   2.485  18.615  0.00  0.00    +0.000 C 
ATOM     10  C   UNL     1       1.394   3.633  18.128  0.00  0.00    +0.000 C 
ATOM     11  O   UNL     1       1.018   4.457  17.307  0.00  0.00    +0.000 OA
ATOM     12  N   UNL     1       2.664   3.525  18.715  0.00  0.00    +0.000 N 
BRANCH   7  14
ATOM     13  C   UNL     1       4.979   1.730  20.715  0.00  0.00    +0.000 C 
ATOM     14  C   UNL     1       3.656   2.488  20.778  0.00  0.00    +0.000 C 
ENDBRANCH   7  14
BRANCH   8  15
ATOM     15  O   UNL     1       0.839   2.759  20.987  0.00  0.00    +0.000 OA
ATOM     16  H   UNL     1       0.164   2.226  21.441  0.00  0.00    +0.000 HD
ENDBRANCH   8  15
ENDBRANCH   1  12
BRANCH   5  17
ATOM     17  C   UNL     1       6.353   4.464  15.520  0.00  0.00    +0.000 C 
ATOM     18  F   UNL     1       7.702   4.431  15.665  0.00  0.00    +0.000 F 
ATOM     19  F   UNL     1       6.003   3.223  15.081  0.00  0.00    +0.000 F 
ATOM     20  F   UNL     1       6.114   5.304  14.476  0.00  0.00    +0.000 F 
ENDBRANCH   5  17
BRANCH   4  21
ATOM     21  C   UNL     1       6.933   6.905  17.194  0.00  0.00    +0.000 C 
ATOM     22  N   UNL     1       7.772   7.668  16.931  0.00  0.00    +0.000 NA
ENDBRANCH   4  21
TORSDOF 5
ENDMDL
MODEL 6
REMARK VINA RESULT:      -6.7      3.357      6.096
REMARK  Name = 
REMARK  6 active torsions:
REMARK  status: ('A' for Active; 'I' for Inactive)
REMARK    1  A    between atoms: C_1  and  C_2
REMARK    2  A    between atoms: C_2  and  C_3
REMARK    3  A    between atoms: C_4  and  O_5
REMARK    4  A    between atoms: N_9  and  C_10
REMARK    5  A    between atoms: C_13  and  C_14
REMARK    6  A    between atoms: C_16  and  C_17
REMARK                            x       y       z     vdW  Elec       q    Type
REMARK                         _______ _______ _______ _____ _____    ______ ____
ROOT
ATOM      1  C   UNL     1       4.273   5.802  17.897  0.00  0.00    +0.000 A 
ATOM      2  C   UNL     1       3.892   7.142  17.801  0.00  0.00    +0.000 A 
ATOM      3  C   UNL     1       2.923   7.666  18.650  0.00  0.00    +0.000 A 
ATOM      4  C   UNL     1       2.340   6.870  19.645  0.00  0.00    +0.000 A 
ATOM      5  C   UNL     1       2.717   5.521  19.770  0.00  0.00    +0.000 A 
ATOM      6  C   UNL     1       3.681   4.996  18.877  0.00  0.00    +0.000 A 
ENDROOT
BRANCH   1  12
ATOM      7  C   UNL     1       6.448   6.018  16.599  0.00  0.00    +0.000 C 
ATOM      8  C   UNL     1       7.197   4.918  15.820  0.00  0.00    +0.000 C 
ATOM      9  C   UNL     1       6.095   4.105  15.163  0.00  0.00    +0.000 C 
ATOM     10  C   UNL     1       4.971   4.222  16.158  0.00  0.00    +0.000 C 
ATOM     11  O   UNL     1       3.977   3.511  16.152  0.00  0.00    +0.000 OA
ATOM     12  N   UNL     1       5.242   5.311  17.001  0.00  0.00    +0.000 N 
BRANCH   7  14
ATOM     13  C   UNL     1       7.727   8.020  17.570  0.00  0.00    +0.000 C 
ATOM     14  C   UNL     1       7.267   6.580  17.777  0.00  0.00    +0.000 C 
ENDBRANCH   7  14
BRANCH   8  15
ATOM     15  O   UNL     1       7.962   4.057  16.677  0.00  0.00    +0.000 OA
ATOM     16  H   UNL     1       8.501   4.611  17.269  0.00  0.00    +0.000 HD
ENDBRANCH   8  15
ENDBRANCH   1  12
BRANCH   5  17
ATOM     17  C   UNL     1       2.137   4.595  20.816  0.00  0.00    +0.000 C 
ATOM     18  F   UNL     1       0.783   4.506  20.827  0.00  0.00    +0.000 F 
ATOM     19  F   UNL     1       2.587   3.319  20.658  0.00  0.00    +0.000 F 
ATOM     20  F   UNL     1       2.494   4.958  22.079  0.00  0.00    +0.000 F 
ENDBRANCH   5  17
BRANCH   4  21
ATOM     21  C   UNL     1       1.366   7.494  20.492  0.00  0.00    +0.000 C 
ATOM     22  N   UNL     1       0.580   8.033  21.159  0.00  0.00    +0.000 NA
ENDBRANCH   4  21
TORSDOF 5
ENDMDL
MODEL 7
REMARK VINA RESULT:      -6.7      3.522      6.062
REMARK  Name = 
REMARK  6 active torsions:
REMARK  status: ('A' for Active; 'I' for Inactive)
REMARK    1  A    between atoms: C_1  and  C_2
REMARK    2  A    between atoms: C_2  and  C_3
REMARK    3  A    between atoms: C_4  and  O_5
REMARK    4  A    between atoms: N_9  and  C_10
REMARK    5  A    between atoms: C_13  and  C_14
REMARK    6  A    between atoms: C_16  and  C_17
REMARK                            x       y       z     vdW  Elec       q    Type
REMARK                         _______ _______ _______ _____ _____    ______ ____
ROOT
ATOM      1  C   UNL     1       4.284   6.227  17.782  0.00  0.00    +0.000 A 
ATOM      2  C   UNL     1       3.970   7.484  17.260  0.00  0.00    +0.000 A 
ATOM      3  C   UNL     1       2.954   8.251  17.821  0.00  0.00    +0.000 A 
ATOM      4  C   UNL     1       2.254   7.795  18.946  0.00  0.00    +0.000 A 
ATOM      5  C   UNL     1       2.562   6.539  19.498  0.00  0.00    +0.000 A 
ATOM      6  C   UNL     1       3.577   5.758  18.895  0.00  0.00    +0.000 A 
ENDROOT
BRANCH   1  12
ATOM      7  C   UNL     1       6.626   5.984  16.823  0.00  0.00    +0.000 C 
ATOM      8  C   UNL     1       7.348   4.686  16.410  0.00  0.00    +0.000 C 
ATOM      9  C   UNL     1       6.263   3.839  15.768  0.00  0.00    +0.000 C 
ATOM     10  C   UNL     1       5.033   4.258  16.531  0.00  0.00    +0.000 C 
ATOM     11  O   UNL     1       3.977   3.643  16.514  0.00  0.00    +0.000 OA
ATOM     12  N   UNL     1       5.306   5.479  17.167  0.00  0.00    +0.000 N 
BRANCH   7  14
ATOM     13  C   UNL     1       7.786   8.133  17.612  0.00  0.00    +0.000 C 
ATOM     14  C   UNL     1       7.335   6.722  17.975  0.00  0.00    +0.000 C 
ENDBRANCH   7  14
BRANCH   8  15
ATOM     15  O   UNL     1       7.890   3.974  17.533  0.00  0.00    +0.000 OA
ATOM     16  H   UNL     1       8.861   3.994  17.472  0.00  0.00    +0.000 HD
ENDBRANCH   8  15
ENDBRANCH   1  12
BRANCH   5  17
ATOM     17  C   UNL     1       1.856   5.974  20.711  0.00  0.00    +0.000 C 
ATOM     18  F   UNL     1       2.552   5.040  21.406  0.00  0.00    +0.000 F 
ATOM     19  F   UNL     1       1.553   6.950  21.612  0.00  0.00    +0.000 F 
ATOM     20  F   UNL     1       0.670   5.389  20.389  0.00  0.00    +0.000 F 
ENDBRANCH   5  17
BRANCH   4  21
ATOM     21  C   UNL     1       1.238   8.656  19.474  0.00  0.00    +0.000 C 
ATOM     22  N   UNL     1       0.440   9.381  19.914  0.00  0.00    +0.000 NA
ENDBRANCH   4  21
TORSDOF 5
ENDMDL
MODEL 8
REMARK VINA RESULT:      -6.4      3.725      6.229
REMARK  Name = 
REMARK  6 active torsions:
REMARK  status: ('A' for Active; 'I' for Inactive)
REMARK    1  A    between atoms: C_1  and  C_2
REMARK    2  A    between atoms: C_2  and  C_3
REMARK    3  A    between atoms: C_4  and  O_5
REMARK    4  A    between atoms: N_9  and  C_10
REMARK    5  A    between atoms: C_13  and  C_14
REMARK    6  A    between atoms: C_16  and  C_17
REMARK                            x       y       z     vdW  Elec       q    Type
REMARK                         _______ _______ _______ _____ _____    ______ ____
ROOT
ATOM      1  C   UNL     1       2.497   6.262  19.045  0.00  0.00    +0.000 A 
ATOM      2  C   UNL     1       2.079   6.102  20.369  0.00  0.00    +0.000 A 
ATOM      3  C   UNL     1       1.486   7.155  21.056  0.00  0.00    +0.000 A 
ATOM      4  C   UNL     1       1.259   8.384  20.421  0.00  0.00    +0.000 A 
ATOM      5  C   UNL     1       1.658   8.564  19.085  0.00  0.00    +0.000 A 
ATOM      6  C   UNL     1       2.290   7.492  18.410  0.00  0.00    +0.000 A 
ENDROOT
BRANCH   1  12
ATOM      7  C   UNL     1       4.534   5.064  18.108  0.00  0.00    +0.000 C 
ATOM      8  C   UNL     1       4.632   3.603  17.621  0.00  0.00    +0.000 C 
ATOM      9  C   UNL     1       3.313   3.356  16.909  0.00  0.00    +0.000 C 
ATOM     10  C   UNL     1       2.360   4.232  17.678  0.00  0.00    +0.000 C 
ATOM     11  O   UNL     1       1.143   4.146  17.605  0.00  0.00    +0.000 OA
ATOM     12  N   UNL     1       3.113   5.174  18.398  0.00  0.00    +0.000 N 
BRANCH   7  14
ATOM     13  C   UNL     1       6.899   5.612  18.939  0.00  0.00    +0.000 C 
ATOM     14  C   UNL     1       5.445   5.352  19.317  0.00  0.00    +0.000 C 
ENDBRANCH   7  14
BRANCH   8  15
ATOM     15  O   UNL     1       4.758   2.667  18.703  0.00  0.00    +0.000 OA
ATOM     16  H   UNL     1       5.256   3.093  19.423  0.00  0.00    +0.000 HD
ENDBRANCH   8  15
ENDBRANCH   1  12
BRANCH   5  17
ATOM     17  C   UNL     1       1.449   9.856  18.328  0.00  0.00    +0.000 C 
ATOM     18  F   UNL     1       1.787  10.985  19.000  0.00  0.00    +0.000 F 
ATOM     19  F   UNL     1       2.177   9.884  17.176  0.00  0.00    +0.000 F 
ATOM     20  F   UNL     1       0.153  10.026  17.948  0.00  0.00    +0.000 F 
ENDBRANCH   5  17
BRANCH   4  21
ATOM     21  C   UNL     1       0.622   9.409  21.194  0.00  0.00    +0.000 C 
ATOM     22  N   UNL     1       0.088  10.214  21.843  0.00  0.00    +0.000 NA
ENDBRANCH   4  21
TORSDOF 5
ENDMDL
MODEL 9
REMARK VINA RESULT:      -6.4      4.212      6.157
REMARK  Name = 
REMARK  6 active torsions:
REMARK  status: ('A' for Active; 'I' for Inactive)
REMARK    1  A    between atoms: C_1  and  C_2
REMARK    2  A    between atoms: C_2  and  C_3
REMARK    3  A    between atoms: C_4  and  O_5
REMARK    4  A    between atoms: N_9  and  C_10
REMARK    5  A    between atoms: C_13  and  C_14
REMARK    6  A    between atoms: C_16  and  C_17
REMARK                            x       y       z     vdW  Elec       q    Type
REMARK                         _______ _______ _______ _____ _____    ______ ____
ROOT
ATOM      1  C   UNL     1       2.641   6.902  19.038  0.00  0.00    +0.000 A 
ATOM      2  C   UNL     1       2.480   7.567  17.820  0.00  0.00    +0.000 A 
ATOM      3  C   UNL     1       1.761   8.755  17.752  0.00  0.00    +0.000 A 
ATOM      4  C   UNL     1       1.217   9.329  18.909  0.00  0.00    +0.000 A 
ATOM      5  C   UNL     1       1.378   8.685  20.149  0.00  0.00    +0.000 A 
ATOM      6  C   UNL     1       2.086   7.460  20.196  0.00  0.00    +0.000 A 
ENDROOT
BRANCH   1  12
ATOM      7  C   UNL     1       3.014   4.521  19.847  0.00  0.00    +0.000 C 
ATOM      8  C   UNL     1       3.996   3.474  19.283  0.00  0.00    +0.000 C 
ATOM      9  C   UNL     1       5.240   4.274  18.935  0.00  0.00    +0.000 C 
ATOM     10  C   UNL     1       4.666   5.612  18.550  0.00  0.00    +0.000 C 
ATOM     11  O   UNL     1       5.293   6.478  17.957  0.00  0.00    +0.000 OA
ATOM     12  N   UNL     1       3.359   5.691  19.054  0.00  0.00    +0.000 N 
BRANCH   7  14
ATOM     13  C   UNL     1       1.085   3.135  20.818  0.00  0.00    +0.000 C 
ATOM     14  C   UNL     1       1.541   4.088  19.718  0.00  0.00    +0.000 C 
ENDBRANCH   7  14
BRANCH   8  15
ATOM     15  O   UNL     1       3.504   2.839  18.092  0.00  0.00    +0.000 OA
ATOM     16  H   UNL     1       2.531   2.879  18.101  0.00  0.00    +0.000 HD
ENDBRANCH   8  15
ENDBRANCH   1  12
BRANCH   5  17
ATOM     17  C   UNL     1       0.825   9.237  21.444  0.00  0.00    +0.000 C 
ATOM     18  F   UNL     1       1.002  10.569  21.631  0.00  0.00    +0.000 F 
ATOM     19  F   UNL     1      -0.518   9.029  21.542  0.00  0.00    +0.000 F 
ATOM     20  F   UNL     1       1.371   8.633  22.535  0.00  0.00    +0.000 F 
ENDBRANCH   5  17
BRANCH   4  21
ATOM     21  C   UNL     1       0.509  10.565  18.754  0.00  0.00    +0.000 C 
ATOM     22  N   UNL     1      -0.040  11.586  18.652  0.00  0.00    +0.000 NA
ENDBRANCH   4  21
TORSDOF 5
ENDMDL
