MODEL 1
REMARK VINA RESULT:      -8.5      0.000      0.000
REMARK  Name = 
REMARK  3 active torsions:
REMARK  status: ('A' for Active; 'I' for Inactive)
REMARK    1  A    between atoms: C_1  and  C_2
REMARK    2  A    between atoms: C_8  and  C_9
REMARK    3  A    between atoms: C_9  and  N_10
REMARK                            x       y       z     vdW  Elec       q    Type
REMARK                         _______ _______ _______ _____ _____    ______ ____
ROOT
ATOM      1  N   UNL     1       2.539   5.901  19.079  0.00  0.00    +0.000 NA
ATOM      2  C   UNL     1       3.650   5.281  19.844  0.00  0.00    +0.000 C 
ATOM      3  C   UNL     1       4.278   3.913  19.254  0.00  0.00    +0.000 C 
ATOM      4  C   UNL     1       3.974   3.649  17.775  0.00  0.00    +0.000 C 
ATOM      5  C   UNL     1       4.033   5.026  17.139  0.00  0.00    +0.000 C 
ATOM      6  C   UNL     1       2.688   5.624  17.622  0.00  0.00    +0.000 C 
ATOM      7  C   UNL     1       5.366   5.754  17.511  0.00  0.00    +0.000 A 
ATOM      8  C   UNL     1       5.719   6.953  17.008  0.00  0.00    +0.000 A 
ATOM      9  C   UNL     1       6.950   7.595  17.408  0.00  0.00    +0.000 A 
ATOM     10  C   UNL     1       7.828   6.980  18.212  0.00  0.00    +0.000 A 
ATOM     11  C   UNL     1       7.510   5.660  18.762  0.00  0.00    +0.000 A 
ATOM     12  O   UNL     1       8.313   5.096  19.522  0.00  0.00    +0.000 OA
ATOM     13  N   UNL     1       6.245   5.145  18.445  0.00  0.00    +0.000 N 
ATOM     14  C   UNL     1       5.804   3.985  19.226  0.00  0.00    +0.000 C 
ENDROOT
BRANCH   1  15
ATOM     15  C   UNL     1       2.363   7.376  19.170  0.00  0.00    +0.000 C 
BRANCH  15  23
ATOM     16  C   UNL     1      -1.353  13.843  19.965  0.00  0.00    +0.000 C 
ATOM     17  C   UNL     1      -0.912  12.541  20.573  0.00  0.00    +0.000 A 
ATOM     18  C   UNL     1      -0.942  12.309  21.955  0.00  0.00    +0.000 A 
ATOM     19  C   UNL     1      -0.478  11.093  22.493  0.00  0.00    +0.000 A 
ATOM     20  C   UNL     1       0.066  10.116  21.656  0.00  0.00    +0.000 A 
ATOM     21  O   UNL     1       0.525   8.929  22.181  0.00  0.00    +0.000 OA
ATOM     22  C   UNL     1       1.118   8.009  21.317  0.00  0.00    +0.000 A 
ATOM     23  C   UNL     1       1.379   8.175  20.008  0.00  0.00    +0.000 A 
ATOM     24  C   UNL     1       1.055   9.545  19.503  0.00  0.00    +0.000 A 
ATOM     25  O   UNL     1       1.605  10.044  18.526  0.00  0.00    +0.000 OA
ATOM     26  C   UNL     1       0.173  10.393  20.303  0.00  0.00    +0.000 A 
ATOM     27  C   UNL     1      -0.358  11.563  19.749  0.00  0.00    +0.000 A 
ENDBRANCH  15  23
ENDBRANCH   1  15
TORSDOF 2
ENDMDL
MODEL 2
REMARK VINA RESULT:      -8.4      3.930      8.604
REMARK  Name = 
REMARK  3 active torsions:
REMARK  status: ('A' for Active; 'I' for Inactive)
REMARK    1  A    between atoms: C_1  and  C_2
REMARK    2  A    between atoms: C_8  and  C_9
REMARK    3  A    between atoms: C_9  and  N_10
REMARK                            x       y       z     vdW  Elec       q    Type
REMARK                         _______ _______ _______ _____ _____    ______ ____
ROOT
ATOM      1  N   UNL     1       4.700   6.298  18.682  0.00  0.00    +0.000 NA
ATOM      2  C   UNL     1       4.121   5.810  19.958  0.00  0.00    +0.000 C 
ATOM      3  C   UNL     1       2.655   6.362  20.362  0.00  0.00    +0.000 C 
ATOM      4  C   UNL     1       1.850   6.959  19.203  0.00  0.00    +0.000 C 
ATOM      5  C   UNL     1       2.195   6.071  18.022  0.00  0.00    +0.000 C 
ATOM      6  C   UNL     1       3.622   6.574  17.690  0.00  0.00    +0.000 C 
ATOM      7  C   UNL     1       1.984   4.563  18.380  0.00  0.00    +0.000 A 
ATOM      8  C   UNL     1       2.129   3.564  17.487  0.00  0.00    +0.000 A 
ATOM      9  C   UNL     1       1.952   2.184  17.879  0.00  0.00    +0.000 A 
ATOM     10  C   UNL     1       1.540   1.857  19.111  0.00  0.00    +0.000 A 
ATOM     11  C   UNL     1       1.336   2.906  20.114  0.00  0.00    +0.000 A 
ATOM     12  O   UNL     1       0.974   2.604  21.261  0.00  0.00    +0.000 OA
ATOM     13  N   UNL     1       1.652   4.213  19.714  0.00  0.00    +0.000 N 
ATOM     14  C   UNL     1       1.741   5.212  20.784  0.00  0.00    +0.000 C 
ENDROOT
BRANCH   1  15
ATOM     15  C   UNL     1       5.660   5.415  17.964  0.00  0.00    +0.000 C 
BRANCH  15  23
ATOM     16  C   UNL     1       4.969   2.325  11.164  0.00  0.00    +0.000 C 
ATOM     17  C   UNL     1       5.726   3.250  12.075  0.00  0.00    +0.000 A 
ATOM     18  C   UNL     1       7.022   3.697  11.783  0.00  0.00    +0.000 A 
ATOM     19  C   UNL     1       7.719   4.528  12.683  0.00  0.00    +0.000 A 
ATOM     20  C   UNL     1       7.143   4.879  13.906  0.00  0.00    +0.000 A 
ATOM     21  O   UNL     1       7.825   5.686  14.788  0.00  0.00    +0.000 OA
ATOM     22  C   UNL     1       7.240   5.959  16.024  0.00  0.00    +0.000 A 
ATOM     23  C   UNL     1       6.092   5.452  16.508  0.00  0.00    +0.000 A 
ATOM     24  C   UNL     1       5.470   4.424  15.617  0.00  0.00    +0.000 A 
ATOM     25  O   UNL     1       4.723   3.544  16.034  0.00  0.00    +0.000 OA
ATOM     26  C   UNL     1       5.900   4.358  14.222  0.00  0.00    +0.000 A 
ATOM     27  C   UNL     1       5.166   3.599  13.303  0.00  0.00    +0.000 A 
ENDBRANCH  15  23
ENDBRANCH   1  15
TORSDOF 2
ENDMDL
MODEL 3
REMARK VINA RESULT:      -8.3      2.812      8.093
REMARK  Name = 
REMARK  3 active torsions:
REMARK  status: ('A' for Active; 'I' for Inactive)
REMARK    1  A    between atoms: C_1  and  C_2
REMARK    2  A    between atoms: C_8  and  C_9
REMARK    3  A    between atoms: C_9  and  N_10
REMARK                            x       y       z     vdW  Elec       q    Type
REMARK                         _______ _______ _______ _____ _____    ______ ____
ROOT
ATOM      1  N   UNL     1       1.521  10.452  18.087  0.00  0.00    +0.000 NA
ATOM      2  C   UNL     1       1.284  11.686  18.878  0.00  0.00    +0.000 C 
ATOM      3  C   UNL     1      -0.167  12.385  18.738  0.00  0.00    +0.000 C 
ATOM      4  C   UNL     1      -1.267  11.480  18.171  0.00  0.00    +0.000 C 
ATOM      5  C   UNL     1      -0.966  10.120  18.773  0.00  0.00    +0.000 C 
ATOM      6  C   UNL     1       0.251   9.689  17.918  0.00  0.00    +0.000 C 
ATOM      7  C   UNL     1      -0.806  10.221  20.326  0.00  0.00    +0.000 A 
ATOM      8  C   UNL     1      -0.625   9.149  21.122  0.00  0.00    +0.000 A 
ATOM      9  C   UNL     1      -0.453   9.303  22.549  0.00  0.00    +0.000 A 
ATOM     10  C   UNL     1      -0.567  10.500  23.140  0.00  0.00    +0.000 A 
ATOM     11  C   UNL     1      -0.796  11.696  22.326  0.00  0.00    +0.000 A 
ATOM     12  O   UNL     1      -0.882  12.808  22.869  0.00  0.00    +0.000 OA
ATOM     13  N   UNL     1      -0.822  11.502  20.937  0.00  0.00    +0.000 N 
ATOM     14  C   UNL     1      -0.745  12.714  20.113  0.00  0.00    +0.000 C 
ENDROOT
BRANCH   1  15
ATOM     15  C   UNL     1       2.494   9.457  18.614  0.00  0.00    +0.000 C 
BRANCH  15  23
ATOM     16  C   UNL     1       1.574   2.631  21.584  0.00  0.00    +0.000 C 
ATOM     17  C   UNL     1       2.102   3.472  20.455  0.00  0.00    +0.000 A 
ATOM     18  C   UNL     1       3.035   2.986  19.529  0.00  0.00    +0.000 A 
ATOM     19  C   UNL     1       3.542   3.817  18.511  0.00  0.00    +0.000 A 
ATOM     20  C   UNL     1       3.155   5.157  18.439  0.00  0.00    +0.000 A 
ATOM     21  O   UNL     1       3.653   5.972  17.448  0.00  0.00    +0.000 OA
ATOM     22  C   UNL     1       3.290   7.318  17.453  0.00  0.00    +0.000 A 
ATOM     23  C   UNL     1       2.555   7.957  18.380  0.00  0.00    +0.000 A 
ATOM     24  C   UNL     1       2.192   7.100  19.551  0.00  0.00    +0.000 A 
ATOM     25  O   UNL     1       1.944   7.558  20.662  0.00  0.00    +0.000 OA
ATOM     26  C   UNL     1       2.302   5.649  19.414  0.00  0.00    +0.000 A 
ATOM     27  C   UNL     1       1.731   4.813  20.380  0.00  0.00    +0.000 A 
ENDBRANCH  15  23
ENDBRANCH   1  15
TORSDOF 2
ENDMDL
MODEL 4
REMARK VINA RESULT:      -8.2      0.987      1.086
REMARK  Name = 
REMARK  3 active torsions:
REMARK  status: ('A' for Active; 'I' for Inactive)
REMARK    1  A    between atoms: C_1  and  C_2
REMARK    2  A    between atoms: C_8  and  C_9
REMARK    3  A    between atoms: C_9  and  N_10
REMARK                            x       y       z     vdW  Elec       q    Type
REMARK                         _______ _______ _______ _____ _____    ______ ____
ROOT
ATOM      1  N   UNL     1       2.311   5.922  19.308  0.00  0.00    +0.000 NA
ATOM      2  C   UNL     1       3.536   5.344  19.915  0.00  0.00    +0.000 C 
ATOM      3  C   UNL     1       3.875   3.802  19.565  0.00  0.00    +0.000 C 
ATOM      4  C   UNL     1       3.166   3.252  18.322  0.00  0.00    +0.000 C 
ATOM      5  C   UNL     1       3.157   4.424  17.358  0.00  0.00    +0.000 C 
ATOM      6  C   UNL     1       2.042   5.300  17.980  0.00  0.00    +0.000 C 
ATOM      7  C   UNL     1       4.593   5.022  17.197  0.00  0.00    +0.000 A 
ATOM      8  C   UNL     1       4.888   6.012  16.331  0.00  0.00    +0.000 A 
ATOM      9  C   UNL     1       6.227   6.549  16.244  0.00  0.00    +0.000 A 
ATOM     10  C   UNL     1       7.239   6.017  16.942  0.00  0.00    +0.000 A 
ATOM     11  C   UNL     1       6.981   4.917  17.875  0.00  0.00    +0.000 A 
ATOM     12  O   UNL     1       7.913   4.435  18.537  0.00  0.00    +0.000 OA
ATOM     13  N   UNL     1       5.641   4.526  18.015  0.00  0.00    +0.000 N 
ATOM     14  C   UNL     1       5.338   3.650  19.152  0.00  0.00    +0.000 C 
ENDROOT
BRANCH   1  15
ATOM     15  C   UNL     1       2.279   7.388  19.055  0.00  0.00    +0.000 C 
BRANCH  15  23
ATOM     16  C   UNL     1      -0.301  14.422  18.696  0.00  0.00    +0.000 C 
ATOM     17  C   UNL     1      -0.105  13.175  19.511  0.00  0.00    +0.000 A 
ATOM     18  C   UNL     1      -0.210  13.165  20.908  0.00  0.00    +0.000 A 
ATOM     19  C   UNL     1       0.026  11.987  21.643  0.00  0.00    +0.000 A 
ATOM     20  C   UNL     1       0.417  10.817  20.988  0.00  0.00    +0.000 A 
ATOM     21  O   UNL     1       0.653   9.665  21.704  0.00  0.00    +0.000 OA
ATOM     22  C   UNL     1       1.104   8.539  21.018  0.00  0.00    +0.000 A 
ATOM     23  C   UNL     1       1.423   8.457  19.714  0.00  0.00    +0.000 A 
ATOM     24  C   UNL     1       1.351   9.768  18.997  0.00  0.00    +0.000 A 
ATOM     25  O   UNL     1       2.004  10.013  17.987  0.00  0.00    +0.000 OA
ATOM     26  C   UNL     1       0.606  10.862  19.616  0.00  0.00    +0.000 A 
ATOM     27  C   UNL     1       0.296  12.004  18.869  0.00  0.00    +0.000 A 
ENDBRANCH  15  23
ENDBRANCH   1  15
TORSDOF 2
ENDMDL
MODEL 5
REMARK VINA RESULT:      -8.1      1.410      2.216
REMARK  Name = 
REMARK  3 active torsions:
REMARK  status: ('A' for Active; 'I' for Inactive)
REMARK    1  A    between atoms: C_1  and  C_2
REMARK    2  A    between atoms: C_8  and  C_9
REMARK    3  A    between atoms: C_9  and  N_10
REMARK                            x       y       z     vdW  Elec       q    Type
REMARK                         _______ _______ _______ _____ _____    ______ ____
ROOT
ATOM      1  N   UNL     1       2.560   6.188  18.924  0.00  0.00    +0.000 NA
ATOM      2  C   UNL     1       3.838   5.787  19.564  0.00  0.00    +0.000 C 
ATOM      3  C   UNL     1       4.113   4.203  19.732  0.00  0.00    +0.000 C 
ATOM      4  C   UNL     1       3.259   3.301  18.833  0.00  0.00    +0.000 C 
ATOM      5  C   UNL     1       3.157   4.075  17.532  0.00  0.00    +0.000 C 
ATOM      6  C   UNL     1       2.132   5.168  17.925  0.00  0.00    +0.000 C 
ATOM      7  C   UNL     1       4.573   4.506  17.028  0.00  0.00    +0.000 A 
ATOM      8  C   UNL     1       4.782   5.127  15.850  0.00  0.00    +0.000 A 
ATOM      9  C   UNL     1       6.110   5.531  15.447  0.00  0.00    +0.000 A 
ATOM     10  C   UNL     1       7.187   5.215  16.178  0.00  0.00    +0.000 A 
ATOM     11  C   UNL     1       7.021   4.513  17.453  0.00  0.00    +0.000 A 
ATOM     12  O   UNL     1       8.015   4.236  18.142  0.00  0.00    +0.000 OA
ATOM     13  N   UNL     1       5.701   4.264  17.856  0.00  0.00    +0.000 N 
ATOM     14  C   UNL     1       5.517   3.843  19.249  0.00  0.00    +0.000 C 
ENDROOT
BRANCH   1  15
ATOM     15  C   UNL     1       2.520   7.481  18.187  0.00  0.00    +0.000 C 
BRANCH  15  23
ATOM     16  C   UNL     1      -1.316  11.337  23.352  0.00  0.00    +0.000 C 
ATOM     17  C   UNL     1      -0.957  11.150  21.904  0.00  0.00    +0.000 A 
ATOM     18  C   UNL     1      -1.700  11.726  20.865  0.00  0.00    +0.000 A 
ATOM     19  C   UNL     1      -1.361  11.491  19.518  0.00  0.00    +0.000 A 
ATOM     20  C   UNL     1      -0.303  10.637  19.198  0.00  0.00    +0.000 A 
ATOM     21  O   UNL     1       0.026  10.403  17.882  0.00  0.00    +0.000 OA
ATOM     22  C   UNL     1       1.048   9.494  17.607  0.00  0.00    +0.000 A 
ATOM     23  C   UNL     1       1.718   8.735  18.492  0.00  0.00    +0.000 A 
ATOM     24  C   UNL     1       1.208   8.858  19.893  0.00  0.00    +0.000 A 
ATOM     25  O   UNL     1       1.344   7.972  20.733  0.00  0.00    +0.000 OA
ATOM     26  C   UNL     1       0.366  10.003  20.231  0.00  0.00    +0.000 A 
ATOM     27  C   UNL     1       0.090  10.292  21.573  0.00  0.00    +0.000 A 
ENDBRANCH  15  23
ENDBRANCH   1  15
TORSDOF 2
ENDMDL
MODEL 6
REMARK VINA RESULT:      -8.1      2.937      8.862
REMARK  Name = 
REMARK  3 active torsions:
REMARK  status: ('A' for Active; 'I' for Inactive)
REMARK    1  A    between atoms: C_1  and  C_2
REMARK    2  A    between atoms: C_8  and  C_9
REMARK    3  A    between atoms: C_9  and  N_10
REMARK                            x       y       z     vdW  Elec       q    Type
REMARK                         _______ _______ _______ _____ _____    ______ ____
ROOT
ATOM      1  N   UNL     1       1.030  10.739  20.179  0.00  0.00    +0.000 NA
ATOM      2  C   UNL     1      -0.047  11.230  21.075  0.00  0.00    +0.000 C 
ATOM      3  C   UNL     1      -0.246  12.831  21.181  0.00  0.00    +0.000 C 
ATOM      4  C   UNL     1       0.378  13.636  20.036  0.00  0.00    +0.000 C 
ATOM      5  C   UNL     1       0.147  12.768  18.812  0.00  0.00    +0.000 C 
ATOM      6  C   UNL     1       1.218  11.671  19.030  0.00  0.00    +0.000 C 
ATOM      7  C   UNL     1      -1.356  12.352  18.701  0.00  0.00    +0.000 A 
ATOM      8  C   UNL     1      -1.856  11.657  17.660  0.00  0.00    +0.000 A 
ATOM      9  C   UNL     1      -3.249  11.273  17.622  0.00  0.00    +0.000 A 
ATOM     10  C   UNL     1      -4.109  11.677  18.566  0.00  0.00    +0.000 A 
ATOM     11  C   UNL     1      -3.626  12.463  19.704  0.00  0.00    +0.000 A 
ATOM     12  O   UNL     1      -4.418  12.822  20.589  0.00  0.00    +0.000 OA
ATOM     13  N   UNL     1      -2.244  12.692  19.755  0.00  0.00    +0.000 N 
ATOM     14  C   UNL     1      -1.720  13.205  21.026  0.00  0.00    +0.000 C 
ENDROOT
BRANCH   1  15
ATOM     15  C   UNL     1       0.867   9.397  19.557  0.00  0.00    +0.000 C 
BRANCH  15  23
ATOM     16  C   UNL     1       5.695   5.537  15.309  0.00  0.00    +0.000 C 
ATOM     17  C   UNL     1       4.899   5.622  16.581  0.00  0.00    +0.000 A 
ATOM     18  C   UNL     1       4.662   4.505  17.394  0.00  0.00    +0.000 A 
ATOM     19  C   UNL     1       3.872   4.613  18.555  0.00  0.00    +0.000 A 
ATOM     20  C   UNL     1       3.272   5.830  18.888  0.00  0.00    +0.000 A 
ATOM     21  O   UNL     1       2.496   5.935  20.019  0.00  0.00    +0.000 OA
ATOM     22  C   UNL     1       1.864   7.151  20.278  0.00  0.00    +0.000 A 
ATOM     23  C   UNL     1       1.853   8.243  19.493  0.00  0.00    +0.000 A 
ATOM     24  C   UNL     1       2.535   8.041  18.177  0.00  0.00    +0.000 A 
ATOM     25  O   UNL     1       2.263   8.698  17.176  0.00  0.00    +0.000 OA
ATOM     26  C   UNL     1       3.439   6.903  18.028  0.00  0.00    +0.000 A 
ATOM     27  C   UNL     1       4.287   6.828  16.916  0.00  0.00    +0.000 A 
ENDBRANCH  15  23
ENDBRANCH   1  15
TORSDOF 2
ENDMDL
MODEL 7
REMARK VINA RESULT:      -7.8      1.097      1.943
REMARK  Name = 
REMARK  3 active torsions:
REMARK  status: ('A' for Active; 'I' for Inactive)
REMARK    1  A    between atoms: C_1  and  C_2
REMARK    2  A    between atoms: C_8  and  C_9
REMARK    3  A    between atoms: C_9  and  N_10
REMARK                            x       y       z     vdW  Elec       q    Type
REMARK                         _______ _______ _______ _____ _____    ______ ____
ROOT
ATOM      1  N   UNL     1       2.366   5.919  19.673  0.00  0.00    +0.000 NA
ATOM      2  C   UNL     1       3.501   5.029  20.025  0.00  0.00    +0.000 C 
ATOM      3  C   UNL     1       3.747   3.740  19.080  0.00  0.00    +0.000 C 
ATOM      4  C   UNL     1       3.085   3.817  17.699  0.00  0.00    +0.000 C 
ATOM      5  C   UNL     1       3.229   5.275  17.306  0.00  0.00    +0.000 C 
ATOM      6  C   UNL     1       2.142   5.924  18.200  0.00  0.00    +0.000 C 
ATOM      7  C   UNL     1       4.713   5.747  17.451  0.00  0.00    +0.000 A 
ATOM      8  C   UNL     1       5.138   6.972  17.081  0.00  0.00    +0.000 A 
ATOM      9  C   UNL     1       6.517   7.366  17.265  0.00  0.00    +0.000 A 
ATOM     10  C   UNL     1       7.436   6.501  17.712  0.00  0.00    +0.000 A 
ATOM     11  C   UNL     1       7.034   5.146  18.098  0.00  0.00    +0.000 A 
ATOM     12  O   UNL     1       7.881   4.349  18.531  0.00  0.00    +0.000 OA
ATOM     13  N   UNL     1       5.663   4.862  18.024  0.00  0.00    +0.000 N 
ATOM     14  C   UNL     1       5.220   3.631  18.686  0.00  0.00    +0.000 C 
ENDROOT
BRANCH   1  15
ATOM     15  C   UNL     1       2.461   7.357  20.048  0.00  0.00    +0.000 C 
BRANCH  15  23
ATOM     16  C   UNL     1      -2.624  12.701  21.405  0.00  0.00    +0.000 C 
ATOM     17  C   UNL     1      -1.805  11.945  20.397  0.00  0.00    +0.000 A 
ATOM     18  C   UNL     1      -2.104  11.954  19.027  0.00  0.00    +0.000 A 
ATOM     19  C   UNL     1      -1.342  11.196  18.117  0.00  0.00    +0.000 A 
ATOM     20  C   UNL     1      -0.302  10.383  18.576  0.00  0.00    +0.000 A 
ATOM     21  O   UNL     1       0.440   9.638  17.689  0.00  0.00    +0.000 OA
ATOM     22  C   UNL     1       1.425   8.792  18.196  0.00  0.00    +0.000 A 
ATOM     23  C   UNL     1       1.695   8.545  19.491  0.00  0.00    +0.000 A 
ATOM     24  C   UNL     1       0.746   9.211  20.437  0.00  0.00    +0.000 A 
ATOM     25  O   UNL     1       0.521   8.785  21.566  0.00  0.00    +0.000 OA
ATOM     26  C   UNL     1      -0.076  10.312  19.941  0.00  0.00    +0.000 A 
ATOM     27  C   UNL     1      -0.773  11.122  20.844  0.00  0.00    +0.000 A 
ENDBRANCH  15  23
ENDBRANCH   1  15
TORSDOF 2
ENDMDL
MODEL 8
REMARK VINA RESULT:      -7.8      2.817      8.697
REMARK  Name = 
REMARK  3 active torsions:
REMARK  status: ('A' for Active; 'I' for Inactive)
REMARK    1  A    between atoms: C_1  and  C_2
REMARK    2  A    between atoms: C_8  and  C_9
REMARK    3  A    between atoms: C_9  and  N_10
REMARK                            x       y       z     vdW  Elec       q    Type
REMARK                         _______ _______ _______ _____ _____    ______ ____
ROOT
ATOM      1  N   UNL     1       0.873  10.881  18.872  0.00  0.00    +0.000 NA
ATOM      2  C   UNL     1       1.481  12.073  19.513  0.00  0.00    +0.000 C 
ATOM      3  C   UNL     1       0.967  13.523  19.013  0.00  0.00    +0.000 C 
ATOM      4  C   UNL     1      -0.376  13.511  18.275  0.00  0.00    +0.000 C 
ATOM      5  C   UNL     1      -1.188  12.460  19.011  0.00  0.00    +0.000 C 
ATOM      6  C   UNL     1      -0.535  11.163  18.473  0.00  0.00    +0.000 C 
ATOM      7  C   UNL     1      -1.183  12.732  20.551  0.00  0.00    +0.000 A 
ATOM      8  C   UNL     1      -1.900  12.006  21.431  0.00  0.00    +0.000 A 
ATOM      9  C   UNL     1      -1.836  12.281  22.849  0.00  0.00    +0.000 A 
ATOM     10  C   UNL     1      -1.145  13.325  23.326  0.00  0.00    +0.000 A 
ATOM     11  C   UNL     1      -0.373  14.168  22.409  0.00  0.00    +0.000 A 
ATOM     12  O   UNL     1       0.283  15.124  22.851  0.00  0.00    +0.000 OA
ATOM     13  N   UNL     1      -0.367  13.773  21.063  0.00  0.00    +0.000 N 
ATOM     14  C   UNL     1       0.632  14.419  20.205  0.00  0.00    +0.000 C 
ENDROOT
BRANCH   1  15
ATOM     15  C   UNL     1       0.800   9.621  19.661  0.00  0.00    +0.000 C 
BRANCH  15  23
ATOM     16  C   UNL     1       5.492   5.480  15.525  0.00  0.00    +0.000 C 
ATOM     17  C   UNL     1       4.668   5.610  16.775  0.00  0.00    +0.000 A 
ATOM     18  C   UNL     1       4.340   4.508  17.577  0.00  0.00    +0.000 A 
ATOM     19  C   UNL     1       3.528   4.662  18.717  0.00  0.00    +0.000 A 
ATOM     20  C   UNL     1       2.996   5.913  19.039  0.00  0.00    +0.000 A 
ATOM     21  O   UNL     1       2.197   6.063  20.150  0.00  0.00    +0.000 OA
ATOM     22  C   UNL     1       1.636   7.315  20.398  0.00  0.00    +0.000 A 
ATOM     23  C   UNL     1       1.714   8.408  19.618  0.00  0.00    +0.000 A 
ATOM     24  C   UNL     1       2.417   8.167  18.319  0.00  0.00    +0.000 A 
ATOM     25  O   UNL     1       2.214   8.843  17.315  0.00  0.00    +0.000 OA
ATOM     26  C   UNL     1       3.253   6.975  18.189  0.00  0.00    +0.000 A 
ATOM     27  C   UNL     1       4.123   6.851  17.100  0.00  0.00    +0.000 A 
ENDBRANCH  15  23
ENDBRANCH   1  15
TORSDOF 2
ENDMDL
MODEL 9
REMARK VINA RESULT:      -7.7      2.304      3.930
REMARK  Name = 
REMARK  3 active torsions:
REMARK  status: ('A' for Active; 'I' for Inactive)
REMARK    1  A    between atoms: C_1  and  C_2
REMARK    2  A    between atoms: C_8  and  C_9
REMARK    3  A    between atoms: C_9  and  N_10
REMARK                            x       y       z     vdW  Elec       q    Type
REMARK                         _______ _______ _______ _____ _____    ______ ____
ROOT
ATOM      1  N   UNL     1       4.156   5.852  17.420  0.00  0.00    +0.000 NA
ATOM      2  C   UNL     1       2.989   5.010  17.055  0.00  0.00    +0.000 C 
ATOM      3  C   UNL     1       3.269   3.440  16.784  0.00  0.00    +0.000 C 
ATOM      4  C   UNL     1       4.590   2.913  17.356  0.00  0.00    +0.000 C 
ATOM      5  C   UNL     1       4.737   3.650  18.674  0.00  0.00    +0.000 C 
ATOM      6  C   UNL     1       5.162   5.053  18.175  0.00  0.00    +0.000 C 
ATOM      7  C   UNL     1       3.440   3.511  19.537  0.00  0.00    +0.000 A 
ATOM      8  C   UNL     1       3.331   3.992  20.792  0.00  0.00    +0.000 A 
ATOM      9  C   UNL     1       2.098   3.862  21.534  0.00  0.00    +0.000 A 
ATOM     10  C   UNL     1       1.058   3.176  21.043  0.00  0.00    +0.000 A 
ATOM     11  C   UNL     1       1.132   2.605  19.696  0.00  0.00    +0.000 A 
ATOM     12  O   UNL     1       0.163   1.985  19.232  0.00  0.00    +0.000 OA
ATOM     13  N   UNL     1       2.303   2.875  18.973  0.00  0.00    +0.000 N 
ATOM     14  C   UNL     1       2.262   2.573  17.538  0.00  0.00    +0.000 C 
ENDROOT
BRANCH   1  15
ATOM     15  C   UNL     1       3.916   7.055  18.263  0.00  0.00    +0.000 C 
BRANCH  15  23
ATOM     16  C   UNL     1      -1.651  12.074  17.964  0.00  0.00    +0.000 C 
ATOM     17  C   UNL     1      -0.938  11.003  18.742  0.00  0.00    +0.000 A 
ATOM     18  C   UNL     1      -1.109  10.837  20.123  0.00  0.00    +0.000 A 
ATOM     19  C   UNL     1      -0.390   9.852  20.826  0.00  0.00    +0.000 A 
ATOM     20  C   UNL     1       0.546   9.055  20.161  0.00  0.00    +0.000 A 
ATOM     21  O   UNL     1       1.254   8.095  20.849  0.00  0.00    +0.000 OA
ATOM     22  C   UNL     1       2.222   7.367  20.159  0.00  0.00    +0.000 A 
ATOM     23  C   UNL     1       2.620   7.546  18.887  0.00  0.00    +0.000 A 
ATOM     24  C   UNL     1       1.980   8.722  18.220  0.00  0.00    +0.000 A 
ATOM     25  O   UNL     1       2.499   9.322  17.283  0.00  0.00    +0.000 OA
ATOM     26  C   UNL     1       0.772   9.290  18.815  0.00  0.00    +0.000 A 
ATOM     27  C   UNL     1       0.005  10.209  18.091  0.00  0.00    +0.000 A 
ENDBRANCH  15  23
ENDBRANCH   1  15
TORSDOF 2
ENDMDL
