MODEL 1
REMARK VINA RESULT:      -6.8      0.000      0.000
REMARK  Name = 
REMARK  11 active torsions:
REMARK  status: ('A' for Active; 'I' for Inactive)
REMARK    1  A    between atoms: C_1  and  O_2
REMARK    2  A    between atoms: O_2  and  C_3
REMARK    3  A    between atoms: C_8  and  N_9
REMARK    4  A    between atoms: N_9  and  C_10
REMARK    5  A    between atoms: C_10  and  N_12
REMARK    6  A    between atoms: N_12  and  C_13
REMARK    7  A    between atoms: N_12  and  C_23
REMARK    8  A    between atoms: C_13  and  C_14
REMARK    9  A    between atoms: C_14  and  C_15
REMARK   10  A    between atoms: C_15  and  N_16
REMARK   11  A    between atoms: C_23  and  C_24
REMARK                            x       y       z     vdW  Elec       q    Type
REMARK                         _______ _______ _______ _____ _____    ______ ____
ROOT
ATOM      1  N   UNL     1       3.656   5.365  17.722  0.00  0.00    +0.000 N 
ENDROOT
BRANCH   1   2
ATOM      2  C   UNL     1       4.795   4.678  18.197  0.00  0.00    +0.000 C 
ATOM      3  S   UNL     1       5.547   5.017  19.668  0.00  0.00    +0.000 S 
BRANCH   2   4
ATOM      4  N   UNL     1       5.313   3.757  17.284  0.00  0.00    +0.000 N 
ATOM      5  H   UNL     1       4.931   2.821  17.370  0.00  0.00    +0.000 HD
BRANCH   4  11
ATOM      6  C   UNL     1       6.985   4.896  15.864  0.00  0.00    +0.000 A 
ATOM      7  C   UNL     1       7.420   5.260  14.580  0.00  0.00    +0.000 A 
ATOM      8  C   UNL     1       6.787   4.750  13.441  0.00  0.00    +0.000 A 
ATOM      9  C   UNL     1       5.706   3.890  13.580  0.00  0.00    +0.000 A 
ATOM     10  C   UNL     1       5.243   3.550  14.848  0.00  0.00    +0.000 A 
ATOM     11  C   UNL     1       5.868   4.042  16.003  0.00  0.00    +0.000 A 
BRANCH   6  13
ATOM     12  C   UNL     1       7.528   6.745  17.239  0.00  0.00    +0.000 C 
ATOM     13  O   UNL     1       7.611   5.331  17.011  0.00  0.00    +0.000 OA
ENDBRANCH   6  13
ENDBRANCH   4  11
ENDBRANCH   2   4
ENDBRANCH   1   2
BRANCH   1  14
ATOM     14  C   UNL     1       3.622   6.836  17.534  0.00  0.00    +0.000 C 
BRANCH  14  15
ATOM     15  C   UNL     1       2.523   7.530  18.355  0.00  0.00    +0.000 C 
BRANCH  15  16
ATOM     16  C   UNL     1       2.040   8.870  17.767  0.00  0.00    +0.000 C 
BRANCH  16  17
ATOM     17  N   UNL     1       1.223   9.668  18.711  0.00  0.00    +0.000 NA
ATOM     18  C   UNL     1      -0.078  10.067  18.172  0.00  0.00    +0.000 C 
ATOM     19  C   UNL     1      -0.483  11.447  18.702  0.00  0.00    +0.000 C 
ATOM     20  C   UNL     1      -1.122  11.439  20.083  0.00  0.00    +0.000 C 
ATOM     21  C   UNL     1      -0.252  10.833  21.177  0.00  0.00    +0.000 C 
ATOM     22  C   UNL     1      -0.006   9.344  20.969  0.00  0.00    +0.000 C 
ATOM     23  C   UNL     1       1.161   9.008  20.027  0.00  0.00    +0.000 C 
ENDBRANCH  16  17
ENDBRANCH  15  16
ENDBRANCH  14  15
ENDBRANCH   1  14
BRANCH   1  24
ATOM     24  C   UNL     1       2.356   4.686  17.619  0.00  0.00    +0.000 C 
BRANCH  24  25
ATOM     25  C   UNL     1       1.964   4.000  18.914  0.00  0.00    +0.000 A 
ATOM     26  C   UNL     1       1.596   4.526  20.141  0.00  0.00    +0.000 A 
ATOM     27  C   UNL     1       1.353   3.519  21.125  0.00  0.00    +0.000 A 
ATOM     28  C   UNL     1       1.538   2.251  20.622  0.00  0.00    +0.000 A 
ATOM     29  S   UNL     1       1.994   2.279  18.975  0.00  0.00    +0.000 S 
ENDBRANCH  24  25
ENDBRANCH   1  24
TORSDOF 10
ENDMDL
MODEL 2
REMARK VINA RESULT:      -6.7      1.143      1.350
REMARK  Name = 
REMARK  11 active torsions:
REMARK  status: ('A' for Active; 'I' for Inactive)
REMARK    1  A    between atoms: C_1  and  O_2
REMARK    2  A    between atoms: O_2  and  C_3
REMARK    3  A    between atoms: C_8  and  N_9
REMARK    4  A    between atoms: N_9  and  C_10
REMARK    5  A    between atoms: C_10  and  N_12
REMARK    6  A    between atoms: N_12  and  C_13
REMARK    7  A    between atoms: N_12  and  C_23
REMARK    8  A    between atoms: C_13  and  C_14
REMARK    9  A    between atoms: C_14  and  C_15
REMARK   10  A    between atoms: C_15  and  N_16
REMARK   11  A    between atoms: C_23  and  C_24
REMARK                            x       y       z     vdW  Elec       q    Type
REMARK                         _______ _______ _______ _____ _____    ______ ____
ROOT
ATOM      1  N   UNL     1       3.643   5.109  18.190  0.00  0.00    +0.000 N 
ENDROOT
BRANCH   1   2
ATOM      2  C   UNL     1       3.864   3.920  17.461  0.00  0.00    +0.000 C 
ATOM      3  S   UNL     1       2.650   2.807  17.095  0.00  0.00    +0.000 S 
BRANCH   2   4
ATOM      4  N   UNL     1       5.208   3.690  17.161  0.00  0.00    +0.000 N 
ATOM      5  H   UNL     1       5.629   2.924  17.677  0.00  0.00    +0.000 HD
BRANCH   4  11
ATOM      6  C   UNL     1       7.037   4.815  15.937  0.00  0.00    +0.000 A 
ATOM      7  C   UNL     1       7.591   5.216  14.711  0.00  0.00    +0.000 A 
ATOM      8  C   UNL     1       7.035   4.784  13.502  0.00  0.00    +0.000 A 
ATOM      9  C   UNL     1       5.913   3.967  13.512  0.00  0.00    +0.000 A 
ATOM     10  C   UNL     1       5.333   3.593  14.720  0.00  0.00    +0.000 A 
ATOM     11  C   UNL     1       5.879   4.006  15.944  0.00  0.00    +0.000 A 
BRANCH   6  13
ATOM     12  C   UNL     1       7.311   6.521  17.556  0.00  0.00    +0.000 C 
ATOM     13  O   UNL     1       7.582   5.172  17.151  0.00  0.00    +0.000 OA
ENDBRANCH   6  13
ENDBRANCH   4  11
ENDBRANCH   2   4
ENDBRANCH   1   2
BRANCH   1  14
ATOM     14  C   UNL     1       3.416   6.423  17.540  0.00  0.00    +0.000 C 
BRANCH  14  15
ATOM     15  C   UNL     1       2.822   7.477  18.486  0.00  0.00    +0.000 C 
BRANCH  15  16
ATOM     16  C   UNL     1       2.151   8.668  17.773  0.00  0.00    +0.000 C 
BRANCH  16  17
ATOM     17  N   UNL     1       1.332   9.510  18.676  0.00  0.00    +0.000 NA
ATOM     18  C   UNL     1       0.030   9.877  18.116  0.00  0.00    +0.000 C 
ATOM     19  C   UNL     1      -0.379  11.282  18.575  0.00  0.00    +0.000 C 
ATOM     20  C   UNL     1      -1.020  11.341  19.954  0.00  0.00    +0.000 C 
ATOM     21  C   UNL     1      -0.150  10.794  21.078  0.00  0.00    +0.000 C 
ATOM     22  C   UNL     1       0.100   9.296  20.945  0.00  0.00    +0.000 C 
ATOM     23  C   UNL     1       1.269   8.917  20.023  0.00  0.00    +0.000 C 
ENDBRANCH  16  17
ENDBRANCH  15  16
ENDBRANCH  14  15
ENDBRANCH   1  14
BRANCH   1  24
ATOM     24  C   UNL     1       3.872   5.155  19.642  0.00  0.00    +0.000 C 
BRANCH  24  25
ATOM     25  C   UNL     1       3.037   4.131  20.386  0.00  0.00    +0.000 A 
ATOM     26  C   UNL     1       3.389   2.922  20.961  0.00  0.00    +0.000 A 
ATOM     27  C   UNL     1       2.273   2.231  21.526  0.00  0.00    +0.000 A 
ATOM     28  C   UNL     1       1.099   2.933  21.371  0.00  0.00    +0.000 A 
ATOM     29  S   UNL     1       1.346   4.415  20.557  0.00  0.00    +0.000 S 
ENDBRANCH  24  25
ENDBRANCH   1  24
TORSDOF 10
ENDMDL
MODEL 3
REMARK VINA RESULT:      -6.6      3.152      6.225
REMARK  Name = 
REMARK  11 active torsions:
REMARK  status: ('A' for Active; 'I' for Inactive)
REMARK    1  A    between atoms: C_1  and  O_2
REMARK    2  A    between atoms: O_2  and  C_3
REMARK    3  A    between atoms: C_8  and  N_9
REMARK    4  A    between atoms: N_9  and  C_10
REMARK    5  A    between atoms: C_10  and  N_12
REMARK    6  A    between atoms: N_12  and  C_13
REMARK    7  A    between atoms: N_12  and  C_23
REMARK    8  A    between atoms: C_13  and  C_14
REMARK    9  A    between atoms: C_14  and  C_15
REMARK   10  A    between atoms: C_15  and  N_16
REMARK   11  A    between atoms: C_23  and  C_24
REMARK                            x       y       z     vdW  Elec       q    Type
REMARK                         _______ _______ _______ _____ _____    ______ ____
ROOT
ATOM      1  N   UNL     1       1.151   9.088  20.045  0.00  0.00    +0.000 N 
ENDROOT
BRANCH   1   2
ATOM      2  C   UNL     1       1.956   8.050  19.526  0.00  0.00    +0.000 C 
ATOM      3  S   UNL     1       2.406   7.936  17.905  0.00  0.00    +0.000 S 
BRANCH   2   4
ATOM      4  N   UNL     1       2.260   7.059  20.461  0.00  0.00    +0.000 N 
ATOM      5  H   UNL     1       2.134   7.340  21.428  0.00  0.00    +0.000 HD
BRANCH   4  11
ATOM      6  C   UNL     1       3.346   4.946  19.778  0.00  0.00    +0.000 A 
ATOM      7  C   UNL     1       3.228   3.584  19.461  0.00  0.00    +0.000 A 
ATOM      8  C   UNL     1       2.019   2.909  19.659  0.00  0.00    +0.000 A 
ATOM      9  C   UNL     1       0.918   3.595  20.155  0.00  0.00    +0.000 A 
ATOM     10  C   UNL     1       1.014   4.955  20.438  0.00  0.00    +0.000 A 
ATOM     11  C   UNL     1       2.218   5.649  20.257  0.00  0.00    +0.000 A 
BRANCH   6  13
ATOM     12  C   UNL     1       5.487   5.030  18.770  0.00  0.00    +0.000 C 
ATOM     13  O   UNL     1       4.531   5.638  19.650  0.00  0.00    +0.000 OA
ENDBRANCH   6  13
ENDBRANCH   4  11
ENDBRANCH   2   4
ENDBRANCH   1   2
BRANCH   1  14
ATOM     14  C   UNL     1       0.196   8.888  21.162  0.00  0.00    +0.000 C 
BRANCH  14  15
ATOM     15  C   UNL     1       0.372   9.901  22.304  0.00  0.00    +0.000 C 
BRANCH  15  16
ATOM     16  C   UNL     1      -0.932  10.259  23.044  0.00  0.00    +0.000 C 
BRANCH  16  17
ATOM     17  N   UNL     1      -1.536  11.534  22.592  0.00  0.00    +0.000 NA
ATOM     18  C   UNL     1      -2.695  11.949  23.383  0.00  0.00    +0.000 C 
ATOM     19  C   UNL     1      -3.725  12.664  22.500  0.00  0.00    +0.000 C 
ATOM     20  C   UNL     1      -3.439  14.138  22.253  0.00  0.00    +0.000 C 
ATOM     21  C   UNL     1      -2.092  14.418  21.599  0.00  0.00    +0.000 C 
ATOM     22  C   UNL     1      -0.919  14.049  22.499  0.00  0.00    +0.000 C 
ATOM     23  C   UNL     1      -0.501  12.571  22.439  0.00  0.00    +0.000 C 
ENDBRANCH  16  17
ENDBRANCH  15  16
ENDBRANCH  14  15
ENDBRANCH   1  14
BRANCH   1  24
ATOM     24  C   UNL     1       1.035  10.374  19.340  0.00  0.00    +0.000 C 
BRANCH  24  25
ATOM     25  C   UNL     1      -0.287  10.510  18.610  0.00  0.00    +0.000 A 
ATOM     26  C   UNL     1      -0.907   9.673  17.697  0.00  0.00    +0.000 A 
ATOM     27  C   UNL     1      -2.137  10.206  17.203  0.00  0.00    +0.000 A 
ATOM     28  C   UNL     1      -2.425  11.434  17.754  0.00  0.00    +0.000 A 
ATOM     29  S   UNL     1      -1.225  11.933  18.862  0.00  0.00    +0.000 S 
ENDBRANCH  24  25
ENDBRANCH   1  24
TORSDOF 10
ENDMDL
MODEL 4
REMARK VINA RESULT:      -6.6      3.290      6.293
REMARK  Name = 
REMARK  11 active torsions:
REMARK  status: ('A' for Active; 'I' for Inactive)
REMARK    1  A    between atoms: C_1  and  O_2
REMARK    2  A    between atoms: O_2  and  C_3
REMARK    3  A    between atoms: C_8  and  N_9
REMARK    4  A    between atoms: N_9  and  C_10
REMARK    5  A    between atoms: C_10  and  N_12
REMARK    6  A    between atoms: N_12  and  C_13
REMARK    7  A    between atoms: N_12  and  C_23
REMARK    8  A    between atoms: C_13  and  C_14
REMARK    9  A    between atoms: C_14  and  C_15
REMARK   10  A    between atoms: C_15  and  N_16
REMARK   11  A    between atoms: C_23  and  C_24
REMARK                            x       y       z     vdW  Elec       q    Type
REMARK                         _______ _______ _______ _____ _____    ______ ____
ROOT
ATOM      1  N   UNL     1       1.157   9.202  19.887  0.00  0.00    +0.000 N 
ENDROOT
BRANCH   1   2
ATOM      2  C   UNL     1       1.947   8.133  19.411  0.00  0.00    +0.000 C 
ATOM      3  S   UNL     1       2.401   7.951  17.797  0.00  0.00    +0.000 S 
BRANCH   2   4
ATOM      4  N   UNL     1       2.234   7.174  20.383  0.00  0.00    +0.000 N 
ATOM      5  H   UNL     1       2.088   7.486  21.338  0.00  0.00    +0.000 HD
BRANCH   4  11
ATOM      6  C   UNL     1       3.326   5.044  19.764  0.00  0.00    +0.000 A 
ATOM      7  C   UNL     1       3.213   3.672  19.492  0.00  0.00    +0.000 A 
ATOM      8  C   UNL     1       2.007   2.999  19.717  0.00  0.00    +0.000 A 
ATOM      9  C   UNL     1       0.906   3.697  20.196  0.00  0.00    +0.000 A 
ATOM     10  C   UNL     1       0.997   5.065  20.434  0.00  0.00    +0.000 A 
ATOM     11  C   UNL     1       2.197   5.757  20.225  0.00  0.00    +0.000 A 
BRANCH   6  13
ATOM     12  C   UNL     1       5.609   4.944  19.144  0.00  0.00    +0.000 C 
ATOM     13  O   UNL     1       4.508   5.736  19.609  0.00  0.00    +0.000 OA
ENDBRANCH   6  13
ENDBRANCH   4  11
ENDBRANCH   2   4
ENDBRANCH   1   2
BRANCH   1  14
ATOM     14  C   UNL     1       0.243   9.074  21.049  0.00  0.00    +0.000 C 
BRANCH  14  15
ATOM     15  C   UNL     1       0.413  10.196  22.085  0.00  0.00    +0.000 C 
BRANCH  15  16
ATOM     16  C   UNL     1      -0.779  10.359  23.048  0.00  0.00    +0.000 C 
BRANCH  16  17
ATOM     17  N   UNL     1      -1.220  11.765  23.208  0.00  0.00    +0.000 NA
ATOM     18  C   UNL     1      -0.727  12.659  22.159  0.00  0.00    +0.000 C 
ATOM     19  C   UNL     1      -0.449  14.056  22.726  0.00  0.00    +0.000 C 
ATOM     20  C   UNL     1      -1.672  14.955  22.837  0.00  0.00    +0.000 C 
ATOM     21  C   UNL     1      -2.792  14.391  23.701  0.00  0.00    +0.000 C 
ATOM     22  C   UNL     1      -3.416  13.136  23.102  0.00  0.00    +0.000 C 
ATOM     23  C   UNL     1      -2.675  11.830  23.429  0.00  0.00    +0.000 C 
ENDBRANCH  16  17
ENDBRANCH  15  16
ENDBRANCH  14  15
ENDBRANCH   1  14
BRANCH   1  24
ATOM     24  C   UNL     1       1.010  10.438  19.103  0.00  0.00    +0.000 C 
BRANCH  24  25
ATOM     25  C   UNL     1      -0.344  10.531  18.428  0.00  0.00    +0.000 A 
ATOM     26  C   UNL     1      -1.020   9.625  17.628  0.00  0.00    +0.000 A 
ATOM     27  C   UNL     1      -2.266  10.133  17.146  0.00  0.00    +0.000 A 
ATOM     28  C   UNL     1      -2.509  11.412  17.595  0.00  0.00    +0.000 A 
ATOM     29  S   UNL     1      -1.248  11.988  18.593  0.00  0.00    +0.000 S 
ENDBRANCH  24  25
ENDBRANCH   1  24
TORSDOF 10
ENDMDL
MODEL 5
REMARK VINA RESULT:      -6.6      2.086      5.314
REMARK  Name = 
REMARK  11 active torsions:
REMARK  status: ('A' for Active; 'I' for Inactive)
REMARK    1  A    between atoms: C_1  and  O_2
REMARK    2  A    between atoms: O_2  and  C_3
REMARK    3  A    between atoms: C_8  and  N_9
REMARK    4  A    between atoms: N_9  and  C_10
REMARK    5  A    between atoms: C_10  and  N_12
REMARK    6  A    between atoms: N_12  and  C_13
REMARK    7  A    between atoms: N_12  and  C_23
REMARK    8  A    between atoms: C_13  and  C_14
REMARK    9  A    between atoms: C_14  and  C_15
REMARK   10  A    between atoms: C_15  and  N_16
REMARK   11  A    between atoms: C_23  and  C_24
REMARK                            x       y       z     vdW  Elec       q    Type
REMARK                         _______ _______ _______ _____ _____    ______ ____
ROOT
ATOM      1  N   UNL     1       4.864   4.922  16.991  0.00  0.00    +0.000 N 
ENDROOT
BRANCH   1   2
ATOM      2  C   UNL     1       5.236   4.339  18.222  0.00  0.00    +0.000 C 
ATOM      3  S   UNL     1       6.454   4.948  19.217  0.00  0.00    +0.000 S 
BRANCH   2   4
ATOM      4  N   UNL     1       4.574   3.141  18.495  0.00  0.00    +0.000 N 
ATOM      5  H   UNL     1       5.139   2.308  18.361  0.00  0.00    +0.000 HD
BRANCH   4  11
ATOM      6  C   UNL     1       2.139   3.103  18.921  0.00  0.00    +0.000 A 
ATOM      7  C   UNL     1       1.084   3.047  19.844  0.00  0.00    +0.000 A 
ATOM      8  C   UNL     1       1.333   2.800  21.199  0.00  0.00    +0.000 A 
ATOM      9  C   UNL     1       2.639   2.627  21.639  0.00  0.00    +0.000 A 
ATOM     10  C   UNL     1       3.696   2.717  20.739  0.00  0.00    +0.000 A 
ATOM     11  C   UNL     1       3.468   2.955  19.376  0.00  0.00    +0.000 A 
BRANCH   6  13
ATOM     12  C   UNL     1       1.086   4.399  17.242  0.00  0.00    +0.000 C 
ATOM     13  O   UNL     1       1.936   3.291  17.572  0.00  0.00    +0.000 OA
ENDBRANCH   6  13
ENDBRANCH   4  11
ENDBRANCH   2   4
ENDBRANCH   1   2
BRANCH   1  14
ATOM     14  C   UNL     1       4.414   6.329  16.868  0.00  0.00    +0.000 C 
BRANCH  14  15
ATOM     15  C   UNL     1       3.551   6.799  18.049  0.00  0.00    +0.000 C 
BRANCH  15  16
ATOM     16  C   UNL     1       2.617   7.982  17.726  0.00  0.00    +0.000 C 
BRANCH  16  17
ATOM     17  N   UNL     1       2.094   8.668  18.931  0.00  0.00    +0.000 NA
ATOM     18  C   UNL     1       0.940   9.527  18.664  0.00  0.00    +0.000 C 
ATOM     19  C   UNL     1       0.962  10.760  19.575  0.00  0.00    +0.000 C 
ATOM     20  C   UNL     1       0.397  10.532  20.970  0.00  0.00    +0.000 C 
ATOM     21  C   UNL     1       1.099   9.439  21.764  0.00  0.00    +0.000 C 
ATOM     22  C   UNL     1       0.906   8.057  21.151  0.00  0.00    +0.000 C 
ATOM     23  C   UNL     1       1.896   7.706  20.029  0.00  0.00    +0.000 C 
ENDBRANCH  16  17
ENDBRANCH  15  16
ENDBRANCH  14  15
ENDBRANCH   1  14
BRANCH   1  24
ATOM     24  C   UNL     1       4.668   4.090  15.793  0.00  0.00    +0.000 C 
BRANCH  24  25
ATOM     25  C   UNL     1       5.758   4.307  14.761  0.00  0.00    +0.000 A 
ATOM     26  C   UNL     1       6.970   4.970  14.851  0.00  0.00    +0.000 A 
ATOM     27  C   UNL     1       7.686   4.985  13.614  0.00  0.00    +0.000 A 
ATOM     28  C   UNL     1       7.003   4.329  12.615  0.00  0.00    +0.000 A 
ATOM     29  S   UNL     1       5.515   3.697  13.168  0.00  0.00    +0.000 S 
ENDBRANCH  24  25
ENDBRANCH   1  24
TORSDOF 10
ENDMDL
MODEL 6
REMARK VINA RESULT:      -6.5      3.859      9.037
REMARK  Name = 
REMARK  11 active torsions:
REMARK  status: ('A' for Active; 'I' for Inactive)
REMARK    1  A    between atoms: C_1  and  O_2
REMARK    2  A    between atoms: O_2  and  C_3
REMARK    3  A    between atoms: C_8  and  N_9
REMARK    4  A    between atoms: N_9  and  C_10
REMARK    5  A    between atoms: C_10  and  N_12
REMARK    6  A    between atoms: N_12  and  C_13
REMARK    7  A    between atoms: N_12  and  C_23
REMARK    8  A    between atoms: C_13  and  C_14
REMARK    9  A    between atoms: C_14  and  C_15
REMARK   10  A    between atoms: C_15  and  N_16
REMARK   11  A    between atoms: C_23  and  C_24
REMARK                            x       y       z     vdW  Elec       q    Type
REMARK                         _______ _______ _______ _____ _____    ______ ____
ROOT
ATOM      1  N   UNL     1       0.518  10.759  18.839  0.00  0.00    +0.000 N 
ENDROOT
BRANCH   1   2
ATOM      2  C   UNL     1      -0.031  12.036  18.596  0.00  0.00    +0.000 C 
ATOM      3  S   UNL     1       0.351  13.408  19.500  0.00  0.00    +0.000 S 
BRANCH   2   4
ATOM      4  N   UNL     1      -1.009  12.044  17.599  0.00  0.00    +0.000 N 
ATOM      5  H   UNL     1      -0.660  11.849  16.666  0.00  0.00    +0.000 HD
BRANCH   4  11
ATOM      6  C   UNL     1      -3.179  11.275  16.699  0.00  0.00    +0.000 A 
ATOM      7  C   UNL     1      -4.569  11.157  16.856  0.00  0.00    +0.000 A 
ATOM      8  C   UNL     1      -5.180  11.494  18.068  0.00  0.00    +0.000 A 
ATOM      9  C   UNL     1      -4.409  11.967  19.122  0.00  0.00    +0.000 A 
ATOM     10  C   UNL     1      -3.035  12.122  18.966  0.00  0.00    +0.000 A 
ATOM     11  C   UNL     1      -2.400  11.782  17.763  0.00  0.00    +0.000 A 
BRANCH   6  13
ATOM     12  C   UNL     1      -3.307  10.095  14.650  0.00  0.00    +0.000 C 
ATOM     13  O   UNL     1      -2.528  10.905  15.543  0.00  0.00    +0.000 OA
ENDBRANCH   6  13
ENDBRANCH   4  11
ENDBRANCH   2   4
ENDBRANCH   1   2
BRANCH   1  14
ATOM     14  C   UNL     1       1.819  10.319  18.278  0.00  0.00    +0.000 C 
BRANCH  14  15
ATOM     15  C   UNL     1       1.803   8.872  17.763  0.00  0.00    +0.000 C 
BRANCH  15  16
ATOM     16  C   UNL     1       2.449   7.848  18.718  0.00  0.00    +0.000 C 
BRANCH  16  17
ATOM     17  N   UNL     1       2.924   6.622  18.035  0.00  0.00    +0.000 NA
ATOM     18  C   UNL     1       4.372   6.588  17.827  0.00  0.00    +0.000 C 
ATOM     19  C   UNL     1       4.714   5.877  16.513  0.00  0.00    +0.000 C 
ATOM     20  C   UNL     1       4.748   4.358  16.599  0.00  0.00    +0.000 C 
ATOM     21  C   UNL     1       3.445   3.723  17.067  0.00  0.00    +0.000 C 
ATOM     22  C   UNL     1       3.107   4.082  18.510  0.00  0.00    +0.000 C 
ATOM     23  C   UNL     1       2.374   5.421  18.686  0.00  0.00    +0.000 C 
ENDBRANCH  16  17
ENDBRANCH  15  16
ENDBRANCH  14  15
ENDBRANCH   1  14
BRANCH   1  24
ATOM     24  C   UNL     1      -0.289   9.699  19.465  0.00  0.00    +0.000 C 
BRANCH  24  25
ATOM     25  C   UNL     1      -0.324   9.823  20.976  0.00  0.00    +0.000 A 
ATOM     26  C   UNL     1      -1.035  10.681  21.797  0.00  0.00    +0.000 A 
ATOM     27  C   UNL     1      -0.736  10.498  23.182  0.00  0.00    +0.000 A 
ATOM     28  C   UNL     1       0.193   9.502  23.381  0.00  0.00    +0.000 A 
ATOM     29  S   UNL     1       0.692   8.792  21.909  0.00  0.00    +0.000 S 
ENDBRANCH  24  25
ENDBRANCH   1  24
TORSDOF 10
ENDMDL
MODEL 7
REMARK VINA RESULT:      -6.4      4.402      9.025
REMARK  Name = 
REMARK  11 active torsions:
REMARK  status: ('A' for Active; 'I' for Inactive)
REMARK    1  A    between atoms: C_1  and  O_2
REMARK    2  A    between atoms: O_2  and  C_3
REMARK    3  A    between atoms: C_8  and  N_9
REMARK    4  A    between atoms: N_9  and  C_10
REMARK    5  A    between atoms: C_10  and  N_12
REMARK    6  A    between atoms: N_12  and  C_13
REMARK    7  A    between atoms: N_12  and  C_23
REMARK    8  A    between atoms: C_13  and  C_14
REMARK    9  A    between atoms: C_14  and  C_15
REMARK   10  A    between atoms: C_15  and  N_16
REMARK   11  A    between atoms: C_23  and  C_24
REMARK                            x       y       z     vdW  Elec       q    Type
REMARK                         _______ _______ _______ _____ _____    ______ ____
ROOT
ATOM      1  N   UNL     1       0.826  10.786  18.929  0.00  0.00    +0.000 N 
ENDROOT
BRANCH   1   2
ATOM      2  C   UNL     1       0.869  12.120  19.390  0.00  0.00    +0.000 C 
ATOM      3  S   UNL     1       0.661  12.560  21.005  0.00  0.00    +0.000 S 
BRANCH   2   4
ATOM      4  N   UNL     1       0.992  13.061  18.366  0.00  0.00    +0.000 N 
ATOM      5  H   UNL     1       0.638  12.752  17.466  0.00  0.00    +0.000 HD
BRANCH   4  11
ATOM      6  C   UNL     1       2.292  15.144  18.653  0.00  0.00    +0.000 A 
ATOM      7  C   UNL     1       2.308  16.520  18.926  0.00  0.00    +0.000 A 
ATOM      8  C   UNL     1       1.113  17.244  19.010  0.00  0.00    +0.000 A 
ATOM      9  C   UNL     1      -0.102  16.592  18.841  0.00  0.00    +0.000 A 
ATOM     10  C   UNL     1      -0.131  15.221  18.606  0.00  0.00    +0.000 A 
ATOM     11  C   UNL     1       1.055  14.478  18.508  0.00  0.00    +0.000 A 
BRANCH   6  13
ATOM     12  C   UNL     1       4.504  15.073  17.812  0.00  0.00    +0.000 C 
ATOM     13  O   UNL     1       3.445  14.403  18.509  0.00  0.00    +0.000 OA
ENDBRANCH   6  13
ENDBRANCH   4  11
ENDBRANCH   2   4
ENDBRANCH   1   2
BRANCH   1  14
ATOM     14  C   UNL     1       1.842  10.217  18.010  0.00  0.00    +0.000 C 
BRANCH  14  15
ATOM     15  C   UNL     1       1.642   8.719  17.732  0.00  0.00    +0.000 C 
BRANCH  15  16
ATOM     16  C   UNL     1       2.646   7.798  18.452  0.00  0.00    +0.000 C 
BRANCH  16  17
ATOM     17  N   UNL     1       2.087   6.469  18.793  0.00  0.00    +0.000 NA
ATOM     18  C   UNL     1       2.665   5.372  18.015  0.00  0.00    +0.000 C 
ATOM     19  C   UNL     1       1.613   4.290  17.741  0.00  0.00    +0.000 C 
ATOM     20  C   UNL     1       1.406   3.299  18.878  0.00  0.00    +0.000 C 
ATOM     21  C   UNL     1       0.990   3.933  20.199  0.00  0.00    +0.000 C 
ATOM     22  C   UNL     1       2.080   4.818  20.790  0.00  0.00    +0.000 C 
ATOM     23  C   UNL     1       2.105   6.257  20.250  0.00  0.00    +0.000 C 
ENDBRANCH  16  17
ENDBRANCH  15  16
ENDBRANCH  14  15
ENDBRANCH   1  14
BRANCH   1  24
ATOM     24  C   UNL     1      -0.368   9.955  19.141  0.00  0.00    +0.000 C 
BRANCH  24  25
ATOM     25  C   UNL     1      -1.497  10.323  18.198  0.00  0.00    +0.000 A 
ATOM     26  C   UNL     1      -1.825   9.834  16.945  0.00  0.00    +0.000 A 
ATOM     27  C   UNL     1      -2.951  10.500  16.368  0.00  0.00    +0.000 A 
ATOM     28  C   UNL     1      -3.454  11.476  17.198  0.00  0.00    +0.000 A 
ATOM     29  S   UNL     1      -2.579  11.582  18.661  0.00  0.00    +0.000 S 
ENDBRANCH  24  25
ENDBRANCH   1  24
TORSDOF 10
ENDMDL
MODEL 8
REMARK VINA RESULT:      -6.4      2.047      5.394
REMARK  Name = 
REMARK  11 active torsions:
REMARK  status: ('A' for Active; 'I' for Inactive)
REMARK    1  A    between atoms: C_1  and  O_2
REMARK    2  A    between atoms: O_2  and  C_3
REMARK    3  A    between atoms: C_8  and  N_9
REMARK    4  A    between atoms: N_9  and  C_10
REMARK    5  A    between atoms: C_10  and  N_12
REMARK    6  A    between atoms: N_12  and  C_13
REMARK    7  A    between atoms: N_12  and  C_23
REMARK    8  A    between atoms: C_13  and  C_14
REMARK    9  A    between atoms: C_14  and  C_15
REMARK   10  A    between atoms: C_15  and  N_16
REMARK   11  A    between atoms: C_23  and  C_24
REMARK                            x       y       z     vdW  Elec       q    Type
REMARK                         _______ _______ _______ _____ _____    ______ ____
ROOT
ATOM      1  N   UNL     1       5.051   5.008  17.090  0.00  0.00    +0.000 N 
ENDROOT
BRANCH   1   2
ATOM      2  C   UNL     1       5.590   4.623  18.337  0.00  0.00    +0.000 C 
ATOM      3  S   UNL     1       6.850   5.441  19.105  0.00  0.00    +0.000 S 
BRANCH   2   4
ATOM      4  N   UNL     1       5.057   3.432  18.832  0.00  0.00    +0.000 N 
ATOM      5  H   UNL     1       5.728   2.677  18.922  0.00  0.00    +0.000 HD
BRANCH   4  11
ATOM      6  C   UNL     1       3.932   2.455  20.804  0.00  0.00    +0.000 A 
ATOM      7  C   UNL     1       2.746   2.234  21.522  0.00  0.00    +0.000 A 
ATOM      8  C   UNL     1       1.557   2.867  21.146  0.00  0.00    +0.000 A 
ATOM      9  C   UNL     1       1.542   3.708  20.041  0.00  0.00    +0.000 A 
ATOM     10  C   UNL     1       2.704   3.907  19.301  0.00  0.00    +0.000 A 
ATOM     11  C   UNL     1       3.909   3.290  19.665  0.00  0.00    +0.000 A 
BRANCH   6  13
ATOM     12  C   UNL     1       5.291   0.517  20.805  0.00  0.00    +0.000 C 
ATOM     13  O   UNL     1       5.136   1.895  21.170  0.00  0.00    +0.000 OA
ENDBRANCH   6  13
ENDBRANCH   4  11
ENDBRANCH   2   4
ENDBRANCH   1   2
BRANCH   1  14
ATOM     14  C   UNL     1       4.514   6.366  16.827  0.00  0.00    +0.000 C 
BRANCH  14  15
ATOM     15  C   UNL     1       3.724   6.949  18.008  0.00  0.00    +0.000 C 
BRANCH  15  16
ATOM     16  C   UNL     1       2.763   8.093  17.630  0.00  0.00    +0.000 C 
BRANCH  16  17
ATOM     17  N   UNL     1       1.779   8.412  18.691  0.00  0.00    +0.000 NA
ATOM     18  C   UNL     1       2.191   7.975  20.025  0.00  0.00    +0.000 C 
ATOM     19  C   UNL     1       0.975   7.538  20.851  0.00  0.00    +0.000 C 
ATOM     20  C   UNL     1       0.217   8.675  21.520  0.00  0.00    +0.000 C 
ATOM     21  C   UNL     1      -0.314   9.731  20.560  0.00  0.00    +0.000 C 
ATOM     22  C   UNL     1       0.803  10.504  19.868  0.00  0.00    +0.000 C 
ATOM     23  C   UNL     1       1.373   9.826  18.612  0.00  0.00    +0.000 C 
ENDBRANCH  16  17
ENDBRANCH  15  16
ENDBRANCH  14  15
ENDBRANCH   1  14
BRANCH   1  24
ATOM     24  C   UNL     1       4.765   4.006  16.051  0.00  0.00    +0.000 C 
BRANCH  24  25
ATOM     25  C   UNL     1       5.640   4.186  14.826  0.00  0.00    +0.000 A 
ATOM     26  C   UNL     1       5.449   3.793  13.512  0.00  0.00    +0.000 A 
ATOM     27  C   UNL     1       6.557   4.117  12.670  0.00  0.00    +0.000 A 
ATOM     28  C   UNL     1       7.562   4.753  13.362  0.00  0.00    +0.000 A 
ATOM     29  S   UNL     1       7.168   4.961  15.012  0.00  0.00    +0.000 S 
ENDBRANCH  24  25
ENDBRANCH   1  24
TORSDOF 10
ENDMDL
MODEL 9
REMARK VINA RESULT:      -6.4      1.160      1.339
REMARK  Name = 
REMARK  11 active torsions:
REMARK  status: ('A' for Active; 'I' for Inactive)
REMARK    1  A    between atoms: C_1  and  O_2
REMARK    2  A    between atoms: O_2  and  C_3
REMARK    3  A    between atoms: C_8  and  N_9
REMARK    4  A    between atoms: N_9  and  C_10
REMARK    5  A    between atoms: C_10  and  N_12
REMARK    6  A    between atoms: N_12  and  C_13
REMARK    7  A    between atoms: N_12  and  C_23
REMARK    8  A    between atoms: C_13  and  C_14
REMARK    9  A    between atoms: C_14  and  C_15
REMARK   10  A    between atoms: C_15  and  N_16
REMARK   11  A    between atoms: C_23  and  C_24
REMARK                            x       y       z     vdW  Elec       q    Type
REMARK                         _______ _______ _______ _____ _____    ______ ____
ROOT
ATOM      1  N   UNL     1       2.676   6.330  18.317  0.00  0.00    +0.000 N 
ENDROOT
BRANCH   1   2
ATOM      2  C   UNL     1       4.037   5.958  18.265  0.00  0.00    +0.000 C 
ATOM      3  S   UNL     1       4.828   5.124  19.499  0.00  0.00    +0.000 S 
BRANCH   2   4
ATOM      4  N   UNL     1       4.705   6.441  17.138  0.00  0.00    +0.000 N 
ATOM      5  H   UNL     1       4.952   7.424  17.185  0.00  0.00    +0.000 HD
BRANCH   4  11
ATOM      6  C   UNL     1       6.907   5.652  16.339  0.00  0.00    +0.000 A 
ATOM      7  C   UNL     1       7.664   5.011  15.345  0.00  0.00    +0.000 A 
ATOM      8  C   UNL     1       7.034   4.370  14.272  0.00  0.00    +0.000 A 
ATOM      9  C   UNL     1       5.649   4.383  14.178  0.00  0.00    +0.000 A 
ATOM     10  C   UNL     1       4.890   5.046  15.138  0.00  0.00    +0.000 A 
ATOM     11  C   UNL     1       5.500   5.687  16.226  0.00  0.00    +0.000 A 
BRANCH   6  13
ATOM     12  C   UNL     1       7.660   7.668  17.326  0.00  0.00    +0.000 C 
ATOM     13  O   UNL     1       7.482   6.249  17.439  0.00  0.00    +0.000 OA
ENDBRANCH   6  13
ENDBRANCH   4  11
ENDBRANCH   2   4
ENDBRANCH   1   2
BRANCH   1  14
ATOM     14  C   UNL     1       2.211   7.614  18.895  0.00  0.00    +0.000 C 
BRANCH  14  15
ATOM     15  C   UNL     1       1.674   8.598  17.844  0.00  0.00    +0.000 C 
BRANCH  15  16
ATOM     16  C   UNL     1       1.935  10.082  18.168  0.00  0.00    +0.000 C 
BRANCH  16  17
ATOM     17  N   UNL     1       0.739  10.792  18.680  0.00  0.00    +0.000 NA
ATOM     18  C   UNL     1      -0.525  10.254  18.175  0.00  0.00    +0.000 C 
ATOM     19  C   UNL     1      -1.554  11.375  17.990  0.00  0.00    +0.000 C 
ATOM     20  C   UNL     1      -2.297  11.775  19.256  0.00  0.00    +0.000 C 
ATOM     21  C   UNL     1      -1.398  12.245  20.393  0.00  0.00    +0.000 C 
ATOM     22  C   UNL     1      -0.504  11.132  20.928  0.00  0.00    +0.000 C 
ATOM     23  C   UNL     1       0.802  10.923  20.145  0.00  0.00    +0.000 C 
ENDBRANCH  16  17
ENDBRANCH  15  16
ENDBRANCH  14  15
ENDBRANCH   1  14
BRANCH   1  24
ATOM     24  C   UNL     1       1.617   5.352  18.022  0.00  0.00    +0.000 C 
BRANCH  24  25
ATOM     25  C   UNL     1       1.525   4.271  19.082  0.00  0.00    +0.000 A 
ATOM     26  C   UNL     1       1.201   4.346  20.426  0.00  0.00    +0.000 A 
ATOM     27  C   UNL     1       1.283   3.082  21.088  0.00  0.00    +0.000 A 
ATOM     28  C   UNL     1       1.665   2.075  20.230  0.00  0.00    +0.000 A 
ATOM     29  S   UNL     1       1.914   2.651  18.641  0.00  0.00    +0.000 S 
ENDBRANCH  24  25
ENDBRANCH   1  24
TORSDOF 10
ENDMDL
