MODEL 1
REMARK VINA RESULT:      -6.6      0.000      0.000
REMARK  Name = 
REMARK  11 active torsions:
REMARK  status: ('A' for Active; 'I' for Inactive)
REMARK    1  A    between atoms: C_1  and  O_2
REMARK    2  A    between atoms: O_2  and  C_3
REMARK    3  A    between atoms: C_7  and  O_8
REMARK    4  A    between atoms: O_8  and  C_9
REMARK    5  A    between atoms: C_9  and  C_10
REMARK    6  A    between atoms: C_10  and  O_11
REMARK    7  A    between atoms: O_11  and  C_12
REMARK    8  A    between atoms: C_12  and  C_13
REMARK    9  A    between atoms: C_13  and  C_14
REMARK   10  A    between atoms: C_14  and  N_15
REMARK   11  A    between atoms: C_18  and  C_19
REMARK                            x       y       z     vdW  Elec       q    Type
REMARK                         _______ _______ _______ _____ _____    ______ ____
ROOT
ATOM      1  C   UNL     1       7.318   4.441  16.931  0.00  0.00    +0.000 C 
ENDROOT
BRANCH   1   2
ATOM      2  C   UNL     1       7.074   5.812  16.308  0.00  0.00    +0.000 C 
BRANCH   2   3
ATOM      3  O   UNL     1       6.088   5.736  15.301  0.00  0.00    +0.000 OA
BRANCH   3   8
ATOM      4  C   UNL     1       5.928   3.287  12.487  0.00  0.00    +0.000 A 
ATOM      5  C   UNL     1       7.094   3.753  11.849  0.00  0.00    +0.000 A 
ATOM      6  C   UNL     1       7.846   4.807  12.339  0.00  0.00    +0.000 A 
ATOM      7  C   UNL     1       7.437   5.424  13.501  0.00  0.00    +0.000 A 
ATOM      8  C   UNL     1       6.281   4.993  14.171  0.00  0.00    +0.000 A 
ATOM      9  C   UNL     1       5.503   3.925  13.673  0.00  0.00    +0.000 A 
BRANCH   4  11
ATOM     10  C   UNL     1       6.127   1.252  11.064  0.00  0.00    +0.000 C 
ATOM     11  O   UNL     1       5.428   2.242  11.791  0.00  0.00    +0.000 OA
ENDBRANCH   4  11
ENDBRANCH   3   8
ENDBRANCH   2   3
ENDBRANCH   1   2
BRANCH   1  12
ATOM     12  O   UNL     1       7.206   4.449  18.356  0.00  0.00    +0.000 OA
BRANCH  12  13
ATOM     13  C   UNL     1       6.357   5.457  18.903  0.00  0.00    +0.000 C 
BRANCH  13  14
ATOM     14  C   UNL     1       4.963   4.960  19.292  0.00  0.00    +0.000 C 
BRANCH  14  15
ATOM     15  C   UNL     1       4.050   4.789  18.070  0.00  0.00    +0.000 C 
BRANCH  15  16
ATOM     16  N   UNL     1       2.772   5.512  18.192  0.00  0.00    +0.000 NA
ATOM     17  C   UNL     1       2.489   6.065  19.520  0.00  0.00    +0.000 C 
ATOM     18  C   UNL     1       2.153   5.025  20.591  0.00  0.00    +0.000 C 
ATOM     19  C   UNL     1       1.122   3.978  20.137  0.00  0.00    +0.000 C 
ATOM     20  C   UNL     1       1.134   2.774  21.081  0.00  0.00    +0.000 C 
ATOM     21  C   UNL     1       1.349   3.515  18.692  0.00  0.00    +0.000 C 
ATOM     22  C   UNL     1       1.637   4.686  17.753  0.00  0.00    +0.000 C 
ENDBRANCH  15  16
ENDBRANCH  14  15
ENDBRANCH  13  14
ENDBRANCH  12  13
ENDBRANCH   1  12
TORSDOF 9
ENDMDL
MODEL 2
REMARK VINA RESULT:      -6.6      5.026      7.332
REMARK  Name = 
REMARK  11 active torsions:
REMARK  status: ('A' for Active; 'I' for Inactive)
REMARK    1  A    between atoms: C_1  and  O_2
REMARK    2  A    between atoms: O_2  and  C_3
REMARK    3  A    between atoms: C_7  and  O_8
REMARK    4  A    between atoms: O_8  and  C_9
REMARK    5  A    between atoms: C_9  and  C_10
REMARK    6  A    between atoms: C_10  and  O_11
REMARK    7  A    between atoms: O_11  and  C_12
REMARK    8  A    between atoms: C_12  and  C_13
REMARK    9  A    between atoms: C_13  and  C_14
REMARK   10  A    between atoms: C_14  and  N_15
REMARK   11  A    between atoms: C_18  and  C_19
REMARK                            x       y       z     vdW  Elec       q    Type
REMARK                         _______ _______ _______ _____ _____    ______ ____
ROOT
ATOM      1  C   UNL     1       7.628   7.352  17.754  0.00  0.00    +0.000 C 
ENDROOT
BRANCH   1   2
ATOM      2  C   UNL     1       7.998   8.832  17.746  0.00  0.00    +0.000 C 
BRANCH   2   3
ATOM      3  O   UNL     1       8.768   9.161  18.882  0.00  0.00    +0.000 OA
BRANCH   3   8
ATOM      4  C   UNL     1      10.474  12.441  18.362  0.00  0.00    +0.000 A 
ATOM      5  C   UNL     1      10.580  12.746  19.733  0.00  0.00    +0.000 A 
ATOM      6  C   UNL     1      10.104  11.908  20.726  0.00  0.00    +0.000 A 
ATOM      7  C   UNL     1       9.502  10.724  20.356  0.00  0.00    +0.000 A 
ATOM      8  C   UNL     1       9.374  10.379  19.002  0.00  0.00    +0.000 A 
ATOM      9  C   UNL     1       9.849  11.233  17.982  0.00  0.00    +0.000 A 
BRANCH   4  11
ATOM     10  C   UNL     1      11.411  14.730  18.063  0.00  0.00    +0.000 C 
ATOM     11  O   UNL     1      11.044  13.432  17.641  0.00  0.00    +0.000 OA
ENDBRANCH   4  11
ENDBRANCH   3   8
ENDBRANCH   2   3
ENDBRANCH   1   2
BRANCH   1  12
ATOM     12  O   UNL     1       6.250   7.121  17.456  0.00  0.00    +0.000 OA
BRANCH  12  13
ATOM     13  C   UNL     1       5.936   5.823  16.952  0.00  0.00    +0.000 C 
BRANCH  13  14
ATOM     14  C   UNL     1       6.118   4.694  17.970  0.00  0.00    +0.000 C 
BRANCH  14  15
ATOM     15  C   UNL     1       4.886   4.525  18.869  0.00  0.00    +0.000 C 
BRANCH  15  16
ATOM     16  N   UNL     1       3.614   4.583  18.131  0.00  0.00    +0.000 NA
ATOM     17  C   UNL     1       2.580   5.434  18.729  0.00  0.00    +0.000 C 
ATOM     18  C   UNL     1       1.959   4.884  20.014  0.00  0.00    +0.000 C 
ATOM     19  C   UNL     1       1.548   3.405  19.921  0.00  0.00    +0.000 C 
ATOM     20  C   UNL     1       1.316   2.828  21.318  0.00  0.00    +0.000 C 
ATOM     21  C   UNL     1       2.577   2.554  19.166  0.00  0.00    +0.000 C 
ATOM     22  C   UNL     1       3.063   3.241  17.890  0.00  0.00    +0.000 C 
ENDBRANCH  15  16
ENDBRANCH  14  15
ENDBRANCH  13  14
ENDBRANCH  12  13
ENDBRANCH   1  12
TORSDOF 9
ENDMDL
MODEL 3
REMARK VINA RESULT:      -6.4      4.690      7.087
REMARK  Name = 
REMARK  11 active torsions:
REMARK  status: ('A' for Active; 'I' for Inactive)
REMARK    1  A    between atoms: C_1  and  O_2
REMARK    2  A    between atoms: O_2  and  C_3
REMARK    3  A    between atoms: C_7  and  O_8
REMARK    4  A    between atoms: O_8  and  C_9
REMARK    5  A    between atoms: C_9  and  C_10
REMARK    6  A    between atoms: C_10  and  O_11
REMARK    7  A    between atoms: O_11  and  C_12
REMARK    8  A    between atoms: C_12  and  C_13
REMARK    9  A    between atoms: C_13  and  C_14
REMARK   10  A    between atoms: C_14  and  N_15
REMARK   11  A    between atoms: C_18  and  C_19
REMARK                            x       y       z     vdW  Elec       q    Type
REMARK                         _______ _______ _______ _____ _____    ______ ____
ROOT
ATOM      1  C   UNL     1       7.507   6.711  17.330  0.00  0.00    +0.000 C 
ENDROOT
BRANCH   1   2
ATOM      2  C   UNL     1       8.019   7.813  18.252  0.00  0.00    +0.000 C 
BRANCH   2   3
ATOM      3  O   UNL     1       8.221   9.012  17.534  0.00  0.00    +0.000 OA
BRANCH   3   8
ATOM      4  C   UNL     1       9.116  12.501  18.514  0.00  0.00    +0.000 A 
ATOM      5  C   UNL     1       9.650  12.147  19.768  0.00  0.00    +0.000 A 
ATOM      6  C   UNL     1       9.686  10.841  20.224  0.00  0.00    +0.000 A 
ATOM      7  C   UNL     1       9.180   9.846  19.416  0.00  0.00    +0.000 A 
ATOM      8  C   UNL     1       8.637  10.153  18.158  0.00  0.00    +0.000 A 
ATOM      9  C   UNL     1       8.588  11.484  17.688  0.00  0.00    +0.000 A 
BRANCH   4  11
ATOM     10  C   UNL     1      10.385  14.574  17.966  0.00  0.00    +0.000 C 
ATOM     11  O   UNL     1       9.239  13.836  18.340  0.00  0.00    +0.000 OA
ENDBRANCH   4  11
ENDBRANCH   3   8
ENDBRANCH   2   3
ENDBRANCH   1   2
BRANCH   1  12
ATOM     12  O   UNL     1       6.319   7.080  16.627  0.00  0.00    +0.000 OA
BRANCH  12  13
ATOM     13  C   UNL     1       5.222   6.176  16.752  0.00  0.00    +0.000 C 
BRANCH  13  14
ATOM     14  C   UNL     1       5.631   4.716  16.958  0.00  0.00    +0.000 C 
BRANCH  14  15
ATOM     15  C   UNL     1       4.875   4.065  18.124  0.00  0.00    +0.000 C 
BRANCH  15  16
ATOM     16  N   UNL     1       4.002   2.956  17.704  0.00  0.00    +0.000 NA
ATOM     17  C   UNL     1       2.726   3.356  17.101  0.00  0.00    +0.000 C 
ATOM     18  C   UNL     1       1.714   3.956  18.077  0.00  0.00    +0.000 C 
ATOM     19  C   UNL     1       1.544   3.145  19.372  0.00  0.00    +0.000 C 
ATOM     20  C   UNL     1       0.844   3.985  20.441  0.00  0.00    +0.000 C 
ATOM     21  C   UNL     1       2.877   2.612  19.913  0.00  0.00    +0.000 C 
ATOM     22  C   UNL     1       3.748   2.016  18.807  0.00  0.00    +0.000 C 
ENDBRANCH  15  16
ENDBRANCH  14  15
ENDBRANCH  13  14
ENDBRANCH  12  13
ENDBRANCH   1  12
TORSDOF 9
ENDMDL
MODEL 4
REMARK VINA RESULT:      -6.3      5.126      7.609
REMARK  Name = 
REMARK  11 active torsions:
REMARK  status: ('A' for Active; 'I' for Inactive)
REMARK    1  A    between atoms: C_1  and  O_2
REMARK    2  A    between atoms: O_2  and  C_3
REMARK    3  A    between atoms: C_7  and  O_8
REMARK    4  A    between atoms: O_8  and  C_9
REMARK    5  A    between atoms: C_9  and  C_10
REMARK    6  A    between atoms: C_10  and  O_11
REMARK    7  A    between atoms: O_11  and  C_12
REMARK    8  A    between atoms: C_12  and  C_13
REMARK    9  A    between atoms: C_13  and  C_14
REMARK   10  A    between atoms: C_14  and  N_15
REMARK   11  A    between atoms: C_18  and  C_19
REMARK                            x       y       z     vdW  Elec       q    Type
REMARK                         _______ _______ _______ _____ _____    ______ ____
ROOT
ATOM      1  C   UNL     1       7.911   7.509  17.833  0.00  0.00    +0.000 C 
ENDROOT
BRANCH   1   2
ATOM      2  C   UNL     1       8.076   9.024  17.908  0.00  0.00    +0.000 C 
BRANCH   2   3
ATOM      3  O   UNL     1       8.892   9.385  19.001  0.00  0.00    +0.000 OA
BRANCH   3   8
ATOM      4  C   UNL     1       9.948  12.801  20.075  0.00  0.00    +0.000 A 
ATOM      5  C   UNL     1      10.593  13.120  18.864  0.00  0.00    +0.000 A 
ATOM      6  C   UNL     1      10.660  12.241  17.798  0.00  0.00    +0.000 A 
ATOM      7  C   UNL     1      10.068  11.002  17.926  0.00  0.00    +0.000 A 
ATOM      8  C   UNL     1       9.415  10.641  19.115  0.00  0.00    +0.000 A 
ATOM      9  C   UNL     1       9.350  11.529  20.212  0.00  0.00    +0.000 A 
BRANCH   4  11
ATOM     10  C   UNL     1       9.450  14.014  22.193  0.00  0.00    +0.000 C 
ATOM     11  O   UNL     1      10.029  13.859  20.914  0.00  0.00    +0.000 OA
ENDBRANCH   4  11
ENDBRANCH   3   8
ENDBRANCH   2   3
ENDBRANCH   1   2
BRANCH   1  12
ATOM     12  O   UNL     1       7.162   7.086  16.692  0.00  0.00    +0.000 OA
BRANCH  12  13
ATOM     13  C   UNL     1       5.981   6.336  16.972  0.00  0.00    +0.000 C 
BRANCH  13  14
ATOM     14  C   UNL     1       5.871   5.855  18.421  0.00  0.00    +0.000 C 
BRANCH  14  15
ATOM     15  C   UNL     1       4.652   4.949  18.636  0.00  0.00    +0.000 C 
BRANCH  15  16
ATOM     16  N   UNL     1       3.446   5.685  19.051  0.00  0.00    +0.000 NA
ATOM     17  C   UNL     1       2.840   5.239  20.310  0.00  0.00    +0.000 C 
ATOM     18  C   UNL     1       2.144   3.879  20.241  0.00  0.00    +0.000 C 
ATOM     19  C   UNL     1       1.211   3.719  19.030  0.00  0.00    +0.000 C 
ATOM     20  C   UNL     1       0.872   2.244  18.808  0.00  0.00    +0.000 C 
ATOM     21  C   UNL     1       1.802   4.321  17.748  0.00  0.00    +0.000 C 
ATOM     22  C   UNL     1       2.424   5.695  17.993  0.00  0.00    +0.000 C 
ENDBRANCH  15  16
ENDBRANCH  14  15
ENDBRANCH  13  14
ENDBRANCH  12  13
ENDBRANCH   1  12
TORSDOF 9
ENDMDL
MODEL 5
REMARK VINA RESULT:      -6.3      6.004      9.015
REMARK  Name = 
REMARK  11 active torsions:
REMARK  status: ('A' for Active; 'I' for Inactive)
REMARK    1  A    between atoms: C_1  and  O_2
REMARK    2  A    between atoms: O_2  and  C_3
REMARK    3  A    between atoms: C_7  and  O_8
REMARK    4  A    between atoms: O_8  and  C_9
REMARK    5  A    between atoms: C_9  and  C_10
REMARK    6  A    between atoms: C_10  and  O_11
REMARK    7  A    between atoms: O_11  and  C_12
REMARK    8  A    between atoms: C_12  and  C_13
REMARK    9  A    between atoms: C_13  and  C_14
REMARK   10  A    between atoms: C_14  and  N_15
REMARK   11  A    between atoms: C_18  and  C_19
REMARK                            x       y       z     vdW  Elec       q    Type
REMARK                         _______ _______ _______ _____ _____    ______ ____
ROOT
ATOM      1  C   UNL     1       1.523   9.146  18.280  0.00  0.00    +0.000 C 
ENDROOT
BRANCH   1   2
ATOM      2  C   UNL     1       0.698  10.428  18.240  0.00  0.00    +0.000 C 
BRANCH   2   3
ATOM      3  O   UNL     1      -0.555  10.236  18.862  0.00  0.00    +0.000 OA
BRANCH   3   8
ATOM      4  C   UNL     1      -3.908  11.491  17.802  0.00  0.00    +0.000 A 
ATOM      5  C   UNL     1      -3.924  10.789  16.580  0.00  0.00    +0.000 A 
ATOM      6  C   UNL     1      -2.881   9.978  16.169  0.00  0.00    +0.000 A 
ATOM      7  C   UNL     1      -1.782   9.850  16.990  0.00  0.00    +0.000 A 
ATOM      8  C   UNL     1      -1.722  10.531  18.216  0.00  0.00    +0.000 A 
ATOM      9  C   UNL     1      -2.778  11.368  18.640  0.00  0.00    +0.000 A 
BRANCH   4  11
ATOM     10  C   UNL     1      -6.390  11.687  17.879  0.00  0.00    +0.000 C 
ATOM     11  O   UNL     1      -5.065  12.176  17.936  0.00  0.00    +0.000 OA
ENDBRANCH   4  11
ENDBRANCH   3   8
ENDBRANCH   2   3
ENDBRANCH   1   2
BRANCH   1  12
ATOM     12  O   UNL     1       1.580   8.561  19.583  0.00  0.00    +0.000 OA
BRANCH  12  13
ATOM     13  C   UNL     1       2.275   7.318  19.671  0.00  0.00    +0.000 C 
BRANCH  13  14
ATOM     14  C   UNL     1       2.570   6.665  18.319  0.00  0.00    +0.000 C 
BRANCH  14  15
ATOM     15  C   UNL     1       3.491   5.446  18.455  0.00  0.00    +0.000 C 
BRANCH  15  16
ATOM     16  N   UNL     1       2.925   4.219  17.869  0.00  0.00    +0.000 NA
ATOM     17  C   UNL     1       1.480   4.046  18.051  0.00  0.00    +0.000 C 
ATOM     18  C   UNL     1       1.048   3.718  19.481  0.00  0.00    +0.000 C 
ATOM     19  C   UNL     1       1.880   2.606  20.142  0.00  0.00    +0.000 C 
ATOM     20  C   UNL     1       1.667   2.608  21.656  0.00  0.00    +0.000 C 
ATOM     21  C   UNL     1       3.377   2.721  19.822  0.00  0.00    +0.000 C 
ATOM     22  C   UNL     1       3.626   3.017  18.343  0.00  0.00    +0.000 C 
ENDBRANCH  15  16
ENDBRANCH  14  15
ENDBRANCH  13  14
ENDBRANCH  12  13
ENDBRANCH   1  12
TORSDOF 9
ENDMDL
MODEL 6
REMARK VINA RESULT:      -6.3      5.383      8.725
REMARK  Name = 
REMARK  11 active torsions:
REMARK  status: ('A' for Active; 'I' for Inactive)
REMARK    1  A    between atoms: C_1  and  O_2
REMARK    2  A    between atoms: O_2  and  C_3
REMARK    3  A    between atoms: C_7  and  O_8
REMARK    4  A    between atoms: O_8  and  C_9
REMARK    5  A    between atoms: C_9  and  C_10
REMARK    6  A    between atoms: C_10  and  O_11
REMARK    7  A    between atoms: O_11  and  C_12
REMARK    8  A    between atoms: C_12  and  C_13
REMARK    9  A    between atoms: C_13  and  C_14
REMARK   10  A    between atoms: C_14  and  N_15
REMARK   11  A    between atoms: C_18  and  C_19
REMARK                            x       y       z     vdW  Elec       q    Type
REMARK                         _______ _______ _______ _____ _____    ______ ____
ROOT
ATOM      1  C   UNL     1       7.200   6.215  17.041  0.00  0.00    +0.000 C 
ENDROOT
BRANCH   1   2
ATOM      2  C   UNL     1       5.921   6.187  17.872  0.00  0.00    +0.000 C 
BRANCH   2   3
ATOM      3  O   UNL     1       4.955   5.350  17.274  0.00  0.00    +0.000 OA
BRANCH   3   8
ATOM      4  C   UNL     1       2.695   4.057  19.951  0.00  0.00    +0.000 A 
ATOM      5  C   UNL     1       1.817   3.400  19.068  0.00  0.00    +0.000 A 
ATOM      6  C   UNL     1       1.987   3.414  17.694  0.00  0.00    +0.000 A 
ATOM      7  C   UNL     1       3.064   4.097  17.170  0.00  0.00    +0.000 A 
ATOM      8  C   UNL     1       3.965   4.766  18.013  0.00  0.00    +0.000 A 
ATOM      9  C   UNL     1       3.793   4.765  19.415  0.00  0.00    +0.000 A 
BRANCH   4  11
ATOM     10  C   UNL     1       1.637   2.716  21.764  0.00  0.00    +0.000 C 
ATOM     11  O   UNL     1       2.285   3.849  21.222  0.00  0.00    +0.000 OA
ENDBRANCH   4  11
ENDBRANCH   3   8
ENDBRANCH   2   3
ENDBRANCH   1   2
BRANCH   1  12
ATOM     12  O   UNL     1       7.679   7.540  16.800  0.00  0.00    +0.000 OA
BRANCH  12  13
ATOM     13  C   UNL     1       8.023   8.292  17.962  0.00  0.00    +0.000 C 
BRANCH  13  14
ATOM     14  C   UNL     1       8.387   9.752  17.680  0.00  0.00    +0.000 C 
BRANCH  14  15
ATOM     15  C   UNL     1       9.433  10.287  18.667  0.00  0.00    +0.000 C 
BRANCH  15  16
ATOM     16  N   UNL     1      10.274  11.355  18.102  0.00  0.00    +0.000 NA
ATOM     17  C   UNL     1      11.520  11.623  18.828  0.00  0.00    +0.000 C 
ATOM     18  C   UNL     1      11.339  12.304  20.185  0.00  0.00    +0.000 C 
ATOM     19  C   UNL     1      10.386  13.510  20.152  0.00  0.00    +0.000 C 
ATOM     20  C   UNL     1       9.949  13.884  21.569  0.00  0.00    +0.000 C 
ATOM     21  C   UNL     1       9.155  13.264  19.271  0.00  0.00    +0.000 C 
ATOM     22  C   UNL     1       9.524  12.610  17.939  0.00  0.00    +0.000 C 
ENDBRANCH  15  16
ENDBRANCH  14  15
ENDBRANCH  13  14
ENDBRANCH  12  13
ENDBRANCH   1  12
TORSDOF 9
ENDMDL
MODEL 7
REMARK VINA RESULT:      -6.3      3.167      6.745
REMARK  Name = 
REMARK  11 active torsions:
REMARK  status: ('A' for Active; 'I' for Inactive)
REMARK    1  A    between atoms: C_1  and  O_2
REMARK    2  A    between atoms: O_2  and  C_3
REMARK    3  A    between atoms: C_7  and  O_8
REMARK    4  A    between atoms: O_8  and  C_9
REMARK    5  A    between atoms: C_9  and  C_10
REMARK    6  A    between atoms: C_10  and  O_11
REMARK    7  A    between atoms: O_11  and  C_12
REMARK    8  A    between atoms: C_12  and  C_13
REMARK    9  A    between atoms: C_13  and  C_14
REMARK   10  A    between atoms: C_14  and  N_15
REMARK   11  A    between atoms: C_18  and  C_19
REMARK                            x       y       z     vdW  Elec       q    Type
REMARK                         _______ _______ _______ _____ _____    ______ ____
ROOT
ATOM      1  C   UNL     1       5.172   6.473  16.097  0.00  0.00    +0.000 C 
ENDROOT
BRANCH   1   2
ATOM      2  C   UNL     1       4.631   7.324  17.241  0.00  0.00    +0.000 C 
BRANCH   2   3
ATOM      3  O   UNL     1       3.311   6.944  17.565  0.00  0.00    +0.000 OA
BRANCH   3   8
ATOM      4  C   UNL     1       1.355   8.324  20.431  0.00  0.00    +0.000 A 
ATOM      5  C   UNL     1       0.926   9.477  19.746  0.00  0.00    +0.000 A 
ATOM      6  C   UNL     1       1.285   9.748  18.437  0.00  0.00    +0.000 A 
ATOM      7  C   UNL     1       2.094   8.850  17.776  0.00  0.00    +0.000 A 
ATOM      8  C   UNL     1       2.546   7.686  18.419  0.00  0.00    +0.000 A 
ATOM      9  C   UNL     1       2.192   7.407  19.758  0.00  0.00    +0.000 A 
BRANCH   4  11
ATOM     10  C   UNL     1       0.669   9.412  22.563  0.00  0.00    +0.000 C 
ATOM     11  O   UNL     1       0.830   8.325  21.676  0.00  0.00    +0.000 OA
ENDBRANCH   4  11
ENDBRANCH   3   8
ENDBRANCH   2   3
ENDBRANCH   1   2
BRANCH   1  12
ATOM     12  O   UNL     1       6.222   5.594  16.505  0.00  0.00    +0.000 OA
BRANCH  12  13
ATOM     13  C   UNL     1       5.806   4.395  17.157  0.00  0.00    +0.000 C 
BRANCH  13  14
ATOM     14  C   UNL     1       4.571   3.739  16.534  0.00  0.00    +0.000 C 
BRANCH  14  15
ATOM     15  C   UNL     1       3.347   3.822  17.455  0.00  0.00    +0.000 C 
BRANCH  15  16
ATOM     16  N   UNL     1       2.757   2.507  17.760  0.00  0.00    +0.000 NA
ATOM     17  C   UNL     1       1.362   2.534  18.209  0.00  0.00    +0.000 C 
ATOM     18  C   UNL     1       1.150   3.100  19.614  0.00  0.00    +0.000 C 
ATOM     19  C   UNL     1       2.114   2.527  20.666  0.00  0.00    +0.000 C 
ATOM     20  C   UNL     1       2.117   3.401  21.920  0.00  0.00    +0.000 C 
ATOM     21  C   UNL     1       3.544   2.371  20.131  0.00  0.00    +0.000 C 
ATOM     22  C   UNL     1       3.569   1.759  18.731  0.00  0.00    +0.000 C 
ENDBRANCH  15  16
ENDBRANCH  14  15
ENDBRANCH  13  14
ENDBRANCH  12  13
ENDBRANCH   1  12
TORSDOF 9
ENDMDL
MODEL 8
REMARK VINA RESULT:      -6.2      5.227      8.527
REMARK  Name = 
REMARK  11 active torsions:
REMARK  status: ('A' for Active; 'I' for Inactive)
REMARK    1  A    between atoms: C_1  and  O_2
REMARK    2  A    between atoms: O_2  and  C_3
REMARK    3  A    between atoms: C_7  and  O_8
REMARK    4  A    between atoms: O_8  and  C_9
REMARK    5  A    between atoms: C_9  and  C_10
REMARK    6  A    between atoms: C_10  and  O_11
REMARK    7  A    between atoms: O_11  and  C_12
REMARK    8  A    between atoms: C_12  and  C_13
REMARK    9  A    between atoms: C_13  and  C_14
REMARK   10  A    between atoms: C_14  and  N_15
REMARK   11  A    between atoms: C_18  and  C_19
REMARK                            x       y       z     vdW  Elec       q    Type
REMARK                         _______ _______ _______ _____ _____    ______ ____
ROOT
ATOM      1  C   UNL     1       7.771   6.307  18.273  0.00  0.00    +0.000 C 
ENDROOT
BRANCH   1   2
ATOM      2  C   UNL     1       7.394   4.851  18.020  0.00  0.00    +0.000 C 
BRANCH   2   3
ATOM      3  O   UNL     1       6.155   4.764  17.349  0.00  0.00    +0.000 OA
BRANCH   3   8
ATOM      4  C   UNL     1       3.444   3.681  19.677  0.00  0.00    +0.000 A 
ATOM      5  C   UNL     1       2.431   4.432  19.049  0.00  0.00    +0.000 A 
ATOM      6  C   UNL     1       2.668   5.231  17.945  0.00  0.00    +0.000 A 
ATOM      7  C   UNL     1       3.948   5.294  17.438  0.00  0.00    +0.000 A 
ATOM      8  C   UNL     1       4.989   4.563  18.032  0.00  0.00    +0.000 A 
ATOM      9  C   UNL     1       4.758   3.751  19.165  0.00  0.00    +0.000 A 
BRANCH   4  11
ATOM     10  C   UNL     1       1.547   2.749  20.995  0.00  0.00    +0.000 C 
ATOM     11  O   UNL     1       2.910   2.988  20.707  0.00  0.00    +0.000 OA
ENDBRANCH   4  11
ENDBRANCH   3   8
ENDBRANCH   2   3
ENDBRANCH   1   2
BRANCH   1  12
ATOM     12  O   UNL     1       7.423   7.169  17.187  0.00  0.00    +0.000 OA
BRANCH  12  13
ATOM     13  C   UNL     1       7.552   8.567  17.442  0.00  0.00    +0.000 C 
BRANCH  13  14
ATOM     14  C   UNL     1       8.652   8.923  18.446  0.00  0.00    +0.000 C 
BRANCH  14  15
ATOM     15  C   UNL     1       8.763  10.438  18.665  0.00  0.00    +0.000 C 
BRANCH  15  16
ATOM     16  N   UNL     1      10.113  10.870  19.064  0.00  0.00    +0.000 NA
ATOM     17  C   UNL     1      10.167  11.772  20.219  0.00  0.00    +0.000 C 
ATOM     18  C   UNL     1       9.651  13.187  19.953  0.00  0.00    +0.000 C 
ATOM     19  C   UNL     1      10.204  13.818  18.665  0.00  0.00    +0.000 C 
ATOM     20  C   UNL     1       9.364  15.031  18.262  0.00  0.00    +0.000 C 
ATOM     21  C   UNL     1      10.275  12.819  17.503  0.00  0.00    +0.000 C 
ATOM     22  C   UNL     1      10.846  11.470  17.940  0.00  0.00    +0.000 C 
ENDBRANCH  15  16
ENDBRANCH  14  15
ENDBRANCH  13  14
ENDBRANCH  12  13
ENDBRANCH   1  12
TORSDOF 9
ENDMDL
MODEL 9
REMARK VINA RESULT:      -6.2      5.543      7.658
REMARK  Name = 
REMARK  11 active torsions:
REMARK  status: ('A' for Active; 'I' for Inactive)
REMARK    1  A    between atoms: C_1  and  O_2
REMARK    2  A    between atoms: O_2  and  C_3
REMARK    3  A    between atoms: C_7  and  O_8
REMARK    4  A    between atoms: O_8  and  C_9
REMARK    5  A    between atoms: C_9  and  C_10
REMARK    6  A    between atoms: C_10  and  O_11
REMARK    7  A    between atoms: O_11  and  C_12
REMARK    8  A    between atoms: C_12  and  C_13
REMARK    9  A    between atoms: C_13  and  C_14
REMARK   10  A    between atoms: C_14  and  N_15
REMARK   11  A    between atoms: C_18  and  C_19
REMARK                            x       y       z     vdW  Elec       q    Type
REMARK                         _______ _______ _______ _____ _____    ______ ____
ROOT
ATOM      1  C   UNL     1       7.982   8.132  17.786  0.00  0.00    +0.000 C 
ENDROOT
BRANCH   1   2
ATOM      2  C   UNL     1       7.926   9.657  17.774  0.00  0.00    +0.000 C 
BRANCH   2   3
ATOM      3  O   UNL     1       9.005  10.202  18.502  0.00  0.00    +0.000 OA
BRANCH   3   8
ATOM      4  C   UNL     1       9.542  13.852  17.929  0.00  0.00    +0.000 A 
ATOM      5  C   UNL     1      10.882  13.720  17.518  0.00  0.00    +0.000 A 
ATOM      6  C   UNL     1      11.529  12.498  17.457  0.00  0.00    +0.000 A 
ATOM      7  C   UNL     1      10.830  11.363  17.810  0.00  0.00    +0.000 A 
ATOM      8  C   UNL     1       9.492  11.448  18.225  0.00  0.00    +0.000 A 
ATOM      9  C   UNL     1       8.827  12.692  18.300  0.00  0.00    +0.000 A 
BRANCH   4  11
ATOM     10  C   UNL     1       9.928  16.292  18.255  0.00  0.00    +0.000 C 
ATOM     11  O   UNL     1       9.185  15.155  17.866  0.00  0.00    +0.000 OA
ENDBRANCH   4  11
ENDBRANCH   3   8
ENDBRANCH   2   3
ENDBRANCH   1   2
BRANCH   1  12
ATOM     12  O   UNL     1       6.742   7.527  17.415  0.00  0.00    +0.000 OA
BRANCH  12  13
ATOM     13  C   UNL     1       6.826   6.182  16.948  0.00  0.00    +0.000 C 
BRANCH  13  14
ATOM     14  C   UNL     1       5.665   5.756  16.047  0.00  0.00    +0.000 C 
BRANCH  14  15
ATOM     15  C   UNL     1       4.713   4.782  16.755  0.00  0.00    +0.000 C 
BRANCH  15  16
ATOM     16  N   UNL     1       4.587   5.038  18.199  0.00  0.00    +0.000 NA
ATOM     17  C   UNL     1       4.708   3.857  19.059  0.00  0.00    +0.000 C 
ATOM     18  C   UNL     1       3.524   2.891  18.995  0.00  0.00    +0.000 C 
ATOM     19  C   UNL     1       2.154   3.581  19.102  0.00  0.00    +0.000 C 
ATOM     20  C   UNL     1       1.043   2.636  18.640  0.00  0.00    +0.000 C 
ATOM     21  C   UNL     1       2.091   4.893  18.309  0.00  0.00    +0.000 C 
ATOM     22  C   UNL     1       3.339   5.750  18.518  0.00  0.00    +0.000 C 
ENDBRANCH  15  16
ENDBRANCH  14  15
ENDBRANCH  13  14
ENDBRANCH  12  13
ENDBRANCH   1  12
TORSDOF 9
ENDMDL
