MODEL 1
REMARK VINA RESULT:      -8.0      0.000      0.000
REMARK  Name = 
REMARK  8 active torsions:
REMARK  status: ('A' for Active; 'I' for Inactive)
REMARK    1  A    between atoms: C_1  and  C_2
REMARK    2  A    between atoms: C_2  and  O_3
REMARK    3  A    between atoms: O_3  and  C_4
REMARK    4  A    between atoms: C_4  and  C_6
REMARK    5  A    between atoms: C_10  and  C_11
REMARK    6  A    between atoms: N_14  and  C_15
REMARK    7  A    between atoms: C_15  and  C_16
REMARK    8  A    between atoms: C_19  and  C_20
REMARK                            x       y       z     vdW  Elec       q    Type
REMARK                         _______ _______ _______ _____ _____    ______ ____
ROOT
ATOM      1  C   UNL     1       5.081   4.819  17.155  0.00  0.00    +0.000 A 
ATOM      2  O   UNL     1       4.472   4.073  18.154  0.00  0.00    +0.000 OA
ATOM      3  C   UNL     1       3.560   4.901  18.730  0.00  0.00    +0.000 A 
ATOM      4  C   UNL     1       3.565   6.130  18.116  0.00  0.00    +0.000 A 
ATOM      5  C   UNL     1       4.525   6.095  17.099  0.00  0.00    +0.000 A 
ATOM      6  C   UNL     1       4.904   7.170  16.143  0.00  0.00    +0.000 C 
ATOM      7  C   UNL     1       2.690   7.171  18.608  0.00  0.00    +0.000 A 
ATOM      8  N   UNL     1       2.434   8.358  18.068  0.00  0.00    +0.000 NA
ATOM      9  N   UNL     1       1.578   8.918  18.955  0.00  0.00    +0.000 N 
ATOM     10  C   UNL     1       1.304   8.108  20.036  0.00  0.00    +0.000 A 
ATOM     11  C   UNL     1       2.035   6.953  19.843  0.00  0.00    +0.000 A 
ATOM     12  C   UNL     1       2.251   5.728  20.692  0.00  0.00    +0.000 C 
ATOM     13  C   UNL     1       2.685   4.477  19.863  0.00  0.00    +0.000 C 
ENDROOT
BRANCH   1  14
ATOM     14  C   UNL     1       6.118   4.266  16.315  0.00  0.00    +0.000 C 
ATOM     15  O   UNL     1       5.932   3.368  15.506  0.00  0.00    +0.000 OA
BRANCH  14  16
ATOM     16  O   UNL     1       7.344   4.790  16.599  0.00  0.00    +0.000 OA
BRANCH  16  18
ATOM     17  C   UNL     1       7.857   6.049  18.554  0.00  0.00    +0.000 C 
ATOM     18  C   UNL     1       7.717   4.652  17.978  0.00  0.00    +0.000 C 
ENDBRANCH  16  18
ENDBRANCH  14  16
ENDBRANCH   1  14
BRANCH   9  19
ATOM     19  C   UNL     1       1.199  10.318  18.793  0.00  0.00    +0.000 C 
BRANCH  19  20
ATOM     20  C   UNL     1      -0.276  10.508  18.539  0.00  0.00    +0.000 A 
ATOM     21  C   UNL     1      -0.991  11.496  19.232  0.00  0.00    +0.000 A 
ATOM     22  C   UNL     1      -2.344  11.716  18.968  0.00  0.00    +0.000 A 
ATOM     23  C   UNL     1      -3.012  10.955  18.003  0.00  0.00    +0.000 A 
ATOM     24  C   UNL     1      -4.467  11.180  17.712  0.00  0.00    +0.000 C 
ATOM     25  C   UNL     1      -2.301   9.975  17.301  0.00  0.00    +0.000 A 
ATOM     26  C   UNL     1      -0.947   9.751  17.566  0.00  0.00    +0.000 A 
ENDBRANCH  19  20
ENDBRANCH   9  19
TORSDOF 5
ENDMDL
MODEL 2
REMARK VINA RESULT:      -7.9      0.796      1.844
REMARK  Name = 
REMARK  8 active torsions:
REMARK  status: ('A' for Active; 'I' for Inactive)
REMARK    1  A    between atoms: C_1  and  C_2
REMARK    2  A    between atoms: C_2  and  O_3
REMARK    3  A    between atoms: O_3  and  C_4
REMARK    4  A    between atoms: C_4  and  C_6
REMARK    5  A    between atoms: C_10  and  C_11
REMARK    6  A    between atoms: N_14  and  C_15
REMARK    7  A    between atoms: C_15  and  C_16
REMARK    8  A    between atoms: C_19  and  C_20
REMARK                            x       y       z     vdW  Elec       q    Type
REMARK                         _______ _______ _______ _____ _____    ______ ____
ROOT
ATOM      1  C   UNL     1       5.370   4.783  17.415  0.00  0.00    +0.000 A 
ATOM      2  O   UNL     1       4.637   4.007  18.300  0.00  0.00    +0.000 OA
ATOM      3  C   UNL     1       3.668   4.824  18.792  0.00  0.00    +0.000 A 
ATOM      4  C   UNL     1       3.758   6.076  18.235  0.00  0.00    +0.000 A 
ATOM      5  C   UNL     1       4.837   6.069  17.342  0.00  0.00    +0.000 A 
ATOM      6  C   UNL     1       5.340   7.176  16.486  0.00  0.00    +0.000 C 
ATOM      7  C   UNL     1       2.839   7.109  18.657  0.00  0.00    +0.000 A 
ATOM      8  N   UNL     1       2.661   8.320  18.139  0.00  0.00    +0.000 NA
ATOM      9  N   UNL     1       1.707   8.855  18.936  0.00  0.00    +0.000 N 
ATOM     10  C   UNL     1       1.294   8.007  19.940  0.00  0.00    +0.000 A 
ATOM     11  C   UNL     1       2.034   6.851  19.792  0.00  0.00    +0.000 A 
ATOM     12  C   UNL     1       2.133   5.590  20.611  0.00  0.00    +0.000 C 
ATOM     13  C   UNL     1       2.655   4.367  19.790  0.00  0.00    +0.000 C 
ENDROOT
BRANCH   1  14
ATOM     14  C   UNL     1       6.499   4.251  16.686  0.00  0.00    +0.000 C 
ATOM     15  O   UNL     1       7.663   4.404  17.028  0.00  0.00    +0.000 OA
BRANCH  14  16
ATOM     16  O   UNL     1       6.122   3.648  15.523  0.00  0.00    +0.000 OA
BRANCH  16  18
ATOM     17  C   UNL     1       5.875   3.694  13.155  0.00  0.00    +0.000 C 
ATOM     18  C   UNL     1       6.512   4.379  14.350  0.00  0.00    +0.000 C 
ENDBRANCH  16  18
ENDBRANCH  14  16
ENDBRANCH   1  14
BRANCH   9  19
ATOM     19  C   UNL     1       1.363  10.265  18.786  0.00  0.00    +0.000 C 
BRANCH  19  20
ATOM     20  C   UNL     1      -0.104  10.493  18.513  0.00  0.00    +0.000 A 
ATOM     21  C   UNL     1      -0.760   9.754  17.518  0.00  0.00    +0.000 A 
ATOM     22  C   UNL     1      -2.128   9.919  17.291  0.00  0.00    +0.000 A 
ATOM     23  C   UNL     1      -2.871  10.822  18.058  0.00  0.00    +0.000 A 
ATOM     24  C   UNL     1      -4.340  11.010  17.823  0.00  0.00    +0.000 C 
ATOM     25  C   UNL     1      -2.223  11.554  19.060  0.00  0.00    +0.000 A 
ATOM     26  C   UNL     1      -0.853  11.393  19.286  0.00  0.00    +0.000 A 
ENDBRANCH  19  20
ENDBRANCH   9  19
TORSDOF 5
ENDMDL
MODEL 3
REMARK VINA RESULT:      -7.9      1.709      2.931
REMARK  Name = 
REMARK  8 active torsions:
REMARK  status: ('A' for Active; 'I' for Inactive)
REMARK    1  A    between atoms: C_1  and  C_2
REMARK    2  A    between atoms: C_2  and  O_3
REMARK    3  A    between atoms: O_3  and  C_4
REMARK    4  A    between atoms: C_4  and  C_6
REMARK    5  A    between atoms: C_10  and  C_11
REMARK    6  A    between atoms: N_14  and  C_15
REMARK    7  A    between atoms: C_15  and  C_16
REMARK    8  A    between atoms: C_19  and  C_20
REMARK                            x       y       z     vdW  Elec       q    Type
REMARK                         _______ _______ _______ _____ _____    ______ ____
ROOT
ATOM      1  C   UNL     1       5.462   4.554  16.331  0.00  0.00    +0.000 A 
ATOM      2  O   UNL     1       4.679   3.418  16.479  0.00  0.00    +0.000 OA
ATOM      3  C   UNL     1       3.735   3.738  17.404  0.00  0.00    +0.000 A 
ATOM      4  C   UNL     1       3.889   5.035  17.827  0.00  0.00    +0.000 A 
ATOM      5  C   UNL     1       4.983   5.579  17.145  0.00  0.00    +0.000 A 
ATOM      6  C   UNL     1       5.550   6.951  17.243  0.00  0.00    +0.000 C 
ATOM      7  C   UNL     1       3.005   5.559  18.844  0.00  0.00    +0.000 A 
ATOM      8  N   UNL     1       2.889   6.812  19.272  0.00  0.00    +0.000 NA
ATOM      9  N   UNL     1       1.942   6.719  20.235  0.00  0.00    +0.000 N 
ATOM     10  C   UNL     1       1.474   5.435  20.419  0.00  0.00    +0.000 A 
ATOM     11  C   UNL     1       2.168   4.644  19.525  0.00  0.00    +0.000 A 
ATOM     12  C   UNL     1       2.198   3.157  19.288  0.00  0.00    +0.000 C 
ATOM     13  C   UNL     1       2.685   2.776  17.853  0.00  0.00    +0.000 C 
ENDROOT
BRANCH   1  14
ATOM     14  C   UNL     1       6.581   4.596  15.419  0.00  0.00    +0.000 C 
ATOM     15  O   UNL     1       7.750   4.553  15.774  0.00  0.00    +0.000 OA
BRANCH  14  16
ATOM     16  O   UNL     1       6.186   4.792  14.129  0.00  0.00    +0.000 OA
BRANCH  16  18
ATOM     17  C   UNL     1       5.165   3.554  12.370  0.00  0.00    +0.000 C 
ATOM     18  C   UNL     1       6.364   3.636  13.297  0.00  0.00    +0.000 C 
ENDBRANCH  16  18
ENDBRANCH  14  16
ENDBRANCH   1  14
BRANCH   9  19
ATOM     19  C   UNL     1       1.660   7.880  21.072  0.00  0.00    +0.000 C 
BRANCH  19  20
ATOM     20  C   UNL     1       0.918   8.972  20.342  0.00  0.00    +0.000 A 
ATOM     21  C   UNL     1       1.168   9.210  18.982  0.00  0.00    +0.000 A 
ATOM     22  C   UNL     1       0.451  10.182  18.283  0.00  0.00    +0.000 A 
ATOM     23  C   UNL     1      -0.535  10.936  18.927  0.00  0.00    +0.000 A 
ATOM     24  C   UNL     1      -1.311  11.986  18.187  0.00  0.00    +0.000 C 
ATOM     25  C   UNL     1      -0.797  10.696  20.280  0.00  0.00    +0.000 A 
ATOM     26  C   UNL     1      -0.078   9.725  20.983  0.00  0.00    +0.000 A 
ENDBRANCH  19  20
ENDBRANCH   9  19
TORSDOF 5
ENDMDL
MODEL 4
REMARK VINA RESULT:      -7.9      1.690      2.739
REMARK  Name = 
REMARK  8 active torsions:
REMARK  status: ('A' for Active; 'I' for Inactive)
REMARK    1  A    between atoms: C_1  and  C_2
REMARK    2  A    between atoms: C_2  and  O_3
REMARK    3  A    between atoms: O_3  and  C_4
REMARK    4  A    between atoms: C_4  and  C_6
REMARK    5  A    between atoms: C_10  and  C_11
REMARK    6  A    between atoms: N_14  and  C_15
REMARK    7  A    between atoms: C_15  and  C_16
REMARK    8  A    between atoms: C_19  and  C_20
REMARK                            x       y       z     vdW  Elec       q    Type
REMARK                         _______ _______ _______ _____ _____    ______ ____
ROOT
ATOM      1  C   UNL     1       5.529   4.600  16.472  0.00  0.00    +0.000 A 
ATOM      2  O   UNL     1       4.728   3.474  16.598  0.00  0.00    +0.000 OA
ATOM      3  C   UNL     1       3.760   3.808  17.492  0.00  0.00    +0.000 A 
ATOM      4  C   UNL     1       3.915   5.104  17.916  0.00  0.00    +0.000 A 
ATOM      5  C   UNL     1       5.037   5.634  17.268  0.00  0.00    +0.000 A 
ATOM      6  C   UNL     1       5.616   6.999  17.379  0.00  0.00    +0.000 C 
ATOM      7  C   UNL     1       3.007   5.642  18.904  0.00  0.00    +0.000 A 
ATOM      8  N   UNL     1       2.892   6.898  19.325  0.00  0.00    +0.000 NA
ATOM      9  N   UNL     1       1.914   6.818  20.258  0.00  0.00    +0.000 N 
ATOM     10  C   UNL     1       1.426   5.541  20.430  0.00  0.00    +0.000 A 
ATOM     11  C   UNL     1       2.138   4.739  19.561  0.00  0.00    +0.000 A 
ATOM     12  C   UNL     1       2.158   3.251  19.329  0.00  0.00    +0.000 C 
ATOM     13  C   UNL     1       2.685   2.860  17.911  0.00  0.00    +0.000 C 
ENDROOT
BRANCH   1  14
ATOM     14  C   UNL     1       6.676   4.627  15.595  0.00  0.00    +0.000 C 
ATOM     15  O   UNL     1       7.832   4.529  15.984  0.00  0.00    +0.000 OA
BRANCH  14  16
ATOM     16  O   UNL     1       6.329   4.874  14.301  0.00  0.00    +0.000 OA
BRANCH  16  18
ATOM     17  C   UNL     1       6.859   3.943  12.174  0.00  0.00    +0.000 C 
ATOM     18  C   UNL     1       6.188   3.683  13.511  0.00  0.00    +0.000 C 
ENDBRANCH  16  18
ENDBRANCH  14  16
ENDBRANCH   1  14
BRANCH   9  19
ATOM     19  C   UNL     1       1.620   7.986  21.082  0.00  0.00    +0.000 C 
BRANCH  19  20
ATOM     20  C   UNL     1       0.854   9.056  20.344  0.00  0.00    +0.000 A 
ATOM     21  C   UNL     1      -0.153   9.782  20.998  0.00  0.00    +0.000 A 
ATOM     22  C   UNL     1      -0.833  10.809  20.342  0.00  0.00    +0.000 A 
ATOM     23  C   UNL     1      -0.520  11.136  19.018  0.00  0.00    +0.000 A 
ATOM     24  C   UNL     1      -1.246  12.236  18.301  0.00  0.00    +0.000 C 
ATOM     25  C   UNL     1       0.490  10.421  18.365  0.00  0.00    +0.000 A 
ATOM     26  C   UNL     1       1.171   9.391  19.019  0.00  0.00    +0.000 A 
ENDBRANCH  19  20
ENDBRANCH   9  19
TORSDOF 5
ENDMDL
MODEL 5
REMARK VINA RESULT:      -7.8      0.762      1.473
REMARK  Name = 
REMARK  8 active torsions:
REMARK  status: ('A' for Active; 'I' for Inactive)
REMARK    1  A    between atoms: C_1  and  C_2
REMARK    2  A    between atoms: C_2  and  O_3
REMARK    3  A    between atoms: O_3  and  C_4
REMARK    4  A    between atoms: C_4  and  C_6
REMARK    5  A    between atoms: C_10  and  C_11
REMARK    6  A    between atoms: N_14  and  C_15
REMARK    7  A    between atoms: C_15  and  C_16
REMARK    8  A    between atoms: C_19  and  C_20
REMARK                            x       y       z     vdW  Elec       q    Type
REMARK                         _______ _______ _______ _____ _____    ______ ____
ROOT
ATOM      1  C   UNL     1       5.275   4.766  17.473  0.00  0.00    +0.000 A 
ATOM      2  O   UNL     1       4.580   3.954  18.358  0.00  0.00    +0.000 OA
ATOM      3  C   UNL     1       3.616   4.742  18.904  0.00  0.00    +0.000 A 
ATOM      4  C   UNL     1       3.672   6.011  18.382  0.00  0.00    +0.000 A 
ATOM      5  C   UNL     1       4.722   6.045  17.457  0.00  0.00    +0.000 A 
ATOM      6  C   UNL     1       5.183   7.184  16.619  0.00  0.00    +0.000 C 
ATOM      7  C   UNL     1       2.753   7.018  18.864  0.00  0.00    +0.000 A 
ATOM      8  N   UNL     1       2.543   8.241  18.389  0.00  0.00    +0.000 NA
ATOM      9  N   UNL     1       1.608   8.739  19.230  0.00  0.00    +0.000 N 
ATOM     10  C   UNL     1       1.238   7.855  20.222  0.00  0.00    +0.000 A 
ATOM     11  C   UNL     1       1.988   6.715  20.015  0.00  0.00    +0.000 A 
ATOM     12  C   UNL     1       2.130   5.432  20.792  0.00  0.00    +0.000 C 
ATOM     13  C   UNL     1       2.642   4.241  19.919  0.00  0.00    +0.000 C 
ENDROOT
BRANCH   1  14
ATOM     14  C   UNL     1       6.386   4.272  16.695  0.00  0.00    +0.000 C 
ATOM     15  O   UNL     1       7.552   4.578  16.902  0.00  0.00    +0.000 OA
BRANCH  14  16
ATOM     16  O   UNL     1       5.978   3.508  15.642  0.00  0.00    +0.000 OA
BRANCH  16  18
ATOM     17  C   UNL     1       6.909   4.537  13.706  0.00  0.00    +0.000 C 
ATOM     18  C   UNL     1       5.629   4.278  14.481  0.00  0.00    +0.000 C 
ENDBRANCH  16  18
ENDBRANCH  14  16
ENDBRANCH   1  14
BRANCH   9  19
ATOM     19  C   UNL     1       1.240  10.148  19.134  0.00  0.00    +0.000 C 
BRANCH  19  20
ATOM     20  C   UNL     1      -0.183  10.360  18.681  0.00  0.00    +0.000 A 
ATOM     21  C   UNL     1      -0.991  11.315  19.315  0.00  0.00    +0.000 A 
ATOM     22  C   UNL     1      -2.293  11.557  18.872  0.00  0.00    +0.000 A 
ATOM     23  C   UNL     1      -2.814  10.853  17.782  0.00  0.00    +0.000 A 
ATOM     24  C   UNL     1      -4.212  11.102  17.298  0.00  0.00    +0.000 C 
ATOM     25  C   UNL     1      -2.009   9.906  17.139  0.00  0.00    +0.000 A 
ATOM     26  C   UNL     1      -0.706   9.660  17.583  0.00  0.00    +0.000 A 
ENDBRANCH  19  20
ENDBRANCH   9  19
TORSDOF 5
ENDMDL
MODEL 6
REMARK VINA RESULT:      -7.7      4.388      9.192
REMARK  Name = 
REMARK  8 active torsions:
REMARK  status: ('A' for Active; 'I' for Inactive)
REMARK    1  A    between atoms: C_1  and  C_2
REMARK    2  A    between atoms: C_2  and  O_3
REMARK    3  A    between atoms: O_3  and  C_4
REMARK    4  A    between atoms: C_4  and  C_6
REMARK    5  A    between atoms: C_10  and  C_11
REMARK    6  A    between atoms: N_14  and  C_15
REMARK    7  A    between atoms: C_15  and  C_16
REMARK    8  A    between atoms: C_19  and  C_20
REMARK                            x       y       z     vdW  Elec       q    Type
REMARK                         _______ _______ _______ _____ _____    ______ ____
ROOT
ATOM      1  C   UNL     1      -0.634  11.482  21.929  0.00  0.00    +0.000 A 
ATOM      2  O   UNL     1      -0.562  11.945  20.624  0.00  0.00    +0.000 OA
ATOM      3  C   UNL     1       0.096  10.983  19.925  0.00  0.00    +0.000 A 
ATOM      4  C   UNL     1       0.423   9.928  20.741  0.00  0.00    +0.000 A 
ATOM      5  C   UNL     1      -0.044  10.223  22.028  0.00  0.00    +0.000 A 
ATOM      6  C   UNL     1       0.053   9.399  23.262  0.00  0.00    +0.000 C 
ATOM      7  C   UNL     1       1.165   8.813  20.197  0.00  0.00    +0.000 A 
ATOM      8  N   UNL     1       1.441   7.645  20.769  0.00  0.00    +0.000 NA
ATOM      9  N   UNL     1       2.173   7.008  19.825  0.00  0.00    +0.000 N 
ATOM     10  C   UNL     1       2.363   7.757  18.684  0.00  0.00    +0.000 A 
ATOM     11  C   UNL     1       1.723   8.960  18.905  0.00  0.00    +0.000 A 
ATOM     12  C   UNL     1       1.634  10.232  18.103  0.00  0.00    +0.000 C 
ATOM     13  C   UNL     1       0.385  11.098  18.465  0.00  0.00    +0.000 C 
ENDROOT
BRANCH   1  14
ATOM     14  C   UNL     1      -1.273  12.244  22.976  0.00  0.00    +0.000 C 
ATOM     15  O   UNL     1      -0.765  13.217  23.517  0.00  0.00    +0.000 OA
BRANCH  14  16
ATOM     16  O   UNL     1      -2.460  11.696  23.361  0.00  0.00    +0.000 OA
BRANCH  16  18
ATOM     17  C   UNL     1      -4.308  12.429  24.672  0.00  0.00    +0.000 C 
ATOM     18  C   UNL     1      -3.544  12.637  23.377  0.00  0.00    +0.000 C 
ENDBRANCH  16  18
ENDBRANCH  14  16
ENDBRANCH   1  14
BRANCH   9  19
ATOM     19  C   UNL     1       2.817   5.742  20.157  0.00  0.00    +0.000 C 
BRANCH  19  20
ATOM     20  C   UNL     1       3.657   5.190  19.032  0.00  0.00    +0.000 A 
ATOM     21  C   UNL     1       3.059   4.455  17.998  0.00  0.00    +0.000 A 
ATOM     22  C   UNL     1       3.817   3.984  16.925  0.00  0.00    +0.000 A 
ATOM     23  C   UNL     1       5.191   4.240  16.860  0.00  0.00    +0.000 A 
ATOM     24  C   UNL     1       6.017   3.737  15.714  0.00  0.00    +0.000 C 
ATOM     25  C   UNL     1       5.791   4.982  17.884  0.00  0.00    +0.000 A 
ATOM     26  C   UNL     1       5.033   5.452  18.960  0.00  0.00    +0.000 A 
ENDBRANCH  19  20
ENDBRANCH   9  19
TORSDOF 5
ENDMDL
MODEL 7
REMARK VINA RESULT:      -7.4      1.421      2.508
REMARK  Name = 
REMARK  8 active torsions:
REMARK  status: ('A' for Active; 'I' for Inactive)
REMARK    1  A    between atoms: C_1  and  C_2
REMARK    2  A    between atoms: C_2  and  O_3
REMARK    3  A    between atoms: O_3  and  C_4
REMARK    4  A    between atoms: C_4  and  C_6
REMARK    5  A    between atoms: C_10  and  C_11
REMARK    6  A    between atoms: N_14  and  C_15
REMARK    7  A    between atoms: C_15  and  C_16
REMARK    8  A    between atoms: C_19  and  C_20
REMARK                            x       y       z     vdW  Elec       q    Type
REMARK                         _______ _______ _______ _____ _____    ______ ____
ROOT
ATOM      1  C   UNL     1       5.388   4.749  16.829  0.00  0.00    +0.000 A 
ATOM      2  O   UNL     1       4.749   4.071  17.857  0.00  0.00    +0.000 OA
ATOM      3  C   UNL     1       3.846   4.946  18.371  0.00  0.00    +0.000 A 
ATOM      4  C   UNL     1       3.884   6.139  17.693  0.00  0.00    +0.000 A 
ATOM      5  C   UNL     1       4.858   6.031  16.694  0.00  0.00    +0.000 A 
ATOM      6  C   UNL     1       5.274   7.045  15.688  0.00  0.00    +0.000 C 
ATOM      7  C   UNL     1       3.023   7.223  18.113  0.00  0.00    +0.000 A 
ATOM      8  N   UNL     1       2.799   8.383  17.505  0.00  0.00    +0.000 NA
ATOM      9  N   UNL     1       1.941   9.007  18.346  0.00  0.00    +0.000 N 
ATOM     10  C   UNL     1       1.634   8.263  19.465  0.00  0.00    +0.000 A 
ATOM     11  C   UNL     1       2.345   7.085  19.347  0.00  0.00    +0.000 A 
ATOM     12  C   UNL     1       2.524   5.904  20.265  0.00  0.00    +0.000 C 
ATOM     13  C   UNL     1       2.945   4.602  19.512  0.00  0.00    +0.000 C 
ENDROOT
BRANCH   1  14
ATOM     14  C   UNL     1       6.426   4.132  16.036  0.00  0.00    +0.000 C 
ATOM     15  O   UNL     1       7.617   4.199  16.304  0.00  0.00    +0.000 OA
BRANCH  14  16
ATOM     16  O   UNL     1       5.934   3.554  14.904  0.00  0.00    +0.000 OA
BRANCH  16  18
ATOM     17  C   UNL     1       5.832   3.388  12.530  0.00  0.00    +0.000 C 
ATOM     18  C   UNL     1       6.486   4.104  13.697  0.00  0.00    +0.000 C 
ENDBRANCH  16  18
ENDBRANCH  14  16
ENDBRANCH   1  14
BRANCH   9  19
ATOM     19  C   UNL     1       1.593  10.403  18.103  0.00  0.00    +0.000 C 
BRANCH  19  20
ATOM     20  C   UNL     1       0.602  10.950  19.100  0.00  0.00    +0.000 A 
ATOM     21  C   UNL     1      -0.774  10.896  18.832  0.00  0.00    +0.000 A 
ATOM     22  C   UNL     1      -1.703  11.352  19.769  0.00  0.00    +0.000 A 
ATOM     23  C   UNL     1      -1.277  11.869  20.997  0.00  0.00    +0.000 A 
ATOM     24  C   UNL     1      -2.265  12.364  22.011  0.00  0.00    +0.000 C 
ATOM     25  C   UNL     1       0.094  11.916  21.274  0.00  0.00    +0.000 A 
ATOM     26  C   UNL     1       1.025  11.462  20.336  0.00  0.00    +0.000 A 
ENDBRANCH  19  20
ENDBRANCH   9  19
TORSDOF 5
ENDMDL
MODEL 8
REMARK VINA RESULT:      -7.4      1.833      3.550
REMARK  Name = 
REMARK  8 active torsions:
REMARK  status: ('A' for Active; 'I' for Inactive)
REMARK    1  A    between atoms: C_1  and  C_2
REMARK    2  A    between atoms: C_2  and  O_3
REMARK    3  A    between atoms: O_3  and  C_4
REMARK    4  A    between atoms: C_4  and  C_6
REMARK    5  A    between atoms: C_10  and  C_11
REMARK    6  A    between atoms: N_14  and  C_15
REMARK    7  A    between atoms: C_15  and  C_16
REMARK    8  A    between atoms: C_19  and  C_20
REMARK                            x       y       z     vdW  Elec       q    Type
REMARK                         _______ _______ _______ _____ _____    ______ ____
ROOT
ATOM      1  C   UNL     1       3.740   4.098  19.440  0.00  0.00    +0.000 A 
ATOM      2  O   UNL     1       4.434   4.657  18.377  0.00  0.00    +0.000 OA
ATOM      3  C   UNL     1       3.964   5.926  18.254  0.00  0.00    +0.000 A 
ATOM      4  C   UNL     1       3.014   6.187  19.211  0.00  0.00    +0.000 A 
ATOM      5  C   UNL     1       2.862   5.032  19.987  0.00  0.00    +0.000 A 
ATOM      6  C   UNL     1       1.964   4.808  21.152  0.00  0.00    +0.000 C 
ATOM      7  C   UNL     1       2.358   7.476  19.227  0.00  0.00    +0.000 A 
ATOM      8  N   UNL     1       1.538   7.974  20.147  0.00  0.00    +0.000 NA
ATOM      9  N   UNL     1       1.213   9.186  19.640  0.00  0.00    +0.000 N 
ATOM     10  C   UNL     1       1.806   9.447  18.423  0.00  0.00    +0.000 A 
ATOM     11  C   UNL     1       2.556   8.330  18.117  0.00  0.00    +0.000 A 
ATOM     12  C   UNL     1       3.359   7.940  16.903  0.00  0.00    +0.000 C 
ATOM     13  C   UNL     1       4.459   6.875  17.212  0.00  0.00    +0.000 C 
ENDROOT
BRANCH   1  14
ATOM     14  C   UNL     1       3.972   2.741  19.875  0.00  0.00    +0.000 C 
ATOM     15  O   UNL     1       5.058   2.324  20.253  0.00  0.00    +0.000 OA
BRANCH  14  16
ATOM     16  O   UNL     1       2.870   1.954  19.720  0.00  0.00    +0.000 OA
BRANCH  16  18
ATOM     17  C   UNL     1       0.761   2.265  18.657  0.00  0.00    +0.000 C 
ATOM     18  C   UNL     1       2.252   2.088  18.431  0.00  0.00    +0.000 C 
ENDBRANCH  16  18
ENDBRANCH  14  16
ENDBRANCH   1  14
BRANCH   9  19
ATOM     19  C   UNL     1       0.175   9.977  20.294  0.00  0.00    +0.000 C 
BRANCH  19  20
ATOM     20  C   UNL     1      -0.926  10.404  19.355  0.00  0.00    +0.000 A 
ATOM     21  C   UNL     1      -1.489   9.482  18.460  0.00  0.00    +0.000 A 
ATOM     22  C   UNL     1      -2.543   9.852  17.623  0.00  0.00    +0.000 A 
ATOM     23  C   UNL     1      -3.060  11.151  17.665  0.00  0.00    +0.000 A 
ATOM     24  C   UNL     1      -4.191  11.562  16.768  0.00  0.00    +0.000 C 
ATOM     25  C   UNL     1      -2.509  12.072  18.563  0.00  0.00    +0.000 A 
ATOM     26  C   UNL     1      -1.452  11.704  19.399  0.00  0.00    +0.000 A 
ENDBRANCH  19  20
ENDBRANCH   9  19
TORSDOF 5
ENDMDL
MODEL 9
REMARK VINA RESULT:      -7.4      4.858      9.124
REMARK  Name = 
REMARK  8 active torsions:
REMARK  status: ('A' for Active; 'I' for Inactive)
REMARK    1  A    between atoms: C_1  and  C_2
REMARK    2  A    between atoms: C_2  and  O_3
REMARK    3  A    between atoms: O_3  and  C_4
REMARK    4  A    between atoms: C_4  and  C_6
REMARK    5  A    between atoms: C_10  and  C_11
REMARK    6  A    between atoms: N_14  and  C_15
REMARK    7  A    between atoms: C_15  and  C_16
REMARK    8  A    between atoms: C_19  and  C_20
REMARK                            x       y       z     vdW  Elec       q    Type
REMARK                         _______ _______ _______ _____ _____    ______ ____
ROOT
ATOM      1  C   UNL     1      -3.740  11.419  18.151  0.00  0.00    +0.000 A 
ATOM      2  O   UNL     1      -3.376  12.158  19.267  0.00  0.00    +0.000 OA
ATOM      3  C   UNL     1      -2.106  11.775  19.566  0.00  0.00    +0.000 A 
ATOM      4  C   UNL     1      -1.657  10.838  18.668  0.00  0.00    +0.000 A 
ATOM      5  C   UNL     1      -2.685  10.602  17.748  0.00  0.00    +0.000 A 
ATOM      6  C   UNL     1      -2.692   9.682  16.579  0.00  0.00    +0.000 C 
ATOM      7  C   UNL     1      -0.338  10.270  18.834  0.00  0.00    +0.000 A 
ATOM      8  N   UNL     1       0.332   9.479  18.003  0.00  0.00    +0.000 NA
ATOM      9  N   UNL     1       1.485   9.240  18.672  0.00  0.00    +0.000 N 
ATOM     10  C   UNL     1       1.541   9.859  19.902  0.00  0.00    +0.000 A 
ATOM     11  C   UNL     1       0.346  10.534  20.045  0.00  0.00    +0.000 A 
ATOM     12  C   UNL     1      -0.255  11.318  21.183  0.00  0.00    +0.000 C 
ATOM     13  C   UNL     1      -1.340  12.341  20.716  0.00  0.00    +0.000 C 
ENDROOT
BRANCH   1  14
ATOM     14  C   UNL     1      -5.040  11.556  17.535  0.00  0.00    +0.000 C 
ATOM     15  O   UNL     1      -5.304  12.391  16.683  0.00  0.00    +0.000 OA
BRANCH  14  16
ATOM     16  O   UNL     1      -5.961  10.716  18.086  0.00  0.00    +0.000 OA
BRANCH  16  18
ATOM     17  C   UNL     1      -6.790  11.510  20.173  0.00  0.00    +0.000 C 
ATOM     18  C   UNL     1      -7.071  11.402  18.685  0.00  0.00    +0.000 C 
ENDBRANCH  16  18
ENDBRANCH  14  16
ENDBRANCH   1  14
BRANCH   9  19
ATOM     19  C   UNL     1       2.422   8.253  18.146  0.00  0.00    +0.000 C 
BRANCH  19  20
ATOM     20  C   UNL     1       2.220   6.875  18.725  0.00  0.00    +0.000 A 
ATOM     21  C   UNL     1       2.019   6.709  20.103  0.00  0.00    +0.000 A 
ATOM     22  C   UNL     1       1.779   5.445  20.644  0.00  0.00    +0.000 A 
ATOM     23  C   UNL     1       1.731   4.317  19.817  0.00  0.00    +0.000 A 
ATOM     24  C   UNL     1       1.477   2.953  20.386  0.00  0.00    +0.000 C 
ATOM     25  C   UNL     1       1.920   4.478  18.440  0.00  0.00    +0.000 A 
ATOM     26  C   UNL     1       2.163   5.743  17.898  0.00  0.00    +0.000 A 
ENDBRANCH  19  20
ENDBRANCH   9  19
TORSDOF 5
ENDMDL
