MODEL 1
REMARK VINA RESULT:      -7.3      0.000      0.000
REMARK  Name = 
REMARK  7 active torsions:
REMARK  status: ('A' for Active; 'I' for Inactive)
REMARK    1  A    between atoms: C_1  and  N_2
REMARK    2  A    between atoms: N_2  and  C_22
REMARK    3  A    between atoms: C_3  and  C_5
REMARK    4  A    between atoms: C_6  and  O_7
REMARK    5  A    between atoms: C_10  and  S_11
REMARK    6  A    between atoms: S_11  and  C_12
REMARK    7  A    between atoms: N_18  and  C_19
REMARK                            x       y       z     vdW  Elec       q    Type
REMARK                         _______ _______ _______ _____ _____    ______ ____
ROOT
ATOM      1  C   UNL     1       1.061  10.674  18.711  0.00  0.00    +0.000 A 
ATOM      2  C   UNL     1       1.746  11.733  18.241  0.00  0.00    +0.000 A 
ATOM      3  C   UNL     1       1.346  13.101  18.546  0.00  0.00    +0.000 A 
ATOM      4  C   UNL     1       2.294  14.139  18.449  0.00  0.00    +0.000 A 
ATOM      5  C   UNL     1       1.907  15.448  18.627  0.00  0.00    +0.000 A 
ATOM      6  C   UNL     1       0.577  15.736  18.936  0.00  0.00    +0.000 A 
ATOM      7  C   UNL     1      -0.356  14.699  19.081  0.00  0.00    +0.000 A 
ATOM      8  C   UNL     1       0.027  13.363  18.919  0.00  0.00    +0.000 A 
ATOM      9  N   UNL     1      -0.845  12.266  19.140  0.00  0.00    +0.000 N 
ATOM     10  C   UNL     1      -2.267  12.429  19.395  0.00  0.00    +0.000 C 
ATOM     11  C   UNL     1      -0.377  10.936  19.128  0.00  0.00    +0.000 A 
ATOM     12  O   UNL     1      -1.151  10.014  19.394  0.00  0.00    +0.000 OA
ENDROOT
BRANCH   1  15
ATOM     13  C   UNL     1       1.483   8.857  21.164  0.00  0.00    +0.000 C 
ATOM     14  N   UNL     1       1.745   8.442  19.765  0.00  0.00    +0.000 N 
ATOM     15  C   UNL     1       1.543   9.248  18.611  0.00  0.00    +0.000 C 
ATOM     16  O   UNL     1       1.709   8.822  17.466  0.00  0.00    +0.000 OA
BRANCH  14  17
ATOM     17  C   UNL     1       2.198   7.059  19.632  0.00  0.00    +0.000 A 
ATOM     18  C   UNL     1       3.116   6.630  18.662  0.00  0.00    +0.000 A 
ATOM     19  C   UNL     1       3.429   5.277  18.503  0.00  0.00    +0.000 A 
ATOM     20  C   UNL     1       2.866   4.338  19.330  0.00  0.00    +0.000 A 
ATOM     21  C   UNL     1       2.007   4.723  20.345  0.00  0.00    +0.000 A 
ATOM     22  C   UNL     1       1.696   6.064  20.494  0.00  0.00    +0.000 A 
ENDBRANCH  14  17
ENDBRANCH   1  15
BRANCH   5  23
ATOM     23  S   UNL     1       3.106  16.749  18.520  0.00  0.00    +0.000 S 
ATOM     24  C   UNL     1       4.657  15.903  18.632  0.00  0.00    +0.000 C 
ATOM     25  O   UNL     1       3.000  17.323  17.188  0.00  0.00    +0.000 OA
ATOM     26  O   UNL     1       2.956  17.585  19.696  0.00  0.00    +0.000 OA
ENDBRANCH   5  23
BRANCH   2  27
ATOM     27  O   UNL     1       2.863  11.681  17.433  0.00  0.00    +0.000 OA
ATOM     28  H   UNL     1       2.789  10.908  16.849  0.00  0.00    +0.000 HD
ENDBRANCH   2  27
TORSDOF 4
ENDMDL
MODEL 2
REMARK VINA RESULT:      -7.2      3.048      8.067
REMARK  Name = 
REMARK  7 active torsions:
REMARK  status: ('A' for Active; 'I' for Inactive)
REMARK    1  A    between atoms: C_1  and  N_2
REMARK    2  A    between atoms: N_2  and  C_22
REMARK    3  A    between atoms: C_3  and  C_5
REMARK    4  A    between atoms: C_6  and  O_7
REMARK    5  A    between atoms: C_10  and  S_11
REMARK    6  A    between atoms: S_11  and  C_12
REMARK    7  A    between atoms: N_18  and  C_19
REMARK                            x       y       z     vdW  Elec       q    Type
REMARK                         _______ _______ _______ _____ _____    ______ ____
ROOT
ATOM      1  C   UNL     1       0.425  12.014  19.467  0.00  0.00    +0.000 A 
ATOM      2  C   UNL     1       1.355  11.143  19.032  0.00  0.00    +0.000 A 
ATOM      3  C   UNL     1       1.400   9.768  19.510  0.00  0.00    +0.000 A 
ATOM      4  C   UNL     1       2.049   8.785  18.735  0.00  0.00    +0.000 A 
ATOM      5  C   UNL     1       2.194   7.505  19.222  0.00  0.00    +0.000 A 
ATOM      6  C   UNL     1       1.669   7.181  20.473  0.00  0.00    +0.000 A 
ATOM      7  C   UNL     1       0.981   8.147  21.222  0.00  0.00    +0.000 A 
ATOM      8  C   UNL     1       0.810   9.446  20.733  0.00  0.00    +0.000 A 
ATOM      9  N   UNL     1       0.049  10.441  21.400  0.00  0.00    +0.000 N 
ATOM     10  C   UNL     1      -0.489  10.257  22.737  0.00  0.00    +0.000 C 
ATOM     11  C   UNL     1      -0.236  11.682  20.795  0.00  0.00    +0.000 A 
ATOM     12  O   UNL     1      -0.958  12.494  21.378  0.00  0.00    +0.000 OA
ENDROOT
BRANCH   1  15
ATOM     13  C   UNL     1       1.903  14.553  20.395  0.00  0.00    +0.000 C 
ATOM     14  N   UNL     1       0.881  14.530  19.322  0.00  0.00    +0.000 N 
ATOM     15  C   UNL     1       0.195  13.375  18.857  0.00  0.00    +0.000 C 
ATOM     16  O   UNL     1      -0.593  13.405  17.909  0.00  0.00    +0.000 OA
BRANCH  14  17
ATOM     17  C   UNL     1       0.646  15.830  18.698  0.00  0.00    +0.000 A 
ATOM     18  C   UNL     1      -0.619  16.431  18.600  0.00  0.00    +0.000 A 
ATOM     19  C   UNL     1      -0.807  17.622  17.893  0.00  0.00    +0.000 A 
ATOM     20  C   UNL     1       0.262  18.253  17.309  0.00  0.00    +0.000 A 
ATOM     21  C   UNL     1       1.539  17.734  17.438  0.00  0.00    +0.000 A 
ATOM     22  C   UNL     1       1.719  16.549  18.135  0.00  0.00    +0.000 A 
ENDBRANCH  14  17
ENDBRANCH   1  15
BRANCH   5  23
ATOM     23  S   UNL     1       2.995   6.269  18.237  0.00  0.00    +0.000 S 
ATOM     24  C   UNL     1       4.029   5.413  19.392  0.00  0.00    +0.000 C 
ATOM     25  O   UNL     1       1.966   5.347  17.784  0.00  0.00    +0.000 OA
ATOM     26  O   UNL     1       3.846   6.951  17.280  0.00  0.00    +0.000 OA
ENDBRANCH   5  23
BRANCH   2  27
ATOM     27  O   UNL     1       2.359  11.417  18.126  0.00  0.00    +0.000 OA
ATOM     28  H   UNL     1       1.994  11.352  17.227  0.00  0.00    +0.000 HD
ENDBRANCH   2  27
TORSDOF 4
ENDMDL
MODEL 3
REMARK VINA RESULT:      -7.1      0.720      1.292
REMARK  Name = 
REMARK  7 active torsions:
REMARK  status: ('A' for Active; 'I' for Inactive)
REMARK    1  A    between atoms: C_1  and  N_2
REMARK    2  A    between atoms: N_2  and  C_22
REMARK    3  A    between atoms: C_3  and  C_5
REMARK    4  A    between atoms: C_6  and  O_7
REMARK    5  A    between atoms: C_10  and  S_11
REMARK    6  A    between atoms: S_11  and  C_12
REMARK    7  A    between atoms: N_18  and  C_19
REMARK                            x       y       z     vdW  Elec       q    Type
REMARK                         _______ _______ _______ _____ _____    ______ ____
ROOT
ATOM      1  C   UNL     1       1.012  10.628  18.725  0.00  0.00    +0.000 A 
ATOM      2  C   UNL     1       1.695  11.711  18.310  0.00  0.00    +0.000 A 
ATOM      3  C   UNL     1       1.252  13.063  18.621  0.00  0.00    +0.000 A 
ATOM      4  C   UNL     1       2.181  14.123  18.589  0.00  0.00    +0.000 A 
ATOM      5  C   UNL     1       1.757  15.420  18.774  0.00  0.00    +0.000 A 
ATOM      6  C   UNL     1       0.408  15.674  19.025  0.00  0.00    +0.000 A 
ATOM      7  C   UNL     1      -0.507  14.615  19.105  0.00  0.00    +0.000 A 
ATOM      8  C   UNL     1      -0.088  13.290  18.936  0.00  0.00    +0.000 A 
ATOM      9  N   UNL     1      -0.946  12.171  19.094  0.00  0.00    +0.000 N 
ATOM     10  C   UNL     1      -2.381  12.299  19.284  0.00  0.00    +0.000 C 
ATOM     11  C   UNL     1      -0.449  10.852  19.079  0.00  0.00    +0.000 A 
ATOM     12  O   UNL     1      -1.215   9.908  19.289  0.00  0.00    +0.000 OA
ENDROOT
BRANCH   1  15
ATOM     13  C   UNL     1       1.420   8.794  21.167  0.00  0.00    +0.000 C 
ATOM     14  N   UNL     1       1.723   8.401  19.770  0.00  0.00    +0.000 N 
ATOM     15  C   UNL     1       1.529   9.214  18.621  0.00  0.00    +0.000 C 
ATOM     16  O   UNL     1       1.731   8.806  17.475  0.00  0.00    +0.000 OA
BRANCH  14  17
ATOM     17  C   UNL     1       2.211   7.030  19.632  0.00  0.00    +0.000 A 
ATOM     18  C   UNL     1       1.794   5.968  20.449  0.00  0.00    +0.000 A 
ATOM     19  C   UNL     1       2.376   4.701  20.351  0.00  0.00    +0.000 A 
ATOM     20  C   UNL     1       3.349   4.461  19.415  0.00  0.00    +0.000 A 
ATOM     21  C   UNL     1       3.745   5.460  18.542  0.00  0.00    +0.000 A 
ATOM     22  C   UNL     1       3.169   6.716  18.648  0.00  0.00    +0.000 A 
ENDBRANCH  14  17
ENDBRANCH   1  15
BRANCH   5  23
ATOM     23  S   UNL     1       2.931  16.747  18.749  0.00  0.00    +0.000 S 
ATOM     24  C   UNL     1       2.470  17.744  20.138  0.00  0.00    +0.000 C 
ATOM     25  O   UNL     1       4.238  16.170  19.022  0.00  0.00    +0.000 OA
ATOM     26  O   UNL     1       2.703  17.515  17.540  0.00  0.00    +0.000 OA
ENDBRANCH   5  23
BRANCH   2  27
ATOM     27  O   UNL     1       2.850  11.698  17.555  0.00  0.00    +0.000 OA
ATOM     28  H   UNL     1       3.158  12.613  17.439  0.00  0.00    +0.000 HD
ENDBRANCH   2  27
TORSDOF 4
ENDMDL
MODEL 4
REMARK VINA RESULT:      -7.0      4.074      8.583
REMARK  Name = 
REMARK  7 active torsions:
REMARK  status: ('A' for Active; 'I' for Inactive)
REMARK    1  A    between atoms: C_1  and  N_2
REMARK    2  A    between atoms: N_2  and  C_22
REMARK    3  A    between atoms: C_3  and  C_5
REMARK    4  A    between atoms: C_6  and  O_7
REMARK    5  A    between atoms: C_10  and  S_11
REMARK    6  A    between atoms: S_11  and  C_12
REMARK    7  A    between atoms: N_18  and  C_19
REMARK                            x       y       z     vdW  Elec       q    Type
REMARK                         _______ _______ _______ _____ _____    ______ ____
ROOT
ATOM      1  C   UNL     1       0.317  10.139  21.260  0.00  0.00    +0.000 A 
ATOM      2  C   UNL     1       0.258   8.796  21.206  0.00  0.00    +0.000 A 
ATOM      3  C   UNL     1       1.160   8.022  20.364  0.00  0.00    +0.000 A 
ATOM      4  C   UNL     1       1.393   6.663  20.661  0.00  0.00    +0.000 A 
ATOM      5  C   UNL     1       2.156   5.892  19.813  0.00  0.00    +0.000 A 
ATOM      6  C   UNL     1       2.722   6.471  18.678  0.00  0.00    +0.000 A 
ATOM      7  C   UNL     1       2.530   7.833  18.409  0.00  0.00    +0.000 A 
ATOM      8  C   UNL     1       1.772   8.634  19.270  0.00  0.00    +0.000 A 
ATOM      9  N   UNL     1       1.616  10.035  19.102  0.00  0.00    +0.000 N 
ATOM     10  C   UNL     1       2.092  10.746  17.928  0.00  0.00    +0.000 C 
ATOM     11  C   UNL     1       0.983  10.829  20.081  0.00  0.00    +0.000 A 
ATOM     12  O   UNL     1       0.928  12.052  19.932  0.00  0.00    +0.000 OA
ENDROOT
BRANCH   1  15
ATOM     13  C   UNL     1      -2.012  12.006  20.494  0.00  0.00    +0.000 C 
ATOM     14  N   UNL     1      -1.496  11.842  21.874  0.00  0.00    +0.000 N 
ATOM     15  C   UNL     1      -0.437  10.976  22.264  0.00  0.00    +0.000 C 
ATOM     16  O   UNL     1      -0.100  10.827  23.440  0.00  0.00    +0.000 OA
BRANCH  14  17
ATOM     17  C   UNL     1      -2.216  12.627  22.874  0.00  0.00    +0.000 A 
ATOM     18  C   UNL     1      -3.420  12.218  23.467  0.00  0.00    +0.000 A 
ATOM     19  C   UNL     1      -4.127  13.057  24.332  0.00  0.00    +0.000 A 
ATOM     20  C   UNL     1      -3.630  14.295  24.652  0.00  0.00    +0.000 A 
ATOM     21  C   UNL     1      -2.412  14.713  24.144  0.00  0.00    +0.000 A 
ATOM     22  C   UNL     1      -1.718  13.880  23.282  0.00  0.00    +0.000 A 
ENDBRANCH  14  17
ENDBRANCH   1  15
BRANCH   5  23
ATOM     23  S   UNL     1       2.459   4.189  20.200  0.00  0.00    +0.000 S 
ATOM     24  C   UNL     1       1.182   3.325  19.329  0.00  0.00    +0.000 C 
ATOM     25  O   UNL     1       3.735   3.833  19.600  0.00  0.00    +0.000 OA
ATOM     26  O   UNL     1       2.240   4.014  21.623  0.00  0.00    +0.000 OA
ENDBRANCH   5  23
BRANCH   2  27
ATOM     27  O   UNL     1      -0.630   7.997  21.897  0.00  0.00    +0.000 OA
ATOM     28  H   UNL     1      -1.359   7.754  21.303  0.00  0.00    +0.000 HD
ENDBRANCH   2  27
TORSDOF 4
ENDMDL
MODEL 5
REMARK VINA RESULT:      -7.0      4.052      5.836
REMARK  Name = 
REMARK  7 active torsions:
REMARK  status: ('A' for Active; 'I' for Inactive)
REMARK    1  A    between atoms: C_1  and  N_2
REMARK    2  A    between atoms: N_2  and  C_22
REMARK    3  A    between atoms: C_3  and  C_5
REMARK    4  A    between atoms: C_6  and  O_7
REMARK    5  A    between atoms: C_10  and  S_11
REMARK    6  A    between atoms: S_11  and  C_12
REMARK    7  A    between atoms: N_18  and  C_19
REMARK                            x       y       z     vdW  Elec       q    Type
REMARK                         _______ _______ _______ _____ _____    ______ ____
ROOT
ATOM      1  C   UNL     1       0.207  11.144  21.687  0.00  0.00    +0.000 A 
ATOM      2  C   UNL     1      -0.893  11.167  22.463  0.00  0.00    +0.000 A 
ATOM      3  C   UNL     1      -1.704  12.368  22.608  0.00  0.00    +0.000 A 
ATOM      4  C   UNL     1      -3.047  12.254  23.023  0.00  0.00    +0.000 A 
ATOM      5  C   UNL     1      -3.793  13.385  23.269  0.00  0.00    +0.000 A 
ATOM      6  C   UNL     1      -3.222  14.642  23.075  0.00  0.00    +0.000 A 
ATOM      7  C   UNL     1      -1.901  14.755  22.615  0.00  0.00    +0.000 A 
ATOM      8  C   UNL     1      -1.136  13.615  22.344  0.00  0.00    +0.000 A 
ATOM      9  N   UNL     1       0.170  13.662  21.793  0.00  0.00    +0.000 N 
ATOM     10  C   UNL     1       0.905  14.902  21.611  0.00  0.00    +0.000 C 
ATOM     11  C   UNL     1       0.840  12.491  21.382  0.00  0.00    +0.000 A 
ATOM     12  O   UNL     1       1.946  12.578  20.844  0.00  0.00    +0.000 OA
ENDROOT
BRANCH   1  15
ATOM     13  C   UNL     1       0.253   9.955  18.845  0.00  0.00    +0.000 C 
ATOM     14  N   UNL     1       0.944   9.354  20.011  0.00  0.00    +0.000 N 
ATOM     15  C   UNL     1       0.959   9.886  21.329  0.00  0.00    +0.000 C 
ATOM     16  O   UNL     1       1.613   9.380  22.243  0.00  0.00    +0.000 OA
BRANCH  14  17
ATOM     17  C   UNL     1       1.697   8.142  19.694  0.00  0.00    +0.000 A 
ATOM     18  C   UNL     1       2.488   7.994  18.545  0.00  0.00    +0.000 A 
ATOM     19  C   UNL     1       3.095   6.774  18.231  0.00  0.00    +0.000 A 
ATOM     20  C   UNL     1       2.958   5.699  19.072  0.00  0.00    +0.000 A 
ATOM     21  C   UNL     1       2.243   5.819  20.251  0.00  0.00    +0.000 A 
ATOM     22  C   UNL     1       1.638   7.028  20.555  0.00  0.00    +0.000 A 
ENDBRANCH  14  17
ENDBRANCH   1  15
BRANCH   5  23
ATOM     23  S   UNL     1      -5.485  13.235  23.774  0.00  0.00    +0.000 S 
ATOM     24  C   UNL     1      -6.326  12.748  22.294  0.00  0.00    +0.000 C 
ATOM     25  O   UNL     1      -5.556  12.131  24.718  0.00  0.00    +0.000 OA
ATOM     26  O   UNL     1      -5.951  14.557  24.150  0.00  0.00    +0.000 OA
ENDBRANCH   5  23
BRANCH   2  27
ATOM     27  O   UNL     1      -1.381  10.112  23.207  0.00  0.00    +0.000 OA
ATOM     28  H   UNL     1      -2.296  10.309  23.466  0.00  0.00    +0.000 HD
ENDBRANCH   2  27
TORSDOF 4
ENDMDL
MODEL 6
REMARK VINA RESULT:      -6.9      4.131      8.684
REMARK  Name = 
REMARK  7 active torsions:
REMARK  status: ('A' for Active; 'I' for Inactive)
REMARK    1  A    between atoms: C_1  and  N_2
REMARK    2  A    between atoms: N_2  and  C_22
REMARK    3  A    between atoms: C_3  and  C_5
REMARK    4  A    between atoms: C_6  and  O_7
REMARK    5  A    between atoms: C_10  and  S_11
REMARK    6  A    between atoms: S_11  and  C_12
REMARK    7  A    between atoms: N_18  and  C_19
REMARK                            x       y       z     vdW  Elec       q    Type
REMARK                         _______ _______ _______ _____ _____    ______ ____
ROOT
ATOM      1  C   UNL     1       0.376   9.929  21.260  0.00  0.00    +0.000 A 
ATOM      2  C   UNL     1       0.232   8.591  21.272  0.00  0.00    +0.000 A 
ATOM      3  C   UNL     1       1.092   7.719  20.483  0.00  0.00    +0.000 A 
ATOM      4  C   UNL     1       1.233   6.366  20.850  0.00  0.00    +0.000 A 
ATOM      5  C   UNL     1       1.955   5.505  20.053  0.00  0.00    +0.000 A 
ATOM      6  C   UNL     1       2.571   5.989  18.898  0.00  0.00    +0.000 A 
ATOM      7  C   UNL     1       2.470   7.346  18.560  0.00  0.00    +0.000 A 
ATOM      8  C   UNL     1       1.755   8.236  19.369  0.00  0.00    +0.000 A 
ATOM      9  N   UNL     1       1.692   9.633  19.130  0.00  0.00    +0.000 N 
ATOM     10  C   UNL     1       2.227  10.253  17.930  0.00  0.00    +0.000 C 
ATOM     11  C   UNL     1       1.100  10.515  20.059  0.00  0.00    +0.000 A 
ATOM     12  O   UNL     1       1.126  11.730  19.849  0.00  0.00    +0.000 OA
ENDROOT
BRANCH   1  15
ATOM     13  C   UNL     1      -1.877  11.839  20.383  0.00  0.00    +0.000 C 
ATOM     14  N   UNL     1      -1.358  11.744  21.768  0.00  0.00    +0.000 N 
ATOM     15  C   UNL     1      -0.334  10.861  22.210  0.00  0.00    +0.000 C 
ATOM     16  O   UNL     1       0.006  10.775  23.392  0.00  0.00    +0.000 OA
BRANCH  14  17
ATOM     17  C   UNL     1      -2.036  12.623  22.718  0.00  0.00    +0.000 A 
ATOM     18  C   UNL     1      -1.512  13.847  23.159  0.00  0.00    +0.000 A 
ATOM     19  C   UNL     1      -2.146  14.596  24.154  0.00  0.00    +0.000 A 
ATOM     20  C   UNL     1      -3.329  14.161  24.695  0.00  0.00    +0.000 A 
ATOM     21  C   UNL     1      -3.919  12.993  24.242  0.00  0.00    +0.000 A 
ATOM     22  C   UNL     1      -3.283  12.252  23.260  0.00  0.00    +0.000 A 
ENDBRANCH  14  17
ENDBRANCH   1  15
BRANCH   5  23
ATOM     23  S   UNL     1       2.143   3.808  20.527  0.00  0.00    +0.000 S 
ATOM     24  C   UNL     1       3.679   3.331  19.787  0.00  0.00    +0.000 C 
ATOM     25  O   UNL     1       2.311   3.781  21.971  0.00  0.00    +0.000 OA
ATOM     26  O   UNL     1       1.078   3.053  19.895  0.00  0.00    +0.000 OA
ENDBRANCH   5  23
BRANCH   2  27
ATOM     27  O   UNL     1      -0.714   7.886  21.988  0.00  0.00    +0.000 OA
ATOM     28  H   UNL     1      -0.409   7.800  22.907  0.00  0.00    +0.000 HD
ENDBRANCH   2  27
TORSDOF 4
ENDMDL
MODEL 7
REMARK VINA RESULT:      -6.8      3.957      5.998
REMARK  Name = 
REMARK  7 active torsions:
REMARK  status: ('A' for Active; 'I' for Inactive)
REMARK    1  A    between atoms: C_1  and  N_2
REMARK    2  A    between atoms: N_2  and  C_22
REMARK    3  A    between atoms: C_3  and  C_5
REMARK    4  A    between atoms: C_6  and  O_7
REMARK    5  A    between atoms: C_10  and  S_11
REMARK    6  A    between atoms: S_11  and  C_12
REMARK    7  A    between atoms: N_18  and  C_19
REMARK                            x       y       z     vdW  Elec       q    Type
REMARK                         _______ _______ _______ _____ _____    ______ ____
ROOT
ATOM      1  C   UNL     1      -0.486  11.930  20.810  0.00  0.00    +0.000 A 
ATOM      2  C   UNL     1      -1.422  11.901  21.777  0.00  0.00    +0.000 A 
ATOM      3  C   UNL     1      -2.474  12.905  21.857  0.00  0.00    +0.000 A 
ATOM      4  C   UNL     1      -3.664  12.610  22.552  0.00  0.00    +0.000 A 
ATOM      5  C   UNL     1      -4.621  13.585  22.729  0.00  0.00    +0.000 A 
ATOM      6  C   UNL     1      -4.418  14.855  22.189  0.00  0.00    +0.000 A 
ATOM      7  C   UNL     1      -3.256  15.133  21.455  0.00  0.00    +0.000 A 
ATOM      8  C   UNL     1      -2.283  14.148  21.252  0.00  0.00    +0.000 A 
ATOM      9  N   UNL     1      -1.131  14.340  20.446  0.00  0.00    +0.000 N 
ATOM     10  C   UNL     1      -0.766  15.630  19.886  0.00  0.00    +0.000 C 
ATOM     11  C   UNL     1      -0.264  13.273  20.133  0.00  0.00    +0.000 A 
ATOM     12  O   UNL     1       0.688  13.463  19.373  0.00  0.00    +0.000 OA
ENDROOT
BRANCH   1  15
ATOM     13  C   UNL     1      -0.531  10.213  18.252  0.00  0.00    +0.000 C 
ATOM     14  N   UNL     1       0.430  10.025  19.365  0.00  0.00    +0.000 N 
ATOM     15  C   UNL     1       0.490  10.810  20.548  0.00  0.00    +0.000 C 
ATOM     16  O   UNL     1       1.360  10.653  21.407  0.00  0.00    +0.000 OA
BRANCH  14  17
ATOM     17  C   UNL     1       1.401   8.957  19.135  0.00  0.00    +0.000 A 
ATOM     18  C   UNL     1       2.210   8.872  17.992  0.00  0.00    +0.000 A 
ATOM     19  C   UNL     1       3.040   7.770  17.767  0.00  0.00    +0.000 A 
ATOM     20  C   UNL     1       3.109   6.759  18.692  0.00  0.00    +0.000 A 
ATOM     21  C   UNL     1       2.381   6.834  19.867  0.00  0.00    +0.000 A 
ATOM     22  C   UNL     1       1.555   7.925  20.082  0.00  0.00    +0.000 A 
ENDBRANCH  14  17
ENDBRANCH   1  15
BRANCH   5  23
ATOM     23  S   UNL     1      -6.123  13.205  23.590  0.00  0.00    +0.000 S 
ATOM     24  C   UNL     1      -7.188  12.577  22.323  0.00  0.00    +0.000 C 
ATOM     25  O   UNL     1      -5.827  12.118  24.511  0.00  0.00    +0.000 OA
ATOM     26  O   UNL     1      -6.679  14.453  24.078  0.00  0.00    +0.000 OA
ENDBRANCH   5  23
BRANCH   2  27
ATOM     27  O   UNL     1      -1.510  10.968  22.790  0.00  0.00    +0.000 OA
ATOM     28  H   UNL     1      -1.472  10.079  22.399  0.00  0.00    +0.000 HD
ENDBRANCH   2  27
TORSDOF 4
ENDMDL
MODEL 8
REMARK VINA RESULT:      -6.6      0.926      1.054
REMARK  Name = 
REMARK  7 active torsions:
REMARK  status: ('A' for Active; 'I' for Inactive)
REMARK    1  A    between atoms: C_1  and  N_2
REMARK    2  A    between atoms: N_2  and  C_22
REMARK    3  A    between atoms: C_3  and  C_5
REMARK    4  A    between atoms: C_6  and  O_7
REMARK    5  A    between atoms: C_10  and  S_11
REMARK    6  A    between atoms: S_11  and  C_12
REMARK    7  A    between atoms: N_18  and  C_19
REMARK                            x       y       z     vdW  Elec       q    Type
REMARK                         _______ _______ _______ _____ _____    ______ ____
ROOT
ATOM      1  C   UNL     1       1.215  10.512  18.549  0.00  0.00    +0.000 A 
ATOM      2  C   UNL     1       1.859  11.668  18.300  0.00  0.00    +0.000 A 
ATOM      3  C   UNL     1       1.370  12.943  18.807  0.00  0.00    +0.000 A 
ATOM      4  C   UNL     1       2.261  14.027  18.934  0.00  0.00    +0.000 A 
ATOM      5  C   UNL     1       1.792  15.267  19.307  0.00  0.00    +0.000 A 
ATOM      6  C   UNL     1       0.437  15.434  19.589  0.00  0.00    +0.000 A 
ATOM      7  C   UNL     1      -0.441  14.344  19.509  0.00  0.00    +0.000 A 
ATOM      8  C   UNL     1       0.023  13.074  19.148  0.00  0.00    +0.000 A 
ATOM      9  N   UNL     1      -0.795  11.915  19.137  0.00  0.00    +0.000 N 
ATOM     10  C   UNL     1      -2.233  11.963  19.340  0.00  0.00    +0.000 C 
ATOM     11  C   UNL     1      -0.252  10.631  18.929  0.00  0.00    +0.000 A 
ATOM     12  O   UNL     1      -0.984   9.640  18.995  0.00  0.00    +0.000 OA
ENDROOT
BRANCH   1  15
ATOM     13  C   UNL     1       1.528   8.292  20.663  0.00  0.00    +0.000 C 
ATOM     14  N   UNL     1       1.929   8.152  19.242  0.00  0.00    +0.000 N 
ATOM     15  C   UNL     1       1.781   9.148  18.239  0.00  0.00    +0.000 C 
ATOM     16  O   UNL     1       2.065   8.948  17.056  0.00  0.00    +0.000 OA
BRANCH  14  17
ATOM     17  C   UNL     1       2.466   6.836  18.904  0.00  0.00    +0.000 A 
ATOM     18  C   UNL     1       1.778   5.888  18.132  0.00  0.00    +0.000 A 
ATOM     19  C   UNL     1       2.287   4.602  17.934  0.00  0.00    +0.000 A 
ATOM     20  C   UNL     1       3.503   4.252  18.464  0.00  0.00    +0.000 A 
ATOM     21  C   UNL     1       4.249   5.176  19.176  0.00  0.00    +0.000 A 
ATOM     22  C   UNL     1       3.736   6.448  19.375  0.00  0.00    +0.000 A 
ENDBRANCH  14  17
ENDBRANCH   1  15
BRANCH   5  23
ATOM     23  S   UNL     1       2.920  16.623  19.482  0.00  0.00    +0.000 S 
ATOM     24  C   UNL     1       4.308  16.148  18.491  0.00  0.00    +0.000 C 
ATOM     25  O   UNL     1       2.298  17.782  18.861  0.00  0.00    +0.000 OA
ATOM     26  O   UNL     1       3.343  16.669  20.869  0.00  0.00    +0.000 OA
ENDBRANCH   5  23
BRANCH   2  27
ATOM     27  O   UNL     1       3.012  11.807  17.555  0.00  0.00    +0.000 OA
ATOM     28  H   UNL     1       3.181  12.753  17.415  0.00  0.00    +0.000 HD
ENDBRANCH   2  27
TORSDOF 4
ENDMDL
MODEL 9
REMARK VINA RESULT:      -6.5      6.117      9.216
REMARK  Name = 
REMARK  7 active torsions:
REMARK  status: ('A' for Active; 'I' for Inactive)
REMARK    1  A    between atoms: C_1  and  N_2
REMARK    2  A    between atoms: N_2  and  C_22
REMARK    3  A    between atoms: C_3  and  C_5
REMARK    4  A    between atoms: C_6  and  O_7
REMARK    5  A    between atoms: C_10  and  S_11
REMARK    6  A    between atoms: S_11  and  C_12
REMARK    7  A    between atoms: N_18  and  C_19
REMARK                            x       y       z     vdW  Elec       q    Type
REMARK                         _______ _______ _______ _____ _____    ______ ____
ROOT
ATOM      1  C   UNL     1       5.471  15.697  19.943  0.00  0.00    +0.000 A 
ATOM      2  C   UNL     1       6.719  15.702  19.442  0.00  0.00    +0.000 A 
ATOM      3  C   UNL     1       7.724  14.739  19.873  0.00  0.00    +0.000 A 
ATOM      4  C   UNL     1       8.828  14.467  19.040  0.00  0.00    +0.000 A 
ATOM      5  C   UNL     1       9.839  13.642  19.480  0.00  0.00    +0.000 A 
ATOM      6  C   UNL     1       9.748  13.054  20.741  0.00  0.00    +0.000 A 
ATOM      7  C   UNL     1       8.626  13.286  21.550  0.00  0.00    +0.000 A 
ATOM      8  C   UNL     1       7.582  14.108  21.109  0.00  0.00    +0.000 A 
ATOM      9  N   UNL     1       6.383  14.310  21.840  0.00  0.00    +0.000 N 
ATOM     10  C   UNL     1       6.191  13.815  23.193  0.00  0.00    +0.000 C 
ATOM     11  C   UNL     1       5.291  15.010  21.288  0.00  0.00    +0.000 A 
ATOM     12  O   UNL     1       4.240  15.106  21.927  0.00  0.00    +0.000 OA
ENDROOT
BRANCH   1  15
ATOM     13  C   UNL     1       3.120  14.485  18.361  0.00  0.00    +0.000 C 
ATOM     14  N   UNL     1       3.275  15.932  18.646  0.00  0.00    +0.000 N 
ATOM     15  C   UNL     1       4.336  16.521  19.388  0.00  0.00    +0.000 C 
ATOM     16  O   UNL     1       4.372  17.724  19.655  0.00  0.00    +0.000 OA
BRANCH  14  17
ATOM     17  C   UNL     1       2.183  16.757  18.134  0.00  0.00    +0.000 A 
ATOM     18  C   UNL     1       0.936  16.878  18.766  0.00  0.00    +0.000 A 
ATOM     19  C   UNL     1      -0.114  17.589  18.176  0.00  0.00    +0.000 A 
ATOM     20  C   UNL     1       0.072  18.221  16.974  0.00  0.00    +0.000 A 
ATOM     21  C   UNL     1       1.306  18.186  16.347  0.00  0.00    +0.000 A 
ATOM     22  C   UNL     1       2.342  17.476  16.933  0.00  0.00    +0.000 A 
ENDBRANCH  14  17
ENDBRANCH   1  15
BRANCH   5  23
ATOM     23  S   UNL     1      11.217  13.290  18.422  0.00  0.00    +0.000 S 
ATOM     24  C   UNL     1      11.893  11.798  19.093  0.00  0.00    +0.000 C 
ATOM     25  O   UNL     1      10.681  12.990  17.104  0.00  0.00    +0.000 OA
ATOM     26  O   UNL     1      12.189  14.352  18.597  0.00  0.00    +0.000 OA
ENDBRANCH   5  23
BRANCH   2  27
ATOM     27  O   UNL     1       7.210  16.586  18.502  0.00  0.00    +0.000 OA
ATOM     28  H   UNL     1       6.862  17.472  18.696  0.00  0.00    +0.000 HD
ENDBRANCH   2  27
TORSDOF 4
ENDMDL
