MODEL 1
REMARK VINA RESULT:      -8.2      0.000      0.000
REMARK  Name = 
REMARK  7 active torsions:
REMARK  status: ('A' for Active; 'I' for Inactive)
REMARK    1  A    between atoms: C_1  and  N_2
REMARK    2  A    between atoms: C_5  and  C_6
REMARK    3  A    between atoms: C_11  and  N_12
REMARK    4  A    between atoms: N_15  and  C_16
REMARK    5  A    between atoms: N_21  and  C_22
REMARK    6  A    between atoms: C_22  and  C_23
REMARK    7  A    between atoms: C_31  and  C_32
REMARK                            x       y       z     vdW  Elec       q    Type
REMARK                         _______ _______ _______ _____ _____    ______ ____
ROOT
ATOM      1  C   UNL     1      -0.289  10.896  21.330  0.00  0.00    +0.000 A 
ATOM      2  N   UNL     1       0.052   9.884  22.113  0.00  0.00    +0.000 NA
ATOM      3  C   UNL     1       0.727   8.994  21.321  0.00  0.00    +0.000 A 
ATOM      4  C   UNL     1       1.262   7.741  21.618  0.00  0.00    +0.000 A 
ATOM      5  N   UNL     1       1.922   7.033  20.663  0.00  0.00    +0.000 NA
ATOM      6  C   UNL     1       2.102   7.531  19.415  0.00  0.00    +0.000 A 
ATOM      7  C   UNL     1       1.600   8.792  19.068  0.00  0.00    +0.000 A 
ATOM      8  C   UNL     1       0.875   9.487  20.039  0.00  0.00    +0.000 A 
ATOM      9  N   UNL     1       0.156  10.667  20.035  0.00  0.00    +0.000 N 
ENDROOT
BRANCH   1  14
ATOM     10  C   UNL     1      -0.457  15.545  19.366  0.00  0.00    +0.000 C 
ATOM     11  N   UNL     1      -0.994  15.543  20.707  0.00  0.00    +0.000 N 
ATOM     12  C   UNL     1      -1.301  14.365  21.356  0.00  0.00    +0.000 A 
ATOM     13  N   UNL     1      -0.654  13.258  21.054  0.00  0.00    +0.000 NA
ATOM     14  C   UNL     1      -0.984  12.078  21.702  0.00  0.00    +0.000 A 
ATOM     15  C   UNL     1      -1.968  11.977  22.613  0.00  0.00    +0.000 A 
ATOM     16  N   UNL     1      -2.649  13.124  22.960  0.00  0.00    +0.000 N 
ATOM     17  C   UNL     1      -3.681  13.412  23.814  0.00  0.00    +0.000 A 
ATOM     18  C   UNL     1      -4.381  12.422  24.660  0.00  0.00    +0.000 C 
ATOM     19  N   UNL     1      -3.939  14.707  23.747  0.00  0.00    +0.000 NA
ATOM     20  N   UNL     1      -3.088  15.277  22.826  0.00  0.00    +0.000 NA
ATOM     21  C   UNL     1      -2.330  14.308  22.365  0.00  0.00    +0.000 A 
ATOM     22  H   UNL     1      -1.666  16.287  20.886  0.00  0.00    +0.000 HD
ENDBRANCH   1  14
BRANCH   6  23
ATOM     23  N   UNL     1       2.870   6.798  18.524  0.00  0.00    +0.000 N 
ATOM     24  C   UNL     1       2.364   5.473  18.116  0.00  0.00    +0.000 C 
ATOM     25  C   UNL     1       3.556   4.584  17.681  0.00  0.00    +0.000 C 
ATOM     26  N   UNL     1       4.400   5.201  16.629  0.00  0.00    +0.000 NA
ATOM     27  C   UNL     1       5.570   4.367  16.358  0.00  0.00    +0.000 C 
ATOM     28  C   UNL     1       4.825   6.548  17.066  0.00  0.00    +0.000 C 
ATOM     29  C   UNL     1       3.633   7.452  17.453  0.00  0.00    +0.000 C 
ENDBRANCH   6  23
BRANCH   9  30
ATOM     30  C   UNL     1      -0.127  11.455  18.835  0.00  0.00    +0.000 C 
BRANCH  30  31
ATOM     31  C   UNL     1      -1.420  11.081  18.146  0.00  0.00    +0.000 A 
ATOM     32  C   UNL     1      -1.560  10.025  17.235  0.00  0.00    +0.000 A 
ATOM     33  C   UNL     1      -2.778   9.801  16.599  0.00  0.00    +0.000 A 
ATOM     34  C   UNL     1      -3.840  10.628  16.910  0.00  0.00    +0.000 A 
ATOM     35  N   UNL     1      -3.769  11.623  17.816  0.00  0.00    +0.000 NA
ATOM     36  C   UNL     1      -2.569  11.824  18.410  0.00  0.00    +0.000 A 
ENDBRANCH  30  31
ENDBRANCH   9  30
TORSDOF 4
ENDMDL
MODEL 2
REMARK VINA RESULT:      -8.1      1.373      1.585
REMARK  Name = 
REMARK  7 active torsions:
REMARK  status: ('A' for Active; 'I' for Inactive)
REMARK    1  A    between atoms: C_1  and  N_2
REMARK    2  A    between atoms: C_5  and  C_6
REMARK    3  A    between atoms: C_11  and  N_12
REMARK    4  A    between atoms: N_15  and  C_16
REMARK    5  A    between atoms: N_21  and  C_22
REMARK    6  A    between atoms: C_22  and  C_23
REMARK    7  A    between atoms: C_31  and  C_32
REMARK                            x       y       z     vdW  Elec       q    Type
REMARK                         _______ _______ _______ _____ _____    ______ ____
ROOT
ATOM      1  C   UNL     1      -1.010  11.938  22.132  0.00  0.00    +0.000 A 
ATOM      2  N   UNL     1      -0.537  11.035  22.978  0.00  0.00    +0.000 NA
ATOM      3  C   UNL     1       0.134  10.112  22.222  0.00  0.00    +0.000 A 
ATOM      4  C   UNL     1       0.779   8.933  22.593  0.00  0.00    +0.000 A 
ATOM      5  N   UNL     1       1.410   8.173  21.659  0.00  0.00    +0.000 NA
ATOM      6  C   UNL     1       1.455   8.550  20.358  0.00  0.00    +0.000 A 
ATOM      7  C   UNL     1       0.839   9.734  19.933  0.00  0.00    +0.000 A 
ATOM      8  C   UNL     1       0.145  10.479  20.890  0.00  0.00    +0.000 A 
ATOM      9  N   UNL     1      -0.653  11.605  20.832  0.00  0.00    +0.000 N 
ENDROOT
BRANCH   1  14
ATOM     10  C   UNL     1      -0.196  16.854  21.314  0.00  0.00    +0.000 C 
ATOM     11  N   UNL     1      -1.237  16.671  22.300  0.00  0.00    +0.000 N 
ATOM     12  C   UNL     1      -1.824  15.439  22.504  0.00  0.00    +0.000 A 
ATOM     13  N   UNL     1      -1.148  14.338  22.251  0.00  0.00    +0.000 NA
ATOM     14  C   UNL     1      -1.755  13.107  22.445  0.00  0.00    +0.000 A 
ATOM     15  C   UNL     1      -3.030  12.958  22.849  0.00  0.00    +0.000 A 
ATOM     16  N   UNL     1      -3.753  14.096  23.137  0.00  0.00    +0.000 N 
ATOM     17  C   UNL     1      -5.035  14.343  23.555  0.00  0.00    +0.000 A 
ATOM     18  C   UNL     1      -6.053  13.306  23.821  0.00  0.00    +0.000 C 
ATOM     19  N   UNL     1      -5.198  15.651  23.673  0.00  0.00    +0.000 NA
ATOM     20  N   UNL     1      -4.024  16.273  23.309  0.00  0.00    +0.000 NA
ATOM     21  C   UNL     1      -3.178  15.322  22.987  0.00  0.00    +0.000 A 
ATOM     22  H   UNL     1      -1.897  17.445  22.355  0.00  0.00    +0.000 HD
ENDBRANCH   1  14
BRANCH   6  23
ATOM     23  N   UNL     1       2.201   7.779  19.480  0.00  0.00    +0.000 N 
ATOM     24  C   UNL     1       2.294   6.331  19.753  0.00  0.00    +0.000 C 
ATOM     25  C   UNL     1       3.593   5.775  19.118  0.00  0.00    +0.000 C 
ATOM     26  N   UNL     1       3.717   6.073  17.671  0.00  0.00    +0.000 NA
ATOM     27  C   UNL     1       5.017   5.631  17.169  0.00  0.00    +0.000 C 
ATOM     28  C   UNL     1       3.554   7.526  17.451  0.00  0.00    +0.000 C 
ATOM     29  C   UNL     1       2.235   8.073  18.041  0.00  0.00    +0.000 C 
ENDBRANCH   6  23
BRANCH   9  30
ATOM     30  C   UNL     1      -1.085  12.245  19.590  0.00  0.00    +0.000 C 
BRANCH  30  31
ATOM     31  C   UNL     1      -2.310  11.614  18.967  0.00  0.00    +0.000 A 
ATOM     32  C   UNL     1      -2.282  10.524  18.088  0.00  0.00    +0.000 A 
ATOM     33  C   UNL     1      -3.460  10.055  17.510  0.00  0.00    +0.000 A 
ATOM     34  C   UNL     1      -4.647  10.676  17.849  0.00  0.00    +0.000 A 
ATOM     35  N   UNL     1      -4.730  11.694  18.728  0.00  0.00    +0.000 NA
ATOM     36  C   UNL     1      -3.567  12.136  19.264  0.00  0.00    +0.000 A 
ENDBRANCH  30  31
ENDBRANCH   9  30
TORSDOF 4
ENDMDL
MODEL 3
REMARK VINA RESULT:      -8.1      2.056      9.908
REMARK  Name = 
REMARK  7 active torsions:
REMARK  status: ('A' for Active; 'I' for Inactive)
REMARK    1  A    between atoms: C_1  and  N_2
REMARK    2  A    between atoms: C_5  and  C_6
REMARK    3  A    between atoms: C_11  and  N_12
REMARK    4  A    between atoms: N_15  and  C_16
REMARK    5  A    between atoms: N_21  and  C_22
REMARK    6  A    between atoms: C_22  and  C_23
REMARK    7  A    between atoms: C_31  and  C_32
REMARK                            x       y       z     vdW  Elec       q    Type
REMARK                         _______ _______ _______ _____ _____    ______ ____
ROOT
ATOM      1  C   UNL     1       2.558   7.602  18.398  0.00  0.00    +0.000 A 
ATOM      2  N   UNL     1       1.971   8.434  17.551  0.00  0.00    +0.000 NA
ATOM      3  C   UNL     1       1.068   9.156  18.282  0.00  0.00    +0.000 A 
ATOM      4  C   UNL     1       0.152  10.129  17.885  0.00  0.00    +0.000 A 
ATOM      5  N   UNL     1      -0.642  10.740  18.805  0.00  0.00    +0.000 NA
ATOM      6  C   UNL     1      -0.547  10.444  20.124  0.00  0.00    +0.000 A 
ATOM      7  C   UNL     1       0.368   9.486  20.580  0.00  0.00    +0.000 A 
ATOM      8  C   UNL     1       1.139   8.824  19.621  0.00  0.00    +0.000 A 
ATOM      9  N   UNL     1       2.039   7.777  19.673  0.00  0.00    +0.000 N 
ENDROOT
BRANCH   1  14
ATOM     10  C   UNL     1       2.497   2.727  17.084  0.00  0.00    +0.000 C 
ATOM     11  N   UNL     1       3.819   3.116  17.520  0.00  0.00    +0.000 N 
ATOM     12  C   UNL     1       4.160   4.443  17.679  0.00  0.00    +0.000 A 
ATOM     13  N   UNL     1       3.234   5.332  17.972  0.00  0.00    +0.000 NA
ATOM     14  C   UNL     1       3.588   6.665  18.113  0.00  0.00    +0.000 A 
ATOM     15  C   UNL     1       4.837   7.128  17.929  0.00  0.00    +0.000 A 
ATOM     16  N   UNL     1       5.829   6.216  17.638  0.00  0.00    +0.000 N 
ATOM     17  C   UNL     1       7.173   6.301  17.387  0.00  0.00    +0.000 A 
ATOM     18  C   UNL     1       7.954   7.556  17.370  0.00  0.00    +0.000 C 
ATOM     19  N   UNL     1       7.641   5.084  17.162  0.00  0.00    +0.000 NA
ATOM     20  N   UNL     1       6.596   4.191  17.243  0.00  0.00    +0.000 NA
ATOM     21  C   UNL     1       5.522   4.894  17.524  0.00  0.00    +0.000 A 
ATOM     22  H   UNL     1       4.569   2.553  17.124  0.00  0.00    +0.000 HD
ENDBRANCH   1  14
BRANCH   6  23
ATOM     23  N   UNL     1      -1.316  11.176  21.015  0.00  0.00    +0.000 N 
ATOM     24  C   UNL     1      -0.848  11.260  22.412  0.00  0.00    +0.000 C 
ATOM     25  C   UNL     1      -2.059  11.529  23.341  0.00  0.00    +0.000 C 
ATOM     26  N   UNL     1      -2.849  12.722  22.950  0.00  0.00    +0.000 NA
ATOM     27  C   UNL     1      -4.041  12.842  23.789  0.00  0.00    +0.000 C 
ATOM     28  C   UNL     1      -3.237  12.612  21.527  0.00  0.00    +0.000 C 
ATOM     29  C   UNL     1      -2.024  12.393  20.595  0.00  0.00    +0.000 C 
ENDBRANCH   6  23
BRANCH   9  30
ATOM     30  C   UNL     1       2.300   6.974  20.867  0.00  0.00    +0.000 C 
BRANCH  30  31
ATOM     31  C   UNL     1       1.945   5.512  20.714  0.00  0.00    +0.000 A 
ATOM     32  C   UNL     1       0.767   5.037  20.121  0.00  0.00    +0.000 A 
ATOM     33  C   UNL     1       0.497   3.671  20.087  0.00  0.00    +0.000 A 
ATOM     34  C   UNL     1       1.429   2.806  20.628  0.00  0.00    +0.000 A 
ATOM     35  N   UNL     1       2.599   3.212  21.163  0.00  0.00    +0.000 NA
ATOM     36  C   UNL     1       2.828   4.546  21.192  0.00  0.00    +0.000 A 
ENDBRANCH  30  31
ENDBRANCH   9  30
TORSDOF 4
ENDMDL
MODEL 4
REMARK VINA RESULT:      -8.0      1.509      2.780
REMARK  Name = 
REMARK  7 active torsions:
REMARK  status: ('A' for Active; 'I' for Inactive)
REMARK    1  A    between atoms: C_1  and  N_2
REMARK    2  A    between atoms: C_5  and  C_6
REMARK    3  A    between atoms: C_11  and  N_12
REMARK    4  A    between atoms: N_15  and  C_16
REMARK    5  A    between atoms: N_21  and  C_22
REMARK    6  A    between atoms: C_22  and  C_23
REMARK    7  A    between atoms: C_31  and  C_32
REMARK                            x       y       z     vdW  Elec       q    Type
REMARK                         _______ _______ _______ _____ _____    ______ ____
ROOT
ATOM      1  C   UNL     1      -1.141  12.187  22.193  0.00  0.00    +0.000 A 
ATOM      2  N   UNL     1      -0.673  11.300  23.058  0.00  0.00    +0.000 NA
ATOM      3  C   UNL     1      -0.010  10.355  22.321  0.00  0.00    +0.000 A 
ATOM      4  C   UNL     1       0.626   9.180  22.717  0.00  0.00    +0.000 A 
ATOM      5  N   UNL     1       1.250   8.395  21.799  0.00  0.00    +0.000 NA
ATOM      6  C   UNL     1       1.294   8.742  20.489  0.00  0.00    +0.000 A 
ATOM      7  C   UNL     1       0.686   9.921  20.040  0.00  0.00    +0.000 A 
ATOM      8  C   UNL     1       0.000  10.692  20.982  0.00  0.00    +0.000 A 
ATOM      9  N   UNL     1      -0.790  11.823  20.900  0.00  0.00    +0.000 N 
ENDROOT
BRANCH   1  14
ATOM     10  C   UNL     1      -5.837  12.982  23.871  0.00  0.00    +0.000 C 
ATOM     11  N   UNL     1      -5.283  14.199  23.324  0.00  0.00    +0.000 N 
ATOM     12  C   UNL     1      -3.936  14.313  23.044  0.00  0.00    +0.000 A 
ATOM     13  N   UNL     1      -3.233  13.241  22.744  0.00  0.00    +0.000 NA
ATOM     14  C   UNL     1      -1.878  13.368  22.482  0.00  0.00    +0.000 A 
ATOM     15  C   UNL     1      -1.209  14.533  22.551  0.00  0.00    +0.000 A 
ATOM     16  N   UNL     1      -1.926  15.673  22.846  0.00  0.00    +0.000 N 
ATOM     17  C   UNL     1      -1.610  16.997  23.005  0.00  0.00    +0.000 A 
ATOM     18  C   UNL     1      -0.251  17.563  22.879  0.00  0.00    +0.000 C 
ATOM     19  N   UNL     1      -2.715  17.666  23.291  0.00  0.00    +0.000 NA
ATOM     20  N   UNL     1      -3.765  16.776  23.343  0.00  0.00    +0.000 NA
ATOM     21  C   UNL     1      -3.266  15.590  23.079  0.00  0.00    +0.000 A 
ATOM     22  H   UNL     1      -5.686  15.050  23.712  0.00  0.00    +0.000 HD
ENDBRANCH   1  14
BRANCH   6  23
ATOM     23  N   UNL     1       2.032   7.946  19.627  0.00  0.00    +0.000 N 
ATOM     24  C   UNL     1       2.114   6.504  19.932  0.00  0.00    +0.000 C 
ATOM     25  C   UNL     1       3.408   5.924  19.307  0.00  0.00    +0.000 C 
ATOM     26  N   UNL     1       3.532   6.190  17.853  0.00  0.00    +0.000 NA
ATOM     27  C   UNL     1       4.828   5.726  17.359  0.00  0.00    +0.000 C 
ATOM     28  C   UNL     1       3.381   7.639  17.603  0.00  0.00    +0.000 C 
ATOM     29  C   UNL     1       2.067   8.209  18.183  0.00  0.00    +0.000 C 
ENDBRANCH   6  23
BRANCH   9  30
ATOM     30  C   UNL     1      -1.220  12.438  19.645  0.00  0.00    +0.000 C 
BRANCH  30  31
ATOM     31  C   UNL     1      -2.423  11.772  19.015  0.00  0.00    +0.000 A 
ATOM     32  C   UNL     1      -2.358  10.715  18.098  0.00  0.00    +0.000 A 
ATOM     33  C   UNL     1      -3.521  10.213  17.519  0.00  0.00    +0.000 A 
ATOM     34  C   UNL     1      -4.730  10.767  17.893  0.00  0.00    +0.000 A 
ATOM     35  N   UNL     1      -4.847  11.750  18.808  0.00  0.00    +0.000 NA
ATOM     36  C   UNL     1      -3.699  12.226  19.345  0.00  0.00    +0.000 A 
ENDBRANCH  30  31
ENDBRANCH   9  30
TORSDOF 4
ENDMDL
MODEL 5
REMARK VINA RESULT:      -8.0      1.639      2.216
REMARK  Name = 
REMARK  7 active torsions:
REMARK  status: ('A' for Active; 'I' for Inactive)
REMARK    1  A    between atoms: C_1  and  N_2
REMARK    2  A    between atoms: C_5  and  C_6
REMARK    3  A    between atoms: C_11  and  N_12
REMARK    4  A    between atoms: N_15  and  C_16
REMARK    5  A    between atoms: N_21  and  C_22
REMARK    6  A    between atoms: C_22  and  C_23
REMARK    7  A    between atoms: C_31  and  C_32
REMARK                            x       y       z     vdW  Elec       q    Type
REMARK                         _______ _______ _______ _____ _____    ______ ____
ROOT
ATOM      1  C   UNL     1      -0.967  12.104  22.648  0.00  0.00    +0.000 A 
ATOM      2  N   UNL     1      -0.689  11.022  23.360  0.00  0.00    +0.000 NA
ATOM      3  C   UNL     1      -0.054  10.155  22.512  0.00  0.00    +0.000 A 
ATOM      4  C   UNL     1       0.411   8.858  22.724  0.00  0.00    +0.000 A 
ATOM      5  N   UNL     1       1.044   8.185  21.727  0.00  0.00    +0.000 NA
ATOM      6  C   UNL     1       1.264   8.759  20.519  0.00  0.00    +0.000 A 
ATOM      7  C   UNL     1       0.833  10.066  20.258  0.00  0.00    +0.000 A 
ATOM      8  C   UNL     1       0.135  10.729  21.270  0.00  0.00    +0.000 A 
ATOM      9  N   UNL     1      -0.520  11.944  21.344  0.00  0.00    +0.000 N 
ENDROOT
BRANCH   1  14
ATOM     10  C   UNL     1       0.690  16.816  23.392  0.00  0.00    +0.000 C 
ATOM     11  N   UNL     1      -0.587  16.620  24.042  0.00  0.00    +0.000 N 
ATOM     12  C   UNL     1      -1.368  15.515  23.772  0.00  0.00    +0.000 A 
ATOM     13  N   UNL     1      -0.806  14.391  23.381  0.00  0.00    +0.000 NA
ATOM     14  C   UNL     1      -1.603  13.293  23.098  0.00  0.00    +0.000 A 
ATOM     15  C   UNL     1      -2.947  13.311  23.160  0.00  0.00    +0.000 A 
ATOM     16  N   UNL     1      -3.559  14.471  23.583  0.00  0.00    +0.000 N 
ATOM     17  C   UNL     1      -4.859  14.864  23.765  0.00  0.00    +0.000 A 
ATOM     18  C   UNL     1      -6.043  14.017  23.512  0.00  0.00    +0.000 C 
ATOM     19  N   UNL     1      -4.868  16.115  24.194  0.00  0.00    +0.000 NA
ATOM     20  N   UNL     1      -3.568  16.560  24.276  0.00  0.00    +0.000 NA
ATOM     21  C   UNL     1      -2.804  15.560  23.900  0.00  0.00    +0.000 A 
ATOM     22  H   UNL     1      -1.127  17.475  24.161  0.00  0.00    +0.000 HD
ENDBRANCH   1  14
BRANCH   6  23
ATOM     23  N   UNL     1       2.003   8.051  19.584  0.00  0.00    +0.000 N 
ATOM     24  C   UNL     1       2.173   6.601  19.806  0.00  0.00    +0.000 C 
ATOM     25  C   UNL     1       3.466   6.126  19.096  0.00  0.00    +0.000 C 
ATOM     26  N   UNL     1       3.511   6.474  17.655  0.00  0.00    +0.000 NA
ATOM     27  C   UNL     1       4.805   6.108  17.082  0.00  0.00    +0.000 C 
ATOM     28  C   UNL     1       3.272   7.924  17.491  0.00  0.00    +0.000 C 
ATOM     29  C   UNL     1       1.958   8.390  18.156  0.00  0.00    +0.000 C 
ENDBRANCH   6  23
BRANCH   9  30
ATOM     30  C   UNL     1      -0.747  12.827  20.201  0.00  0.00    +0.000 C 
BRANCH  30  31
ATOM     31  C   UNL     1      -1.846  12.361  19.273  0.00  0.00    +0.000 A 
ATOM     32  C   UNL     1      -3.203  12.299  19.615  0.00  0.00    +0.000 A 
ATOM     33  C   UNL     1      -4.135  11.789  18.713  0.00  0.00    +0.000 A 
ATOM     34  C   UNL     1      -3.686  11.375  17.474  0.00  0.00    +0.000 A 
ATOM     35  N   UNL     1      -2.400  11.463  17.080  0.00  0.00    +0.000 NA
ATOM     36  C   UNL     1      -1.516  11.951  17.982  0.00  0.00    +0.000 A 
ENDBRANCH  30  31
ENDBRANCH   9  30
TORSDOF 4
ENDMDL
MODEL 6
REMARK VINA RESULT:      -7.9      1.094      1.293
REMARK  Name = 
REMARK  7 active torsions:
REMARK  status: ('A' for Active; 'I' for Inactive)
REMARK    1  A    between atoms: C_1  and  N_2
REMARK    2  A    between atoms: C_5  and  C_6
REMARK    3  A    between atoms: C_11  and  N_12
REMARK    4  A    between atoms: N_15  and  C_16
REMARK    5  A    between atoms: N_21  and  C_22
REMARK    6  A    between atoms: C_22  and  C_23
REMARK    7  A    between atoms: C_31  and  C_32
REMARK                            x       y       z     vdW  Elec       q    Type
REMARK                         _______ _______ _______ _____ _____    ______ ____
ROOT
ATOM      1  C   UNL     1      -0.039  10.810  21.310  0.00  0.00    +0.000 A 
ATOM      2  N   UNL     1       0.253   9.771  22.079  0.00  0.00    +0.000 NA
ATOM      3  C   UNL     1       0.886   8.861  21.275  0.00  0.00    +0.000 A 
ATOM      4  C   UNL     1       1.361   7.581  21.555  0.00  0.00    +0.000 A 
ATOM      5  N   UNL     1       1.987   6.856  20.590  0.00  0.00    +0.000 NA
ATOM      6  C   UNL     1       2.191   7.363  19.350  0.00  0.00    +0.000 A 
ATOM      7  C   UNL     1       1.750   8.650  19.020  0.00  0.00    +0.000 A 
ATOM      8  C   UNL     1       1.058   9.365  20.001  0.00  0.00    +0.000 A 
ATOM      9  N   UNL     1       0.396  10.578  20.012  0.00  0.00    +0.000 N 
ENDROOT
BRANCH   1  14
ATOM     10  C   UNL     1       1.644  15.523  21.980  0.00  0.00    +0.000 C 
ATOM     11  N   UNL     1       0.340  15.361  22.584  0.00  0.00    +0.000 N 
ATOM     12  C   UNL     1      -0.443  14.257  22.316  0.00  0.00    +0.000 A 
ATOM     13  N   UNL     1       0.121  13.115  21.982  0.00  0.00    +0.000 NA
ATOM     14  C   UNL     1      -0.678  12.018  21.699  0.00  0.00    +0.000 A 
ATOM     15  C   UNL     1      -2.023  12.052  21.708  0.00  0.00    +0.000 A 
ATOM     16  N   UNL     1      -2.637  13.231  22.071  0.00  0.00    +0.000 N 
ATOM     17  C   UNL     1      -3.939  13.643  22.190  0.00  0.00    +0.000 A 
ATOM     18  C   UNL     1      -5.122  12.801  21.915  0.00  0.00    +0.000 C 
ATOM     19  N   UNL     1      -3.950  14.906  22.582  0.00  0.00    +0.000 NA
ATOM     20  N   UNL     1      -2.648  15.340  22.702  0.00  0.00    +0.000 NA
ATOM     21  C   UNL     1      -1.882  14.320  22.386  0.00  0.00    +0.000 A 
ATOM     22  H   UNL     1      -0.194  16.224  22.656  0.00  0.00    +0.000 HD
ENDBRANCH   1  14
BRANCH   6  23
ATOM     23  N   UNL     1       2.925   6.607  18.448  0.00  0.00    +0.000 N 
ATOM     24  C   UNL     1       2.341   5.329  17.995  0.00  0.00    +0.000 C 
ATOM     25  C   UNL     1       3.480   4.377  17.551  0.00  0.00    +0.000 C 
ATOM     26  N   UNL     1       4.379   4.968  16.529  0.00  0.00    +0.000 NA
ATOM     27  C   UNL     1       5.497   4.067  16.251  0.00  0.00    +0.000 C 
ATOM     28  C   UNL     1       4.883   6.272  17.011  0.00  0.00    +0.000 C 
ATOM     29  C   UNL     1       3.746   7.240  17.408  0.00  0.00    +0.000 C 
ENDBRANCH   6  23
BRANCH   9  30
ATOM     30  C   UNL     1       0.151  11.394  18.824  0.00  0.00    +0.000 C 
BRANCH  30  31
ATOM     31  C   UNL     1      -1.182  11.129  18.160  0.00  0.00    +0.000 A 
ATOM     32  C   UNL     1      -2.318  11.935  18.309  0.00  0.00    +0.000 A 
ATOM     33  C   UNL     1      -3.522  11.571  17.712  0.00  0.00    +0.000 A 
ATOM     34  C   UNL     1      -3.554  10.415  16.955  0.00  0.00    +0.000 A 
ATOM     35  N   UNL     1      -2.475   9.636  16.741  0.00  0.00    +0.000 NA
ATOM     36  C   UNL     1      -1.321  10.009  17.344  0.00  0.00    +0.000 A 
ENDBRANCH  30  31
ENDBRANCH   9  30
TORSDOF 4
ENDMDL
MODEL 7
REMARK VINA RESULT:      -7.8      1.488      1.764
REMARK  Name = 
REMARK  7 active torsions:
REMARK  status: ('A' for Active; 'I' for Inactive)
REMARK    1  A    between atoms: C_1  and  N_2
REMARK    2  A    between atoms: C_5  and  C_6
REMARK    3  A    between atoms: C_11  and  N_12
REMARK    4  A    between atoms: N_15  and  C_16
REMARK    5  A    between atoms: N_21  and  C_22
REMARK    6  A    between atoms: C_22  and  C_23
REMARK    7  A    between atoms: C_31  and  C_32
REMARK                            x       y       z     vdW  Elec       q    Type
REMARK                         _______ _______ _______ _____ _____    ______ ____
ROOT
ATOM      1  C   UNL     1      -0.370  12.231  21.008  0.00  0.00    +0.000 A 
ATOM      2  N   UNL     1      -0.044  11.532  22.084  0.00  0.00    +0.000 NA
ATOM      3  C   UNL     1       0.508  10.363  21.633  0.00  0.00    +0.000 A 
ATOM      4  C   UNL     1       0.976   9.252  22.334  0.00  0.00    +0.000 A 
ATOM      5  N   UNL     1       1.514   8.197  21.666  0.00  0.00    +0.000 NA
ATOM      6  C   UNL     1       1.637   8.207  20.316  0.00  0.00    +0.000 A 
ATOM      7  C   UNL     1       1.199   9.305  19.565  0.00  0.00    +0.000 A 
ATOM      8  C   UNL     1       0.597  10.359  20.255  0.00  0.00    +0.000 A 
ATOM      9  N   UNL     1      -0.037  11.522  19.861  0.00  0.00    +0.000 N 
ENDROOT
BRANCH   1  14
ATOM     10  C   UNL     1       1.009  16.545  18.774  0.00  0.00    +0.000 C 
ATOM     11  N   UNL     1      -0.006  16.794  19.773  0.00  0.00    +0.000 N 
ATOM     12  C   UNL     1      -0.731  15.763  20.333  0.00  0.00    +0.000 A 
ATOM     13  N   UNL     1      -0.207  14.557  20.414  0.00  0.00    +0.000 NA
ATOM     14  C   UNL     1      -0.953  13.526  20.964  0.00  0.00    +0.000 A 
ATOM     15  C   UNL     1      -2.219  13.669  21.397  0.00  0.00    +0.000 A 
ATOM     16  N   UNL     1      -2.784  14.925  21.339  0.00  0.00    +0.000 N 
ATOM     17  C   UNL     1      -4.007  15.448  21.669  0.00  0.00    +0.000 A 
ATOM     18  C   UNL     1      -5.134  14.675  22.231  0.00  0.00    +0.000 C 
ATOM     19  N   UNL     1      -4.003  16.742  21.395  0.00  0.00    +0.000 NA
ATOM     20  N   UNL     1      -2.778  17.073  20.861  0.00  0.00    +0.000 NA
ATOM     21  C   UNL     1      -2.068  15.968  20.833  0.00  0.00    +0.000 A 
ATOM     22  H   UNL     1      -0.563  17.629  19.599  0.00  0.00    +0.000 HD
ENDBRANCH   1  14
BRANCH   6  23
ATOM     23  N   UNL     1       2.286   7.141  19.712  0.00  0.00    +0.000 N 
ATOM     24  C   UNL     1       1.970   5.784  20.200  0.00  0.00    +0.000 C 
ATOM     25  C   UNL     1       3.167   4.845  19.906  0.00  0.00    +0.000 C 
ATOM     26  N   UNL     1       3.575   4.839  18.480  0.00  0.00    +0.000 NA
ATOM     27  C   UNL     1       4.781   4.032  18.298  0.00  0.00    +0.000 C 
ATOM     28  C   UNL     1       3.817   6.226  18.030  0.00  0.00    +0.000 C 
ATOM     29  C   UNL     1       2.605   7.152  18.278  0.00  0.00    +0.000 C 
ENDBRANCH   6  23
BRANCH   9  30
ATOM     30  C   UNL     1      -0.351  11.860  18.474  0.00  0.00    +0.000 C 
BRANCH  30  31
ATOM     31  C   UNL     1      -1.650  11.266  17.976  0.00  0.00    +0.000 A 
ATOM     32  C   UNL     1      -1.747  10.103  17.200  0.00  0.00    +0.000 A 
ATOM     33  C   UNL     1      -2.984   9.671  16.731  0.00  0.00    +0.000 A 
ATOM     34  C   UNL     1      -4.105  10.403  17.071  0.00  0.00    +0.000 A 
ATOM     35  N   UNL     1      -4.069  11.499  17.856  0.00  0.00    +0.000 NA
ATOM     36  C   UNL     1      -2.850  11.901  18.288  0.00  0.00    +0.000 A 
ENDBRANCH  30  31
ENDBRANCH   9  30
TORSDOF 4
ENDMDL
MODEL 8
REMARK VINA RESULT:      -7.8      1.299      2.836
REMARK  Name = 
REMARK  7 active torsions:
REMARK  status: ('A' for Active; 'I' for Inactive)
REMARK    1  A    between atoms: C_1  and  N_2
REMARK    2  A    between atoms: C_5  and  C_6
REMARK    3  A    between atoms: C_11  and  N_12
REMARK    4  A    between atoms: N_15  and  C_16
REMARK    5  A    between atoms: N_21  and  C_22
REMARK    6  A    between atoms: C_22  and  C_23
REMARK    7  A    between atoms: C_31  and  C_32
REMARK                            x       y       z     vdW  Elec       q    Type
REMARK                         _______ _______ _______ _____ _____    ______ ____
ROOT
ATOM      1  C   UNL     1      -0.506  12.256  21.142  0.00  0.00    +0.000 A 
ATOM      2  N   UNL     1      -0.146  11.541  22.197  0.00  0.00    +0.000 NA
ATOM      3  C   UNL     1       0.428  10.397  21.710  0.00  0.00    +0.000 A 
ATOM      4  C   UNL     1       0.934   9.283  22.378  0.00  0.00    +0.000 A 
ATOM      5  N   UNL     1       1.488   8.257  21.678  0.00  0.00    +0.000 NA
ATOM      6  C   UNL     1       1.588   8.300  20.327  0.00  0.00    +0.000 A 
ATOM      7  C   UNL     1       1.112   9.403  19.608  0.00  0.00    +0.000 A 
ATOM      8  C   UNL     1       0.494  10.427  20.331  0.00  0.00    +0.000 A 
ATOM      9  N   UNL     1      -0.175  11.582  19.974  0.00  0.00    +0.000 N 
ENDROOT
BRANCH   1  14
ATOM     10  C   UNL     1      -3.465  14.656  24.456  0.00  0.00    +0.000 C 
ATOM     11  N   UNL     1      -3.521  15.305  23.166  0.00  0.00    +0.000 N 
ATOM     12  C   UNL     1      -2.612  15.006  22.172  0.00  0.00    +0.000 A 
ATOM     13  N   UNL     1      -2.046  13.818  22.132  0.00  0.00    +0.000 NA
ATOM     14  C   UNL     1      -1.122  13.537  21.137  0.00  0.00    +0.000 A 
ATOM     15  C   UNL     1      -0.727  14.429  20.211  0.00  0.00    +0.000 A 
ATOM     16  N   UNL     1      -1.317  15.675  20.221  0.00  0.00    +0.000 N 
ATOM     17  C   UNL     1      -1.180  16.812  19.469  0.00  0.00    +0.000 A 
ATOM     18  C   UNL     1      -0.245  16.970  18.336  0.00  0.00    +0.000 C 
ATOM     19  N   UNL     1      -2.014  17.729  19.930  0.00  0.00    +0.000 NA
ATOM     20  N   UNL     1      -2.691  17.203  21.008  0.00  0.00    +0.000 NA
ATOM     21  C   UNL     1      -2.252  15.975  21.165  0.00  0.00    +0.000 A 
ATOM     22  H   UNL     1      -3.759  16.294  23.209  0.00  0.00    +0.000 HD
ENDBRANCH   1  14
BRANCH   6  23
ATOM     23  N   UNL     1       2.254   7.265  19.688  0.00  0.00    +0.000 N 
ATOM     24  C   UNL     1       2.033   5.896  20.195  0.00  0.00    +0.000 C 
ATOM     25  C   UNL     1       3.255   5.015  19.835  0.00  0.00    +0.000 C 
ATOM     26  N   UNL     1       3.583   5.023  18.388  0.00  0.00    +0.000 NA
ATOM     27  C   UNL     1       4.815   4.276  18.140  0.00  0.00    +0.000 C 
ATOM     28  C   UNL     1       3.732   6.419  17.924  0.00  0.00    +0.000 C 
ATOM     29  C   UNL     1       2.492   7.286  18.239  0.00  0.00    +0.000 C 
ENDBRANCH   6  23
BRANCH   9  30
ATOM     30  C   UNL     1      -0.520  11.943  18.600  0.00  0.00    +0.000 C 
BRANCH  30  31
ATOM     31  C   UNL     1      -1.809  11.324  18.108  0.00  0.00    +0.000 A 
ATOM     32  C   UNL     1      -1.884  10.228  17.239  0.00  0.00    +0.000 A 
ATOM     33  C   UNL     1      -3.120   9.772  16.786  0.00  0.00    +0.000 A 
ATOM     34  C   UNL     1      -4.259  10.412  17.236  0.00  0.00    +0.000 A 
ATOM     35  N   UNL     1      -4.239  11.437  18.111  0.00  0.00    +0.000 NA
ATOM     36  C   UNL     1      -3.023  11.866  18.525  0.00  0.00    +0.000 A 
ENDBRANCH  30  31
ENDBRANCH   9  30
TORSDOF 4
ENDMDL
MODEL 9
REMARK VINA RESULT:      -7.7      1.314      2.204
REMARK  Name = 
REMARK  7 active torsions:
REMARK  status: ('A' for Active; 'I' for Inactive)
REMARK    1  A    between atoms: C_1  and  N_2
REMARK    2  A    between atoms: C_5  and  C_6
REMARK    3  A    between atoms: C_11  and  N_12
REMARK    4  A    between atoms: N_15  and  C_16
REMARK    5  A    between atoms: N_21  and  C_22
REMARK    6  A    between atoms: C_22  and  C_23
REMARK    7  A    between atoms: C_31  and  C_32
REMARK                            x       y       z     vdW  Elec       q    Type
REMARK                         _______ _______ _______ _____ _____    ______ ____
ROOT
ATOM      1  C   UNL     1      -0.690  11.669  21.262  0.00  0.00    +0.000 A 
ATOM      2  N   UNL     1      -0.342  10.773  22.174  0.00  0.00    +0.000 NA
ATOM      3  C   UNL     1       0.351   9.796  21.512  0.00  0.00    +0.000 A 
ATOM      4  C   UNL     1       0.899   8.601  21.976  0.00  0.00    +0.000 A 
ATOM      5  N   UNL     1       1.576   7.782  21.128  0.00  0.00    +0.000 NA
ATOM      6  C   UNL     1       1.760   8.114  19.826  0.00  0.00    +0.000 A 
ATOM      7  C   UNL     1       1.245   9.310  19.312  0.00  0.00    +0.000 A 
ATOM      8  C   UNL     1       0.503  10.117  20.177  0.00  0.00    +0.000 A 
ATOM      9  N   UNL     1      -0.231  11.276  20.012  0.00  0.00    +0.000 N 
ENDROOT
BRANCH   1  14
ATOM     10  C   UNL     1      -5.611  12.732  21.651  0.00  0.00    +0.000 C 
ATOM     11  N   UNL     1      -4.849  13.940  21.425  0.00  0.00    +0.000 N 
ATOM     12  C   UNL     1      -3.474  13.954  21.545  0.00  0.00    +0.000 A 
ATOM     13  N   UNL     1      -2.782  12.855  21.330  0.00  0.00    +0.000 NA
ATOM     14  C   UNL     1      -1.403  12.880  21.470  0.00  0.00    +0.000 A 
ATOM     15  C   UNL     1      -0.712  13.967  21.856  0.00  0.00    +0.000 A 
ATOM     16  N   UNL     1      -1.411  15.135  22.071  0.00  0.00    +0.000 N 
ATOM     17  C   UNL     1      -1.072  16.404  22.464  0.00  0.00    +0.000 A 
ATOM     18  C   UNL     1       0.299  16.852  22.786  0.00  0.00    +0.000 C 
ATOM     19  N   UNL     1      -2.168  17.142  22.507  0.00  0.00    +0.000 NA
ATOM     20  N   UNL     1      -3.243  16.352  22.163  0.00  0.00    +0.000 NA
ATOM     21  C   UNL     1      -2.764  15.155  21.912  0.00  0.00    +0.000 A 
ATOM     22  H   UNL     1      -5.292  14.783  21.782  0.00  0.00    +0.000 HD
ENDBRANCH   1  14
BRANCH   6  23
ATOM     23  N   UNL     1       2.545   7.280  19.045  0.00  0.00    +0.000 N 
ATOM     24  C   UNL     1       2.295   5.828  19.132  0.00  0.00    +0.000 C 
ATOM     25  C   UNL     1       3.585   5.064  18.741  0.00  0.00    +0.000 C 
ATOM     26  N   UNL     1       4.123   5.454  17.415  0.00  0.00    +0.000 NA
ATOM     27  C   UNL     1       5.401   4.789  17.167  0.00  0.00    +0.000 C 
ATOM     28  C   UNL     1       4.294   6.921  17.364  0.00  0.00    +0.000 C 
ATOM     29  C   UNL     1       2.994   7.684  17.706  0.00  0.00    +0.000 C 
ENDBRANCH   6  23
BRANCH   9  30
ATOM     30  C   UNL     1      -0.514  11.894  18.717  0.00  0.00    +0.000 C 
BRANCH  30  31
ATOM     31  C   UNL     1      -1.714  11.308  18.006  0.00  0.00    +0.000 A 
ATOM     32  C   UNL     1      -1.674  10.180  17.176  0.00  0.00    +0.000 A 
ATOM     33  C   UNL     1      -2.820   9.756  16.509  0.00  0.00    +0.000 A 
ATOM     34  C   UNL     1      -3.992  10.459  16.709  0.00  0.00    +0.000 A 
ATOM     35  N   UNL     1      -4.092  11.519  17.538  0.00  0.00    +0.000 NA
ATOM     36  C   UNL     1      -2.958  11.915  18.163  0.00  0.00    +0.000 A 
ENDBRANCH  30  31
ENDBRANCH   9  30
TORSDOF 4
ENDMDL
