MODEL 1
REMARK VINA RESULT:      -7.8      0.000      0.000
REMARK  Name = 
REMARK  4 active torsions:
REMARK  status: ('A' for Active; 'I' for Inactive)
REMARK    1  A    between atoms: C_2  and  C_3
REMARK    2  A    between atoms: C_2  and  C_15
REMARK    3  A    between atoms: C_15  and  O_16
REMARK    4  A    between atoms: C_15  and  C_17
REMARK                            x       y       z     vdW  Elec       q    Type
REMARK                         _______ _______ _______ _____ _____    ______ ____
ROOT
ATOM      1  C   UNL     1       3.768   5.849  17.891  0.00  0.00    +0.000 A 
ATOM      2  N   UNL     1       3.209   6.959  17.480  0.00  0.00    +0.000 NA
ATOM      3  C   UNL     1       2.449   7.718  18.385  0.00  0.00    +0.000 A 
ATOM      4  C   UNL     1       1.831   8.884  17.933  0.00  0.00    +0.000 A 
ATOM      5  C   UNL     1       1.060   9.661  18.803  0.00  0.00    +0.000 A 
ATOM      6  C   UNL     1       0.903   9.266  20.131  0.00  0.00    +0.000 A 
ATOM      7 CL   UNL     1      -0.049  10.222  21.199  0.00  0.00    +0.000 Cl
ATOM      8  C   UNL     1       1.509   8.103  20.602  0.00  0.00    +0.000 A 
ATOM      9  C   UNL     1       2.278   7.338  19.725  0.00  0.00    +0.000 A 
ATOM     10  N   UNL     1       2.888   6.166  20.173  0.00  0.00    +0.000 N 
ATOM     11  C   UNL     1       3.628   5.372  19.333  0.00  0.00    +0.000 A 
ATOM     12  O   UNL     1       4.143   4.326  19.695  0.00  0.00    +0.000 OA
ATOM     13  H   UNL     1       2.786   5.856  21.133  0.00  0.00    +0.000 HD
ENDROOT
BRANCH   1  15
ATOM     14  O   UNL     1       4.219   3.869  16.660  0.00  0.00    +0.000 OA
ATOM     15  C   UNL     1       4.534   5.043  16.851  0.00  0.00    +0.000 C 
BRANCH  15  16
ATOM     16  C   UNL     1       5.687   5.723  16.121  0.00  0.00    +0.000 C 
BRANCH  16  17
ATOM     17  C   UNL     1       6.655   6.347  17.057  0.00  0.00    +0.000 A 
ATOM     18  C   UNL     1       7.358   5.853  18.139  0.00  0.00    +0.000 A 
ATOM     19  C   UNL     1       8.142   6.923  18.630  0.00  0.00    +0.000 A 
ATOM     20  C   UNL     1       7.877   7.998  17.817  0.00  0.00    +0.000 A 
ATOM     21  O   UNL     1       6.978   7.659  16.858  0.00  0.00    +0.000 OA
ENDBRANCH  16  17
BRANCH  16  22
ATOM     22  O   UNL     1       5.240   6.766  15.254  0.00  0.00    +0.000 OA
ATOM     23  H   UNL     1       4.889   7.468  15.831  0.00  0.00    +0.000 HD
ENDBRANCH  16  22
ENDBRANCH  15  16
ENDBRANCH   1  15
TORSDOF 4
ENDMDL
MODEL 2
REMARK VINA RESULT:      -7.6      3.123      4.007
REMARK  Name = 
REMARK  4 active torsions:
REMARK  status: ('A' for Active; 'I' for Inactive)
REMARK    1  A    between atoms: C_2  and  C_3
REMARK    2  A    between atoms: C_2  and  C_15
REMARK    3  A    between atoms: C_15  and  O_16
REMARK    4  A    between atoms: C_15  and  C_17
REMARK                            x       y       z     vdW  Elec       q    Type
REMARK                         _______ _______ _______ _____ _____    ______ ____
ROOT
ATOM      1  C   UNL     1       4.702   4.531  16.468  0.00  0.00    +0.000 A 
ATOM      2  N   UNL     1       4.440   3.342  16.947  0.00  0.00    +0.000 NA
ATOM      3  C   UNL     1       3.629   3.228  18.088  0.00  0.00    +0.000 A 
ATOM      4  C   UNL     1       3.378   1.960  18.612  0.00  0.00    +0.000 A 
ATOM      5  C   UNL     1       2.583   1.807  19.753  0.00  0.00    +0.000 A 
ATOM      6  C   UNL     1       2.039   2.931  20.373  0.00  0.00    +0.000 A 
ATOM      7 CL   UNL     1       1.064   2.743  21.778  0.00  0.00    +0.000 Cl
ATOM      8  C   UNL     1       2.280   4.208  19.868  0.00  0.00    +0.000 A 
ATOM      9  C   UNL     1       3.073   4.346  18.729  0.00  0.00    +0.000 A 
ATOM     10  N   UNL     1       3.333   5.615  18.210  0.00  0.00    +0.000 N 
ATOM     11  C   UNL     1       4.133   5.793  17.109  0.00  0.00    +0.000 A 
ATOM     12  O   UNL     1       4.400   6.895  16.657  0.00  0.00    +0.000 OA
ATOM     13  H   UNL     1       2.952   6.447  18.645  0.00  0.00    +0.000 HD
ENDROOT
BRANCH   1  15
ATOM     14  O   UNL     1       5.143   4.504  14.135  0.00  0.00    +0.000 OA
ATOM     15  C   UNL     1       5.629   4.594  15.261  0.00  0.00    +0.000 C 
BRANCH  15  16
ATOM     16  C   UNL     1       7.127   4.729  15.512  0.00  0.00    +0.000 C 
BRANCH  16  17
ATOM     17  C   UNL     1       7.422   5.420  16.792  0.00  0.00    +0.000 A 
ATOM     18  C   UNL     1       7.611   4.957  18.079  0.00  0.00    +0.000 A 
ATOM     19  C   UNL     1       7.879   6.093  18.879  0.00  0.00    +0.000 A 
ATOM     20  C   UNL     1       7.845   7.174  18.031  0.00  0.00    +0.000 A 
ATOM     21  O   UNL     1       7.572   6.776  16.763  0.00  0.00    +0.000 OA
ENDBRANCH  16  17
BRANCH  16  22
ATOM     22  O   UNL     1       7.782   5.482  14.490  0.00  0.00    +0.000 OA
ATOM     23  H   UNL     1       7.126   6.125  14.163  0.00  0.00    +0.000 HD
ENDBRANCH  16  22
ENDBRANCH  15  16
ENDBRANCH   1  15
TORSDOF 4
ENDMDL
MODEL 3
REMARK VINA RESULT:      -7.6      1.067      1.105
REMARK  Name = 
REMARK  4 active torsions:
REMARK  status: ('A' for Active; 'I' for Inactive)
REMARK    1  A    between atoms: C_2  and  C_3
REMARK    2  A    between atoms: C_2  and  C_15
REMARK    3  A    between atoms: C_15  and  O_16
REMARK    4  A    between atoms: C_15  and  C_17
REMARK                            x       y       z     vdW  Elec       q    Type
REMARK                         _______ _______ _______ _____ _____    ______ ____
ROOT
ATOM      1  C   UNL     1       4.414   5.506  17.782  0.00  0.00    +0.000 A 
ATOM      2  N   UNL     1       3.877   6.622  17.360  0.00  0.00    +0.000 NA
ATOM      3  C   UNL     1       3.004   7.324  18.207  0.00  0.00    +0.000 A 
ATOM      4  C   UNL     1       2.411   8.497  17.740  0.00  0.00    +0.000 A 
ATOM      5  C   UNL     1       1.529   9.219  18.551  0.00  0.00    +0.000 A 
ATOM      6  C   UNL     1       1.237   8.761  19.835  0.00  0.00    +0.000 A 
ATOM      7 CL   UNL     1       0.149   9.647  20.831  0.00  0.00    +0.000 Cl
ATOM      8  C   UNL     1       1.816   7.589  20.320  0.00  0.00    +0.000 A 
ATOM      9  C   UNL     1       2.695   6.880  19.502  0.00  0.00    +0.000 A 
ATOM     10  N   UNL     1       3.281   5.701  19.964  0.00  0.00    +0.000 N 
ATOM     11  C   UNL     1       4.128   4.961  19.177  0.00  0.00    +0.000 A 
ATOM     12  O   UNL     1       4.625   3.910  19.549  0.00  0.00    +0.000 OA
ATOM     13  H   UNL     1       3.081   5.346  20.892  0.00  0.00    +0.000 HD
ENDROOT
BRANCH   1  15
ATOM     14  O   UNL     1       4.798   4.221  15.822  0.00  0.00    +0.000 OA
ATOM     15  C   UNL     1       5.310   4.763  16.800  0.00  0.00    +0.000 C 
BRANCH  15  16
ATOM     16  C   UNL     1       6.804   4.696  17.100  0.00  0.00    +0.000 C 
BRANCH  16  17
ATOM     17  C   UNL     1       7.335   5.989  17.600  0.00  0.00    +0.000 A 
ATOM     18  C   UNL     1       7.963   6.346  18.777  0.00  0.00    +0.000 A 
ATOM     19  C   UNL     1       8.254   7.727  18.673  0.00  0.00    +0.000 A 
ATOM     20  C   UNL     1       7.795   8.124  17.440  0.00  0.00    +0.000 A 
ATOM     21  O   UNL     1       7.238   7.076  16.780  0.00  0.00    +0.000 OA
ENDBRANCH  16  17
BRANCH  16  22
ATOM     22  O   UNL     1       7.575   4.368  15.943  0.00  0.00    +0.000 OA
ATOM     23  H   UNL     1       7.197   4.886  15.208  0.00  0.00    +0.000 HD
ENDBRANCH  16  22
ENDBRANCH  15  16
ENDBRANCH   1  15
TORSDOF 4
ENDMDL
MODEL 4
REMARK VINA RESULT:      -7.6      3.497      4.594
REMARK  Name = 
REMARK  4 active torsions:
REMARK  status: ('A' for Active; 'I' for Inactive)
REMARK    1  A    between atoms: C_2  and  C_3
REMARK    2  A    between atoms: C_2  and  C_15
REMARK    3  A    between atoms: C_15  and  O_16
REMARK    4  A    between atoms: C_15  and  C_17
REMARK                            x       y       z     vdW  Elec       q    Type
REMARK                         _______ _______ _______ _____ _____    ______ ____
ROOT
ATOM      1  C   UNL     1       5.029   5.502  17.075  0.00  0.00    +0.000 A 
ATOM      2  N   UNL     1       3.875   4.898  16.949  0.00  0.00    +0.000 NA
ATOM      3  C   UNL     1       3.254   4.366  18.091  0.00  0.00    +0.000 A 
ATOM      4  C   UNL     1       2.039   3.696  17.946  0.00  0.00    +0.000 A 
ATOM      5  C   UNL     1       1.395   3.145  19.059  0.00  0.00    +0.000 A 
ATOM      6  C   UNL     1       1.973   3.263  20.323  0.00  0.00    +0.000 A 
ATOM      7 CL   UNL     1       1.181   2.583  21.691  0.00  0.00    +0.000 Cl
ATOM      8  C   UNL     1       3.188   3.926  20.489  0.00  0.00    +0.000 A 
ATOM      9  C   UNL     1       3.819   4.473  19.371  0.00  0.00    +0.000 A 
ATOM     10  N   UNL     1       5.040   5.134  19.513  0.00  0.00    +0.000 N 
ATOM     11  C   UNL     1       5.704   5.658  18.433  0.00  0.00    +0.000 A 
ATOM     12  O   UNL     1       6.788   6.212  18.530  0.00  0.00    +0.000 OA
ATOM     13  H   UNL     1       5.481   5.229  20.420  0.00  0.00    +0.000 HD
ENDROOT
BRANCH   1  15
ATOM     14  O   UNL     1       5.163   6.960  15.205  0.00  0.00    +0.000 OA
ATOM     15  C   UNL     1       5.678   6.011  15.795  0.00  0.00    +0.000 C 
BRANCH  15  16
ATOM     16  C   UNL     1       6.922   5.292  15.284  0.00  0.00    +0.000 C 
BRANCH  16  17
ATOM     17  C   UNL     1       6.670   4.569  14.012  0.00  0.00    +0.000 A 
ATOM     18  C   UNL     1       5.690   3.674  13.626  0.00  0.00    +0.000 A 
ATOM     19  C   UNL     1       5.964   3.336  12.280  0.00  0.00    +0.000 A 
ATOM     20  C   UNL     1       7.085   4.048  11.926  0.00  0.00    +0.000 A 
ATOM     21  O   UNL     1       7.519   4.801  12.969  0.00  0.00    +0.000 OA
ENDBRANCH  16  17
BRANCH  16  22
ATOM     22  O   UNL     1       7.403   4.316  16.209  0.00  0.00    +0.000 OA
ATOM     23  H   UNL     1       8.307   4.091  15.922  0.00  0.00    +0.000 HD
ENDBRANCH  16  22
ENDBRANCH  15  16
ENDBRANCH   1  15
TORSDOF 4
ENDMDL
MODEL 5
REMARK VINA RESULT:      -7.5      1.985      4.506
REMARK  Name = 
REMARK  4 active torsions:
REMARK  status: ('A' for Active; 'I' for Inactive)
REMARK    1  A    between atoms: C_2  and  C_3
REMARK    2  A    between atoms: C_2  and  C_15
REMARK    3  A    between atoms: C_15  and  O_16
REMARK    4  A    between atoms: C_15  and  C_17
REMARK                            x       y       z     vdW  Elec       q    Type
REMARK                         _______ _______ _______ _____ _____    ______ ____
ROOT
ATOM      1  C   UNL     1       4.106   5.598  18.774  0.00  0.00    +0.000 A 
ATOM      2  N   UNL     1       3.309   6.070  19.698  0.00  0.00    +0.000 NA
ATOM      3  C   UNL     1       2.560   7.227  19.430  0.00  0.00    +0.000 A 
ATOM      4  C   UNL     1       1.736   7.743  20.430  0.00  0.00    +0.000 A 
ATOM      5  C   UNL     1       0.982   8.898  20.203  0.00  0.00    +0.000 A 
ATOM      6  C   UNL     1       1.056   9.543  18.968  0.00  0.00    +0.000 A 
ATOM      7 CL   UNL     1       0.130  10.966  18.691  0.00  0.00    +0.000 Cl
ATOM      8  C   UNL     1       1.876   9.046  17.956  0.00  0.00    +0.000 A 
ATOM      9  C   UNL     1       2.622   7.891  18.195  0.00  0.00    +0.000 A 
ATOM     10  N   UNL     1       3.455   7.380  17.199  0.00  0.00    +0.000 N 
ATOM     11  C   UNL     1       4.225   6.264  17.407  0.00  0.00    +0.000 A 
ATOM     12  O   UNL     1       4.985   5.819  16.562  0.00  0.00    +0.000 OA
ATOM     13  H   UNL     1       3.528   7.833  16.296  0.00  0.00    +0.000 HD
ENDROOT
BRANCH   1  15
ATOM     14  O   UNL     1       6.113   4.523  19.451  0.00  0.00    +0.000 OA
ATOM     15  C   UNL     1       4.931   4.372  19.142  0.00  0.00    +0.000 C 
BRANCH  15  16
ATOM     16  C   UNL     1       4.259   3.005  19.073  0.00  0.00    +0.000 C 
BRANCH  16  17
ATOM     17  C   UNL     1       2.961   2.981  19.793  0.00  0.00    +0.000 A 
ATOM     18  C   UNL     1       1.652   3.000  19.355  0.00  0.00    +0.000 A 
ATOM     19  C   UNL     1       0.841   2.941  20.513  0.00  0.00    +0.000 A 
ATOM     20  C   UNL     1       1.702   2.883  21.582  0.00  0.00    +0.000 A 
ATOM     21  O   UNL     1       2.991   2.904  21.156  0.00  0.00    +0.000 OA
ENDBRANCH  16  17
BRANCH  16  22
ATOM     22  O   UNL     1       5.060   1.977  19.657  0.00  0.00    +0.000 OA
ATOM     23  H   UNL     1       4.669   1.131  19.370  0.00  0.00    +0.000 HD
ENDBRANCH  16  22
ENDBRANCH  15  16
ENDBRANCH   1  15
TORSDOF 4
ENDMDL
MODEL 6
REMARK VINA RESULT:      -7.5      1.029      1.233
REMARK  Name = 
REMARK  4 active torsions:
REMARK  status: ('A' for Active; 'I' for Inactive)
REMARK    1  A    between atoms: C_2  and  C_3
REMARK    2  A    between atoms: C_2  and  C_15
REMARK    3  A    between atoms: C_15  and  O_16
REMARK    4  A    between atoms: C_15  and  C_17
REMARK                            x       y       z     vdW  Elec       q    Type
REMARK                         _______ _______ _______ _____ _____    ______ ____
ROOT
ATOM      1  C   UNL     1       3.634   5.164  18.228  0.00  0.00    +0.000 A 
ATOM      2  N   UNL     1       3.252   6.284  17.668  0.00  0.00    +0.000 NA
ATOM      3  C   UNL     1       2.551   7.227  18.436  0.00  0.00    +0.000 A 
ATOM      4  C   UNL     1       2.120   8.405  17.825  0.00  0.00    +0.000 A 
ATOM      5  C   UNL     1       1.411   9.365  18.555  0.00  0.00    +0.000 A 
ATOM      6  C   UNL     1       1.129   9.142  19.902  0.00  0.00    +0.000 A 
ATOM      7 CL   UNL     1       0.255  10.322  20.798  0.00  0.00    +0.000 Cl
ATOM      8  C   UNL     1       1.548   7.971  20.531  0.00  0.00    +0.000 A 
ATOM      9  C   UNL     1       2.257   7.023  19.792  0.00  0.00    +0.000 A 
ATOM     10  N   UNL     1       2.679   5.839  20.399  0.00  0.00    +0.000 N 
ATOM     11  C   UNL     1       3.352   4.871  19.698  0.00  0.00    +0.000 A 
ATOM     12  O   UNL     1       3.703   3.815  20.200  0.00  0.00    +0.000 OA
ATOM     13  H   UNL     1       2.484   5.653  21.376  0.00  0.00    +0.000 HD
ENDROOT
BRANCH   1  15
ATOM     14  O   UNL     1       3.897   3.014  17.256  0.00  0.00    +0.000 OA
ATOM     15  C   UNL     1       4.344   4.158  17.332  0.00  0.00    +0.000 C 
BRANCH  15  16
ATOM     16  C   UNL     1       5.602   4.610  16.598  0.00  0.00    +0.000 C 
BRANCH  16  17
ATOM     17  C   UNL     1       6.550   5.319  17.494  0.00  0.00    +0.000 A 
ATOM     18  C   UNL     1       7.153   6.559  17.417  0.00  0.00    +0.000 A 
ATOM     19  C   UNL     1       7.947   6.691  18.581  0.00  0.00    +0.000 A 
ATOM     20  C   UNL     1       7.774   5.530  19.297  0.00  0.00    +0.000 A 
ATOM     21  O   UNL     1       6.926   4.693  18.646  0.00  0.00    +0.000 OA
ENDBRANCH  16  17
BRANCH  16  22
ATOM     22  O   UNL     1       5.312   5.510  15.528  0.00  0.00    +0.000 OA
ATOM     23  H   UNL     1       4.405   5.304  15.237  0.00  0.00    +0.000 HD
ENDBRANCH  16  22
ENDBRANCH  15  16
ENDBRANCH   1  15
TORSDOF 4
ENDMDL
MODEL 7
REMARK VINA RESULT:      -7.4      1.773      2.235
REMARK  Name = 
REMARK  4 active torsions:
REMARK  status: ('A' for Active; 'I' for Inactive)
REMARK    1  A    between atoms: C_2  and  C_3
REMARK    2  A    between atoms: C_2  and  C_15
REMARK    3  A    between atoms: C_15  and  O_16
REMARK    4  A    between atoms: C_15  and  C_17
REMARK                            x       y       z     vdW  Elec       q    Type
REMARK                         _______ _______ _______ _____ _____    ______ ____
ROOT
ATOM      1  C   UNL     1       2.842   5.888  19.167  0.00  0.00    +0.000 A 
ATOM      2  N   UNL     1       2.815   6.933  18.380  0.00  0.00    +0.000 NA
ATOM      3  C   UNL     1       2.137   8.089  18.801  0.00  0.00    +0.000 A 
ATOM      4  C   UNL     1       2.085   9.188  17.944  0.00  0.00    +0.000 A 
ATOM      5  C   UNL     1       1.412  10.354  18.324  0.00  0.00    +0.000 A 
ATOM      6  C   UNL     1       0.785  10.417  19.568  0.00  0.00    +0.000 A 
ATOM      7 CL   UNL     1      -0.045  11.850  20.034  0.00  0.00    +0.000 Cl
ATOM      8  C   UNL     1       0.822   9.328  20.438  0.00  0.00    +0.000 A 
ATOM      9  C   UNL     1       1.498   8.172  20.047  0.00  0.00    +0.000 A 
ATOM     10  N   UNL     1       1.542   7.068  20.899  0.00  0.00    +0.000 N 
ATOM     11  C   UNL     1       2.172   5.904  20.537  0.00  0.00    +0.000 A 
ATOM     12  O   UNL     1       2.195   4.915  21.252  0.00  0.00    +0.000 OA
ATOM     13  H   UNL     1       1.091   7.089  21.806  0.00  0.00    +0.000 HD
ENDROOT
BRANCH   1  15
ATOM     14  O   UNL     1       3.031   4.025  17.707  0.00  0.00    +0.000 OA
ATOM     15  C   UNL     1       3.546   4.648  18.634  0.00  0.00    +0.000 C 
BRANCH  15  16
ATOM     16  C   UNL     1       4.845   4.214  19.305  0.00  0.00    +0.000 C 
BRANCH  16  17
ATOM     17  C   UNL     1       5.996   5.062  18.902  0.00  0.00    +0.000 A 
ATOM     18  C   UNL     1       6.263   5.787  17.758  0.00  0.00    +0.000 A 
ATOM     19  C   UNL     1       7.517   6.409  17.962  0.00  0.00    +0.000 A 
ATOM     20  C   UNL     1       7.932   6.033  19.217  0.00  0.00    +0.000 A 
ATOM     21  O   UNL     1       7.015   5.217  19.796  0.00  0.00    +0.000 OA
ENDBRANCH  16  17
BRANCH  16  22
ATOM     22  O   UNL     1       5.204   2.871  18.977  0.00  0.00    +0.000 OA
ATOM     23  H   UNL     1       5.633   2.910  18.102  0.00  0.00    +0.000 HD
ENDBRANCH  16  22
ENDBRANCH  15  16
ENDBRANCH   1  15
TORSDOF 4
ENDMDL
MODEL 8
REMARK VINA RESULT:      -7.3      4.799      7.086
REMARK  Name = 
REMARK  4 active torsions:
REMARK  status: ('A' for Active; 'I' for Inactive)
REMARK    1  A    between atoms: C_2  and  C_3
REMARK    2  A    between atoms: C_2  and  C_15
REMARK    3  A    between atoms: C_15  and  O_16
REMARK    4  A    between atoms: C_15  and  C_17
REMARK                            x       y       z     vdW  Elec       q    Type
REMARK                         _______ _______ _______ _____ _____    ______ ____
ROOT
ATOM      1  C   UNL     1       5.684   4.228  17.851  0.00  0.00    +0.000 A 
ATOM      2  N   UNL     1       5.029   3.922  16.761  0.00  0.00    +0.000 NA
ATOM      3  C   UNL     1       5.652   4.103  15.515  0.00  0.00    +0.000 A 
ATOM      4  C   UNL     1       4.936   3.804  14.356  0.00  0.00    +0.000 A 
ATOM      5  C   UNL     1       5.520   3.979  13.097  0.00  0.00    +0.000 A 
ATOM      6  C   UNL     1       6.825   4.459  12.999  0.00  0.00    +0.000 A 
ATOM      7 CL   UNL     1       7.541   4.677  11.450  0.00  0.00    +0.000 Cl
ATOM      8  C   UNL     1       7.556   4.766  14.145  0.00  0.00    +0.000 A 
ATOM      9  C   UNL     1       6.963   4.585  15.395  0.00  0.00    +0.000 A 
ATOM     10  N   UNL     1       7.674   4.893  16.555  0.00  0.00    +0.000 N 
ATOM     11  C   UNL     1       7.114   4.756  17.801  0.00  0.00    +0.000 A 
ATOM     12  O   UNL     1       7.706   5.050  18.827  0.00  0.00    +0.000 OA
ATOM     13  H   UNL     1       8.623   5.247  16.510  0.00  0.00    +0.000 HD
ENDROOT
BRANCH   1  15
ATOM     14  O   UNL     1       4.849   5.026  19.926  0.00  0.00    +0.000 OA
ATOM     15  C   UNL     1       4.939   4.061  19.168  0.00  0.00    +0.000 C 
BRANCH  15  16
ATOM     16  C   UNL     1       4.368   2.687  19.503  0.00  0.00    +0.000 C 
BRANCH  16  17
ATOM     17  C   UNL     1       3.050   2.776  20.179  0.00  0.00    +0.000 A 
ATOM     18  C   UNL     1       2.670   2.654  21.501  0.00  0.00    +0.000 A 
ATOM     19  C   UNL     1       1.270   2.855  21.536  0.00  0.00    +0.000 A 
ATOM     20  C   UNL     1       0.884   3.093  20.238  0.00  0.00    +0.000 A 
ATOM     21  O   UNL     1       1.957   3.050  19.408  0.00  0.00    +0.000 OA
ENDBRANCH  16  17
BRANCH  16  22
ATOM     22  O   UNL     1       5.218   1.946  20.380  0.00  0.00    +0.000 OA
ATOM     23  H   UNL     1       5.110   1.008  20.135  0.00  0.00    +0.000 HD
ENDBRANCH  16  22
ENDBRANCH  15  16
ENDBRANCH   1  15
TORSDOF 4
ENDMDL
MODEL 9
REMARK VINA RESULT:      -7.3      2.005      2.565
REMARK  Name = 
REMARK  4 active torsions:
REMARK  status: ('A' for Active; 'I' for Inactive)
REMARK    1  A    between atoms: C_2  and  C_3
REMARK    2  A    between atoms: C_2  and  C_15
REMARK    3  A    between atoms: C_15  and  O_16
REMARK    4  A    between atoms: C_15  and  C_17
REMARK                            x       y       z     vdW  Elec       q    Type
REMARK                         _______ _______ _______ _____ _____    ______ ____
ROOT
ATOM      1  C   UNL     1       2.645   5.411  19.120  0.00  0.00    +0.000 A 
ATOM      2  N   UNL     1       2.644   6.413  18.279  0.00  0.00    +0.000 NA
ATOM      3  C   UNL     1       2.141   7.656  18.697  0.00  0.00    +0.000 A 
ATOM      4  C   UNL     1       2.114   8.712  17.786  0.00  0.00    +0.000 A 
ATOM      5  C   UNL     1       1.612   9.962  18.163  0.00  0.00    +0.000 A 
ATOM      6  C   UNL     1       1.131  10.154  19.457  0.00  0.00    +0.000 A 
ATOM      7 CL   UNL     1       0.511  11.691  19.919  0.00  0.00    +0.000 Cl
ATOM      8  C   UNL     1       1.145   9.110  20.382  0.00  0.00    +0.000 A 
ATOM      9  C   UNL     1       1.651   7.869  19.994  0.00  0.00    +0.000 A 
ATOM     10  N   UNL     1       1.668   6.809  20.901  0.00  0.00    +0.000 N 
ATOM     11  C   UNL     1       2.130   5.566  20.548  0.00  0.00    +0.000 A 
ATOM     12  O   UNL     1       2.124   4.617  21.314  0.00  0.00    +0.000 OA
ATOM     13  H   UNL     1       1.321   6.923  21.846  0.00  0.00    +0.000 HD
ENDROOT
BRANCH   1  15
ATOM     14  O   UNL     1       2.431   3.418  17.846  0.00  0.00    +0.000 OA
ATOM     15  C   UNL     1       3.153   4.075  18.594  0.00  0.00    +0.000 C 
BRANCH  15  16
ATOM     16  C   UNL     1       4.527   3.598  19.052  0.00  0.00    +0.000 C 
BRANCH  16  17
ATOM     17  C   UNL     1       5.610   4.042  18.138  0.00  0.00    +0.000 A 
ATOM     18  C   UNL     1       5.654   4.239  16.772  0.00  0.00    +0.000 A 
ATOM     19  C   UNL     1       6.963   4.686  16.473  0.00  0.00    +0.000 A 
ATOM     20  C   UNL     1       7.631   4.741  17.673  0.00  0.00    +0.000 A 
ATOM     21  O   UNL     1       6.818   4.355  18.689  0.00  0.00    +0.000 OA
ENDBRANCH  16  17
BRANCH  16  22
ATOM     22  O   UNL     1       4.614   2.174  19.112  0.00  0.00    +0.000 OA
ATOM     23  H   UNL     1       3.716   1.838  18.937  0.00  0.00    +0.000 HD
ENDBRANCH  16  22
ENDBRANCH  15  16
ENDBRANCH   1  15
TORSDOF 4
ENDMDL
