MODEL 1
REMARK VINA RESULT:      -7.6      0.000      0.000
REMARK  Name = 
REMARK  4 active torsions:
REMARK  status: ('A' for Active; 'I' for Inactive)
REMARK    1  A    between atoms: N_1  and  C_2
REMARK    2  A    between atoms: C_2  and  C_3
REMARK    3  A    between atoms: C_3  and  N_4
REMARK    4  A    between atoms: C_5  and  C_7
REMARK                            x       y       z     vdW  Elec       q    Type
REMARK                         _______ _______ _______ _____ _____    ______ ____
ROOT
ATOM      1  C   UNL     1       3.414   2.876  19.679  0.00  0.00    +0.000 A 
ATOM      2  C   UNL     1       2.126   2.522  19.230  0.00  0.00    +0.000 A 
ATOM      3  C   UNL     1       1.510   3.221  18.187  0.00  0.00    +0.000 A 
ATOM      4  C   UNL     1       2.170   4.276  17.556  0.00  0.00    +0.000 A 
ATOM      5  C   UNL     1       3.464   4.634  17.957  0.00  0.00    +0.000 A 
ATOM      6  C   UNL     1       4.157   5.680  17.319  0.00  0.00    +0.000 A 
ATOM      7  C   UNL     1       5.457   6.014  17.732  0.00  0.00    +0.000 A 
ATOM      8  C   UNL     1       6.183   7.055  17.131  0.00  0.00    +0.000 A 
ATOM      9  C   UNL     1       7.475   7.358  17.581  0.00  0.00    +0.000 A 
ATOM     10  C   UNL     1       8.048   6.624  18.626  0.00  0.00    +0.000 A 
ATOM     11  C   UNL     1       7.334   5.584  19.223  0.00  0.00    +0.000 A 
ATOM     12  C   UNL     1       6.044   5.281  18.779  0.00  0.00    +0.000 A 
ATOM     13  N   UNL     1       5.353   4.280  19.369  0.00  0.00    +0.000 NA
ATOM     14  C   UNL     1       4.088   3.936  19.017  0.00  0.00    +0.000 A 
ENDROOT
BRANCH   1  16
ATOM     15  N   UNL     1       5.205   1.453  20.713  0.00  0.00    +0.000 N 
ATOM     16  C   UNL     1       4.012   2.110  20.828  0.00  0.00    +0.000 C 
ATOM     17  O   UNL     1       3.429   2.107  21.904  0.00  0.00    +0.000 OA
ATOM     18  H   UNL     1       5.757   1.531  19.853  0.00  0.00    +0.000 HD
BRANCH  15  19
ATOM     19  C   UNL     1       5.781   0.669  21.784  0.00  0.00    +0.000 C 
BRANCH  19  20
ATOM     20  C   UNL     1       6.263  -0.684  21.242  0.00  0.00    +0.000 C 
BRANCH  20  21
ATOM     21  N   UNL     1       7.134  -1.347  22.202  0.00  0.00    +0.000 NA
ATOM     22  H   UNL     1       7.741  -2.019  21.677  0.00  0.00    +0.000 HD
ATOM     23  H   UNL     1       6.548  -1.902  22.867  0.00  0.00    +0.000 HD
ENDBRANCH  20  21
ENDBRANCH  19  20
ENDBRANCH  15  19
ENDBRANCH   1  16
TORSDOF 4
ENDMDL
MODEL 2
REMARK VINA RESULT:      -7.4      3.279      4.871
REMARK  Name = 
REMARK  4 active torsions:
REMARK  status: ('A' for Active; 'I' for Inactive)
REMARK    1  A    between atoms: N_1  and  C_2
REMARK    2  A    between atoms: C_2  and  C_3
REMARK    3  A    between atoms: C_3  and  N_4
REMARK    4  A    between atoms: C_5  and  C_7
REMARK                            x       y       z     vdW  Elec       q    Type
REMARK                         _______ _______ _______ _____ _____    ______ ____
ROOT
ATOM      1  C   UNL     1       3.409   3.623  19.058  0.00  0.00    +0.000 A 
ATOM      2  C   UNL     1       3.258   2.590  20.004  0.00  0.00    +0.000 A 
ATOM      3  C   UNL     1       2.613   2.819  21.224  0.00  0.00    +0.000 A 
ATOM      4  C   UNL     1       2.087   4.077  21.521  0.00  0.00    +0.000 A 
ATOM      5  C   UNL     1       2.192   5.118  20.589  0.00  0.00    +0.000 A 
ATOM      6  C   UNL     1       1.648   6.388  20.858  0.00  0.00    +0.000 A 
ATOM      7  C   UNL     1       1.757   7.413  19.905  0.00  0.00    +0.000 A 
ATOM      8  C   UNL     1       1.238   8.698  20.133  0.00  0.00    +0.000 A 
ATOM      9  C   UNL     1       1.377   9.692  19.156  0.00  0.00    +0.000 A 
ATOM     10  C   UNL     1       2.028   9.410  17.949  0.00  0.00    +0.000 A 
ATOM     11  C   UNL     1       2.540   8.134  17.713  0.00  0.00    +0.000 A 
ATOM     12  C   UNL     1       2.407   7.140  18.687  0.00  0.00    +0.000 A 
ATOM     13  N   UNL     1       2.915   5.909  18.458  0.00  0.00    +0.000 NA
ATOM     14  C   UNL     1       2.851   4.893  19.358  0.00  0.00    +0.000 A 
ENDROOT
BRANCH   1  16
ATOM     15  N   UNL     1       5.051   4.199  17.250  0.00  0.00    +0.000 N 
ATOM     16  C   UNL     1       4.142   3.326  17.778  0.00  0.00    +0.000 C 
ATOM     17  O   UNL     1       3.942   2.258  17.216  0.00  0.00    +0.000 OA
ATOM     18  H   UNL     1       5.308   5.050  17.760  0.00  0.00    +0.000 HD
BRANCH  15  19
ATOM     19  C   UNL     1       5.736   3.963  15.996  0.00  0.00    +0.000 C 
BRANCH  19  20
ATOM     20  C   UNL     1       7.105   4.658  16.010  0.00  0.00    +0.000 C 
BRANCH  20  21
ATOM     21  N   UNL     1       7.896   4.223  17.153  0.00  0.00    +0.000 NA
ATOM     22  H   UNL     1       8.048   5.052  17.774  0.00  0.00    +0.000 HD
ATOM     23  H   UNL     1       8.833   3.903  16.816  0.00  0.00    +0.000 HD
ENDBRANCH  20  21
ENDBRANCH  19  20
ENDBRANCH  15  19
ENDBRANCH   1  16
TORSDOF 4
ENDMDL
MODEL 3
REMARK VINA RESULT:      -7.3      3.311      4.774
REMARK  Name = 
REMARK  4 active torsions:
REMARK  status: ('A' for Active; 'I' for Inactive)
REMARK    1  A    between atoms: N_1  and  C_2
REMARK    2  A    between atoms: C_2  and  C_3
REMARK    3  A    between atoms: C_3  and  N_4
REMARK    4  A    between atoms: C_5  and  C_7
REMARK                            x       y       z     vdW  Elec       q    Type
REMARK                         _______ _______ _______ _____ _____    ______ ____
ROOT
ATOM      1  C   UNL     1       4.371   4.824  18.422  0.00  0.00    +0.000 A 
ATOM      2  C   UNL     1       5.228   4.588  17.329  0.00  0.00    +0.000 A 
ATOM      3  C   UNL     1       5.346   5.519  16.292  0.00  0.00    +0.000 A 
ATOM      4  C   UNL     1       4.628   6.715  16.330  0.00  0.00    +0.000 A 
ATOM      5  C   UNL     1       3.791   6.995  17.418  0.00  0.00    +0.000 A 
ATOM      6  C   UNL     1       3.075   8.206  17.489  0.00  0.00    +0.000 A 
ATOM      7  C   UNL     1       2.251   8.469  18.594  0.00  0.00    +0.000 A 
ATOM      8  C   UNL     1       1.512   9.658  18.703  0.00  0.00    +0.000 A 
ATOM      9  C   UNL     1       0.695   9.874  19.821  0.00  0.00    +0.000 A 
ATOM     10  C   UNL     1       0.615   8.911  20.833  0.00  0.00    +0.000 A 
ATOM     11  C   UNL     1       1.352   7.731  20.735  0.00  0.00    +0.000 A 
ATOM     12  C   UNL     1       2.165   7.509  19.620  0.00  0.00    +0.000 A 
ATOM     13  N   UNL     1       2.868   6.359  19.523  0.00  0.00    +0.000 NA
ATOM     14  C   UNL     1       3.661   6.053  18.465  0.00  0.00    +0.000 A 
ENDROOT
BRANCH   1  16
ATOM     15  N   UNL     1       3.086   3.536  20.151  0.00  0.00    +0.000 N 
ATOM     16  C   UNL     1       4.259   3.770  19.491  0.00  0.00    +0.000 C 
ATOM     17  O   UNL     1       5.238   3.083  19.748  0.00  0.00    +0.000 OA
ATOM     18  H   UNL     1       2.231   4.030  19.877  0.00  0.00    +0.000 HD
BRANCH  15  19
ATOM     19  C   UNL     1       2.960   2.563  21.216  0.00  0.00    +0.000 C 
BRANCH  19  20
ATOM     20  C   UNL     1       1.501   2.489  21.687  0.00  0.00    +0.000 C 
BRANCH  20  21
ATOM     21  N   UNL     1       0.605   3.060  20.690  0.00  0.00    +0.000 NA
ATOM     22  H   UNL     1       0.333   2.298  20.026  0.00  0.00    +0.000 HD
ATOM     23  H   UNL     1       1.122   3.787  20.145  0.00  0.00    +0.000 HD
ENDBRANCH  20  21
ENDBRANCH  19  20
ENDBRANCH  15  19
ENDBRANCH   1  16
TORSDOF 4
ENDMDL
MODEL 4
REMARK VINA RESULT:      -7.2      3.527      6.558
REMARK  Name = 
REMARK  4 active torsions:
REMARK  status: ('A' for Active; 'I' for Inactive)
REMARK    1  A    between atoms: N_1  and  C_2
REMARK    2  A    between atoms: C_2  and  C_3
REMARK    3  A    between atoms: C_3  and  N_4
REMARK    4  A    between atoms: C_5  and  C_7
REMARK                            x       y       z     vdW  Elec       q    Type
REMARK                         _______ _______ _______ _____ _____    ______ ____
ROOT
ATOM      1  C   UNL     1       5.963   5.315  16.640  0.00  0.00    +0.000 A 
ATOM      2  C   UNL     1       7.211   5.833  17.036  0.00  0.00    +0.000 A 
ATOM      3  C   UNL     1       7.556   5.925  18.389  0.00  0.00    +0.000 A 
ATOM      4  C   UNL     1       6.673   5.485  19.375  0.00  0.00    +0.000 A 
ATOM      5  C   UNL     1       5.436   4.936  19.014  0.00  0.00    +0.000 A 
ATOM      6  C   UNL     1       4.539   4.464  19.992  0.00  0.00    +0.000 A 
ATOM      7  C   UNL     1       3.310   3.908  19.605  0.00  0.00    +0.000 A 
ATOM      8  C   UNL     1       2.381   3.433  20.545  0.00  0.00    +0.000 A 
ATOM      9  C   UNL     1       1.162   2.893  20.114  0.00  0.00    +0.000 A 
ATOM     10  C   UNL     1       0.867   2.820  18.747  0.00  0.00    +0.000 A 
ATOM     11  C   UNL     1       1.788   3.284  17.808  0.00  0.00    +0.000 A 
ATOM     12  C   UNL     1       3.004   3.826  18.234  0.00  0.00    +0.000 A 
ATOM     13  N   UNL     1       3.888   4.285  17.320  0.00  0.00    +0.000 NA
ATOM     14  C   UNL     1       5.079   4.848  17.648  0.00  0.00    +0.000 A 
ENDROOT
BRANCH   1  16
ATOM     15  N   UNL     1       5.561   4.095  14.483  0.00  0.00    +0.000 N 
ATOM     16  C   UNL     1       5.633   5.272  15.172  0.00  0.00    +0.000 C 
ATOM     17  O   UNL     1       5.390   6.321  14.591  0.00  0.00    +0.000 OA
ATOM     18  H   UNL     1       5.659   3.201  14.975  0.00  0.00    +0.000 HD
BRANCH  15  19
ATOM     19  C   UNL     1       5.293   4.026  13.062  0.00  0.00    +0.000 C 
BRANCH  19  20
ATOM     20  C   UNL     1       6.502   3.424  12.331  0.00  0.00    +0.000 C 
BRANCH  20  21
ATOM     21  N   UNL     1       6.187   2.101  11.810  0.00  0.00    +0.000 NA
ATOM     22  H   UNL     1       6.782   1.937  10.965  0.00  0.00    +0.000 HD
ATOM     23  H   UNL     1       5.188   2.086  11.502  0.00  0.00    +0.000 HD
ENDBRANCH  20  21
ENDBRANCH  19  20
ENDBRANCH  15  19
ENDBRANCH   1  16
TORSDOF 4
ENDMDL
MODEL 5
REMARK VINA RESULT:      -7.2      3.327      6.257
REMARK  Name = 
REMARK  4 active torsions:
REMARK  status: ('A' for Active; 'I' for Inactive)
REMARK    1  A    between atoms: N_1  and  C_2
REMARK    2  A    between atoms: C_2  and  C_3
REMARK    3  A    between atoms: C_3  and  N_4
REMARK    4  A    between atoms: C_5  and  C_7
REMARK                            x       y       z     vdW  Elec       q    Type
REMARK                         _______ _______ _______ _____ _____    ______ ____
ROOT
ATOM      1  C   UNL     1       6.585   5.220  17.188  0.00  0.00    +0.000 A 
ATOM      2  C   UNL     1       7.100   4.882  15.921  0.00  0.00    +0.000 A 
ATOM      3  C   UNL     1       6.367   4.086  15.034  0.00  0.00    +0.000 A 
ATOM      4  C   UNL     1       5.097   3.625  15.382  0.00  0.00    +0.000 A 
ATOM      5  C   UNL     1       4.542   3.968  16.622  0.00  0.00    +0.000 A 
ATOM      6  C   UNL     1       3.253   3.533  16.984  0.00  0.00    +0.000 A 
ATOM      7  C   UNL     1       2.714   3.899  18.228  0.00  0.00    +0.000 A 
ATOM      8  C   UNL     1       1.437   3.481  18.635  0.00  0.00    +0.000 A 
ATOM      9  C   UNL     1       0.942   3.863  19.889  0.00  0.00    +0.000 A 
ATOM     10  C   UNL     1       1.715   4.665  20.738  0.00  0.00    +0.000 A 
ATOM     11  C   UNL     1       2.982   5.089  20.337  0.00  0.00    +0.000 A 
ATOM     12  C   UNL     1       3.481   4.707  19.088  0.00  0.00    +0.000 A 
ATOM     13  N   UNL     1       4.713   5.110  18.709  0.00  0.00    +0.000 NA
ATOM     14  C   UNL     1       5.283   4.765  17.526  0.00  0.00    +0.000 A 
ENDROOT
BRANCH   1  16
ATOM     15  N   UNL     1       7.691   7.368  17.866  0.00  0.00    +0.000 N 
ATOM     16  C   UNL     1       7.433   6.050  18.113  0.00  0.00    +0.000 C 
ATOM     17  O   UNL     1       7.874   5.535  19.132  0.00  0.00    +0.000 OA
ATOM     18  H   UNL     1       7.247   7.843  17.074  0.00  0.00    +0.000 HD
BRANCH  15  19
ATOM     19  C   UNL     1       8.542   8.179  18.711  0.00  0.00    +0.000 C 
BRANCH  19  20
ATOM     20  C   UNL     1       8.524   9.636  18.229  0.00  0.00    +0.000 C 
BRANCH  20  21
ATOM     21  N   UNL     1       9.282  10.491  19.132  0.00  0.00    +0.000 NA
ATOM     22  H   UNL     1       9.469  11.395  18.639  0.00  0.00    +0.000 HD
ATOM     23  H   UNL     1      10.204  10.042  19.332  0.00  0.00    +0.000 HD
ENDBRANCH  20  21
ENDBRANCH  19  20
ENDBRANCH  15  19
ENDBRANCH   1  16
TORSDOF 4
ENDMDL
MODEL 6
REMARK VINA RESULT:      -7.1      3.377      5.195
REMARK  Name = 
REMARK  4 active torsions:
REMARK  status: ('A' for Active; 'I' for Inactive)
REMARK    1  A    between atoms: N_1  and  C_2
REMARK    2  A    between atoms: C_2  and  C_3
REMARK    3  A    between atoms: C_3  and  N_4
REMARK    4  A    between atoms: C_5  and  C_7
REMARK                            x       y       z     vdW  Elec       q    Type
REMARK                         _______ _______ _______ _____ _____    ______ ____
ROOT
ATOM      1  C   UNL     1       4.050   4.057  19.140  0.00  0.00    +0.000 A 
ATOM      2  C   UNL     1       3.880   2.929  19.967  0.00  0.00    +0.000 A 
ATOM      3  C   UNL     1       2.967   2.944  21.026  0.00  0.00    +0.000 A 
ATOM      4  C   UNL     1       2.191   4.077  21.275  0.00  0.00    +0.000 A 
ATOM      5  C   UNL     1       2.313   5.204  20.453  0.00  0.00    +0.000 A 
ATOM      6  C   UNL     1       1.523   6.349  20.671  0.00  0.00    +0.000 A 
ATOM      7  C   UNL     1       1.656   7.464  19.827  0.00  0.00    +0.000 A 
ATOM      8  C   UNL     1       0.896   8.630  20.012  0.00  0.00    +0.000 A 
ATOM      9  C   UNL     1       1.068   9.721  19.150  0.00  0.00    +0.000 A 
ATOM     10  C   UNL     1       1.993   9.653  18.102  0.00  0.00    +0.000 A 
ATOM     11  C   UNL     1       2.746   8.495  17.908  0.00  0.00    +0.000 A 
ATOM     12  C   UNL     1       2.580   7.405  18.768  0.00  0.00    +0.000 A 
ATOM     13  N   UNL     1       3.321   6.290  18.583  0.00  0.00    +0.000 NA
ATOM     14  C   UNL     1       3.241   5.197  19.385  0.00  0.00    +0.000 A 
ENDROOT
BRANCH   1  16
ATOM     15  N   UNL     1       4.709   3.894  16.723  0.00  0.00    +0.000 N 
ATOM     16  C   UNL     1       5.072   3.994  18.036  0.00  0.00    +0.000 C 
ATOM     17  O   UNL     1       6.259   4.069  18.325  0.00  0.00    +0.000 OA
ATOM     18  H   UNL     1       3.721   3.934  16.455  0.00  0.00    +0.000 HD
BRANCH  15  19
ATOM     19  C   UNL     1       5.668   3.784  15.645  0.00  0.00    +0.000 C 
BRANCH  19  20
ATOM     20  C   UNL     1       6.055   5.183  15.143  0.00  0.00    +0.000 C 
BRANCH  20  21
ATOM     21  N   UNL     1       7.372   5.564  15.633  0.00  0.00    +0.000 NA
ATOM     22  H   UNL     1       7.999   4.730  15.557  0.00  0.00    +0.000 HD
ATOM     23  H   UNL     1       7.298   5.815  16.646  0.00  0.00    +0.000 HD
ENDBRANCH  20  21
ENDBRANCH  19  20
ENDBRANCH  15  19
ENDBRANCH   1  16
TORSDOF 4
ENDMDL
MODEL 7
REMARK VINA RESULT:      -7.1      3.755      6.057
REMARK  Name = 
REMARK  4 active torsions:
REMARK  status: ('A' for Active; 'I' for Inactive)
REMARK    1  A    between atoms: N_1  and  C_2
REMARK    2  A    between atoms: C_2  and  C_3
REMARK    3  A    between atoms: C_3  and  N_4
REMARK    4  A    between atoms: C_5  and  C_7
REMARK                            x       y       z     vdW  Elec       q    Type
REMARK                         _______ _______ _______ _____ _____    ______ ____
ROOT
ATOM      1  C   UNL     1       2.293   6.046  19.632  0.00  0.00    +0.000 A 
ATOM      2  C   UNL     1       1.676   5.312  20.665  0.00  0.00    +0.000 A 
ATOM      3  C   UNL     1       1.844   3.927  20.761  0.00  0.00    +0.000 A 
ATOM      4  C   UNL     1       2.643   3.244  19.843  0.00  0.00    +0.000 A 
ATOM      5  C   UNL     1       3.295   3.949  18.823  0.00  0.00    +0.000 A 
ATOM      6  C   UNL     1       4.125   3.284  17.900  0.00  0.00    +0.000 A 
ATOM      7  C   UNL     1       4.776   4.013  16.892  0.00  0.00    +0.000 A 
ATOM      8  C   UNL     1       5.605   3.392  15.944  0.00  0.00    +0.000 A 
ATOM      9  C   UNL     1       6.229   4.158  14.951  0.00  0.00    +0.000 A 
ATOM     10  C   UNL     1       6.032   5.543  14.901  0.00  0.00    +0.000 A 
ATOM     11  C   UNL     1       5.215   6.168  15.843  0.00  0.00    +0.000 A 
ATOM     12  C   UNL     1       4.588   5.407  16.834  0.00  0.00    +0.000 A 
ATOM     13  N   UNL     1       3.788   6.014  17.737  0.00  0.00    +0.000 NA
ATOM     14  C   UNL     1       3.122   5.349  18.715  0.00  0.00    +0.000 A 
ENDROOT
BRANCH   1  16
ATOM     15  N   UNL     1       1.980   8.190  18.365  0.00  0.00    +0.000 N 
ATOM     16  C   UNL     1       2.049   7.530  19.558  0.00  0.00    +0.000 C 
ATOM     17  O   UNL     1       1.873   8.152  20.598  0.00  0.00    +0.000 OA
ATOM     18  H   UNL     1       2.021   7.670  17.483  0.00  0.00    +0.000 HD
BRANCH  15  19
ATOM     19  C   UNL     1       1.795   9.622  18.264  0.00  0.00    +0.000 C 
BRANCH  19  20
ATOM     20  C   UNL     1       0.297   9.952  18.193  0.00  0.00    +0.000 C 
BRANCH  20  21
ATOM     21  N   UNL     1      -0.225  10.277  19.513  0.00  0.00    +0.000 NA
ATOM     22  H   UNL     1       0.293   9.699  20.216  0.00  0.00    +0.000 HD
ATOM     23  H   UNL     1      -1.233  10.001  19.558  0.00  0.00    +0.000 HD
ENDBRANCH  20  21
ENDBRANCH  19  20
ENDBRANCH  15  19
ENDBRANCH   1  16
TORSDOF 4
ENDMDL
MODEL 8
REMARK VINA RESULT:      -7.1      3.909      5.675
REMARK  Name = 
REMARK  4 active torsions:
REMARK  status: ('A' for Active; 'I' for Inactive)
REMARK    1  A    between atoms: N_1  and  C_2
REMARK    2  A    between atoms: C_2  and  C_3
REMARK    3  A    between atoms: C_3  and  N_4
REMARK    4  A    between atoms: C_5  and  C_7
REMARK                            x       y       z     vdW  Elec       q    Type
REMARK                         _______ _______ _______ _____ _____    ______ ____
ROOT
ATOM      1  C   UNL     1       2.119   5.642  19.887  0.00  0.00    +0.000 A 
ATOM      2  C   UNL     1       1.443   4.753  20.746  0.00  0.00    +0.000 A 
ATOM      3  C   UNL     1       1.535   3.369  20.566  0.00  0.00    +0.000 A 
ATOM      4  C   UNL     1       2.318   2.839  19.539  0.00  0.00    +0.000 A 
ATOM      5  C   UNL     1       3.028   3.695  18.687  0.00  0.00    +0.000 A 
ATOM      6  C   UNL     1       3.842   3.182  17.659  0.00  0.00    +0.000 A 
ATOM      7  C   UNL     1       4.553   4.059  16.824  0.00  0.00    +0.000 A 
ATOM      8  C   UNL     1       5.369   3.593  15.781  0.00  0.00    +0.000 A 
ATOM      9  C   UNL     1       6.054   4.506  14.968  0.00  0.00    +0.000 A 
ATOM     10  C   UNL     1       5.931   5.882  15.193  0.00  0.00    +0.000 A 
ATOM     11  C   UNL     1       5.126   6.351  16.231  0.00  0.00    +0.000 A 
ATOM     12  C   UNL     1       4.439   5.444  17.043  0.00  0.00    +0.000 A 
ATOM     13  N   UNL     1       3.652   5.904  18.041  0.00  0.00    +0.000 NA
ATOM     14  C   UNL     1       2.931   5.096  18.859  0.00  0.00    +0.000 A 
ENDROOT
BRANCH   1  16
ATOM     15  N   UNL     1       1.545   7.630  21.308  0.00  0.00    +0.000 N 
ATOM     16  C   UNL     1       1.955   7.122  20.108  0.00  0.00    +0.000 C 
ATOM     17  O   UNL     1       2.231   7.889  19.196  0.00  0.00    +0.000 OA
ATOM     18  H   UNL     1       1.409   7.011  22.113  0.00  0.00    +0.000 HD
BRANCH  15  19
ATOM     19  C   UNL     1       1.332   9.044  21.535  0.00  0.00    +0.000 C 
BRANCH  19  20
ATOM     20  C   UNL     1       0.025   9.258  22.312  0.00  0.00    +0.000 C 
BRANCH  20  21
ATOM     21  N   UNL     1       0.297   9.684  23.678  0.00  0.00    +0.000 NA
ATOM     22  H   UNL     1      -0.580  10.100  24.067  0.00  0.00    +0.000 HD
ATOM     23  H   UNL     1       1.024  10.436  23.661  0.00  0.00    +0.000 HD
ENDBRANCH  20  21
ENDBRANCH  19  20
ENDBRANCH  15  19
ENDBRANCH   1  16
TORSDOF 4
ENDMDL
MODEL 9
REMARK VINA RESULT:      -7.1      3.387      5.075
REMARK  Name = 
REMARK  4 active torsions:
REMARK  status: ('A' for Active; 'I' for Inactive)
REMARK    1  A    between atoms: N_1  and  C_2
REMARK    2  A    between atoms: C_2  and  C_3
REMARK    3  A    between atoms: C_3  and  N_4
REMARK    4  A    between atoms: C_5  and  C_7
REMARK                            x       y       z     vdW  Elec       q    Type
REMARK                         _______ _______ _______ _____ _____    ______ ____
ROOT
ATOM      1  C   UNL     1       4.908   4.548  18.051  0.00  0.00    +0.000 A 
ATOM      2  C   UNL     1       5.517   5.113  19.189  0.00  0.00    +0.000 A 
ATOM      3  C   UNL     1       6.800   5.667  19.119  0.00  0.00    +0.000 A 
ATOM      4  C   UNL     1       7.496   5.688  17.910  0.00  0.00    +0.000 A 
ATOM      5  C   UNL     1       6.907   5.163  16.753  0.00  0.00    +0.000 A 
ATOM      6  C   UNL     1       7.582   5.196  15.518  0.00  0.00    +0.000 A 
ATOM      7  C   UNL     1       6.967   4.673  14.369  0.00  0.00    +0.000 A 
ATOM      8  C   UNL     1       7.605   4.675  13.118  0.00  0.00    +0.000 A 
ATOM      9  C   UNL     1       6.956   4.135  12.000  0.00  0.00    +0.000 A 
ATOM     10  C   UNL     1       5.670   3.596  12.123  0.00  0.00    +0.000 A 
ATOM     11  C   UNL     1       5.027   3.597  13.361  0.00  0.00    +0.000 A 
ATOM     12  C   UNL     1       5.673   4.131  14.480  0.00  0.00    +0.000 A 
ATOM     13  N   UNL     1       5.051   4.119  15.679  0.00  0.00    +0.000 NA
ATOM     14  C   UNL     1       5.614   4.594  16.820  0.00  0.00    +0.000 A 
ENDROOT
BRANCH   1  16
ATOM     15  N   UNL     1       3.350   2.739  18.824  0.00  0.00    +0.000 N 
ATOM     16  C   UNL     1       3.541   3.936  18.194  0.00  0.00    +0.000 C 
ATOM     17  O   UNL     1       2.572   4.547  17.764  0.00  0.00    +0.000 OA
ATOM     18  H   UNL     1       4.134   2.264  19.282  0.00  0.00    +0.000 HD
BRANCH  15  19
ATOM     19  C   UNL     1       2.054   2.103  18.935  0.00  0.00    +0.000 C 
BRANCH  19  20
ATOM     20  C   UNL     1       1.424   2.433  20.296  0.00  0.00    +0.000 C 
BRANCH  20  21
ATOM     21  N   UNL     1       0.641   3.658  20.222  0.00  0.00    +0.000 NA
ATOM     22  H   UNL     1       0.430   3.846  19.214  0.00  0.00    +0.000 HD
ATOM     23  H   UNL     1       1.220   4.453  20.578  0.00  0.00    +0.000 HD
ENDBRANCH  20  21
ENDBRANCH  19  20
ENDBRANCH  15  19
ENDBRANCH   1  16
TORSDOF 4
ENDMDL
