MODEL 1
REMARK VINA RESULT:      -4.9      0.000      0.000
REMARK  Name = 
REMARK  3 active torsions:
REMARK  status: ('A' for Active; 'I' for Inactive)
REMARK    1  A    between atoms: C_1  and  C_2
REMARK    2  A    between atoms: C_3  and  O_4
REMARK    3  A    between atoms: C_7  and  C_8
REMARK                            x       y       z     vdW  Elec       q    Type
REMARK                         _______ _______ _______ _____ _____    ______ ____
ROOT
ATOM      1  C   UNL     1       4.076   4.934  19.508  0.00  0.00    +0.000 C 
ATOM      2  C   UNL     1       5.452   4.910  18.937  0.00  0.00    +0.000 C 
ATOM      3  C   UNL     1       5.872   4.285  17.832  0.00  0.00    +0.000 C 
ATOM      4  C   UNL     1       7.291   4.644  17.753  0.00  0.00    +0.000 C 
ATOM      5  O   UNL     1       8.069   4.249  16.897  0.00  0.00    +0.000 OA
ATOM      6  C   UNL     1       7.618   5.597  18.869  0.00  0.00    +0.000 C 
ATOM      7  C   UNL     1       7.931   6.984  18.344  0.00  0.00    +0.000 C 
ATOM      8  O   UNL     1       6.401   5.650  19.646  0.00  0.00    +0.000 OA
ENDROOT
BRANCH   3   9
ATOM      9  O   UNL     1       5.206   3.519  16.929  0.00  0.00    +0.000 OA
ATOM     10  H   UNL     1       4.330   3.905  16.774  0.00  0.00    +0.000 HD
ENDBRANCH   3   9
TORSDOF 1
ENDMDL
MODEL 2
REMARK VINA RESULT:      -4.8      2.721      4.381
REMARK  Name = 
REMARK  3 active torsions:
REMARK  status: ('A' for Active; 'I' for Inactive)
REMARK    1  A    between atoms: C_1  and  C_2
REMARK    2  A    between atoms: C_3  and  O_4
REMARK    3  A    between atoms: C_7  and  C_8
REMARK                            x       y       z     vdW  Elec       q    Type
REMARK                         _______ _______ _______ _____ _____    ______ ____
ROOT
ATOM      1  C   UNL     1       3.376   5.407  17.813  0.00  0.00    +0.000 C 
ATOM      2  C   UNL     1       3.562   4.214  18.687  0.00  0.00    +0.000 C 
ATOM      3  C   UNL     1       4.709   3.640  19.062  0.00  0.00    +0.000 C 
ATOM      4  C   UNL     1       4.277   2.546  19.936  0.00  0.00    +0.000 C 
ATOM      5  O   UNL     1       5.021   1.740  20.473  0.00  0.00    +0.000 OA
ATOM      6  C   UNL     1       2.782   2.603  20.089  0.00  0.00    +0.000 C 
ATOM      7  C   UNL     1       2.381   2.990  21.499  0.00  0.00    +0.000 C 
ATOM      8  O   UNL     1       2.382   3.653  19.180  0.00  0.00    +0.000 OA
ENDROOT
BRANCH   3   9
ATOM      9  O   UNL     1       6.000   3.954  18.778  0.00  0.00    +0.000 OA
ATOM     10  H   UNL     1       6.569   3.617  19.487  0.00  0.00    +0.000 HD
ENDBRANCH   3   9
TORSDOF 1
ENDMDL
MODEL 3
REMARK VINA RESULT:      -4.8      3.705      5.086
REMARK  Name = 
REMARK  3 active torsions:
REMARK  status: ('A' for Active; 'I' for Inactive)
REMARK    1  A    between atoms: C_1  and  C_2
REMARK    2  A    between atoms: C_3  and  O_4
REMARK    3  A    between atoms: C_7  and  C_8
REMARK                            x       y       z     vdW  Elec       q    Type
REMARK                         _______ _______ _______ _____ _____    ______ ____
ROOT
ATOM      1  C   UNL     1       4.195   3.357  17.366  0.00  0.00    +0.000 C 
ATOM      2  C   UNL     1       3.493   3.233  18.674  0.00  0.00    +0.000 C 
ATOM      3  C   UNL     1       3.937   2.654  19.794  0.00  0.00    +0.000 C 
ATOM      4  C   UNL     1       2.846   2.869  20.748  0.00  0.00    +0.000 C 
ATOM      5  O   UNL     1       2.831   2.461  21.900  0.00  0.00    +0.000 OA
ATOM      6  C   UNL     1       1.777   3.696  20.092  0.00  0.00    +0.000 C 
ATOM      7  C   UNL     1       1.685   5.079  20.706  0.00  0.00    +0.000 C 
ATOM      8  O   UNL     1       2.225   3.816  18.723  0.00  0.00    +0.000 OA
ENDROOT
BRANCH   3   9
ATOM      9  O   UNL     1       5.112   2.031  20.073  0.00  0.00    +0.000 OA
ATOM     10  H   UNL     1       5.752   2.689  20.385  0.00  0.00    +0.000 HD
ENDBRANCH   3   9
TORSDOF 1
ENDMDL
MODEL 4
REMARK VINA RESULT:      -4.8      1.861      2.480
REMARK  Name = 
REMARK  3 active torsions:
REMARK  status: ('A' for Active; 'I' for Inactive)
REMARK    1  A    between atoms: C_1  and  C_2
REMARK    2  A    between atoms: C_3  and  O_4
REMARK    3  A    between atoms: C_7  and  C_8
REMARK                            x       y       z     vdW  Elec       q    Type
REMARK                         _______ _______ _______ _____ _____    ______ ____
ROOT
ATOM      1  C   UNL     1       3.621   5.515  17.731  0.00  0.00    +0.000 C 
ATOM      2  C   UNL     1       5.042   5.289  17.344  0.00  0.00    +0.000 C 
ATOM      3  C   UNL     1       5.954   4.537  17.968  0.00  0.00    +0.000 C 
ATOM      4  C   UNL     1       7.143   4.664  17.119  0.00  0.00    +0.000 C 
ATOM      5  O   UNL     1       8.228   4.153  17.350  0.00  0.00    +0.000 OA
ATOM      6  C   UNL     1       6.796   5.490  15.912  0.00  0.00    +0.000 C 
ATOM      7  C   UNL     1       6.808   4.657  14.645  0.00  0.00    +0.000 C 
ATOM      8  O   UNL     1       5.446   5.933  16.173  0.00  0.00    +0.000 OA
ENDROOT
BRANCH   3   9
ATOM      9  O   UNL     1       5.872   3.781  19.094  0.00  0.00    +0.000 OA
ATOM     10  H   UNL     1       5.491   4.318  19.806  0.00  0.00    +0.000 HD
ENDBRANCH   3   9
TORSDOF 1
ENDMDL
MODEL 5
REMARK VINA RESULT:      -4.7      1.671      3.433
REMARK  Name = 
REMARK  3 active torsions:
REMARK  status: ('A' for Active; 'I' for Inactive)
REMARK    1  A    between atoms: C_1  and  C_2
REMARK    2  A    between atoms: C_3  and  O_4
REMARK    3  A    between atoms: C_7  and  C_8
REMARK                            x       y       z     vdW  Elec       q    Type
REMARK                         _______ _______ _______ _____ _____    ______ ____
ROOT
ATOM      1  C   UNL     1       7.865   7.648  17.814  0.00  0.00    +0.000 C 
ATOM      2  C   UNL     1       6.972   6.470  18.005  0.00  0.00    +0.000 C 
ATOM      3  C   UNL     1       6.948   5.614  19.032  0.00  0.00    +0.000 C 
ATOM      4  C   UNL     1       5.855   4.699  18.692  0.00  0.00    +0.000 C 
ATOM      5  O   UNL     1       5.515   3.733  19.358  0.00  0.00    +0.000 OA
ATOM      6  C   UNL     1       5.206   5.164  17.418  0.00  0.00    +0.000 C 
ATOM      7  C   UNL     1       3.801   5.678  17.664  0.00  0.00    +0.000 C 
ATOM      8  O   UNL     1       6.040   6.262  16.986  0.00  0.00    +0.000 OA
ENDROOT
BRANCH   3   9
ATOM      9  O   UNL     1       7.694   5.558  20.166  0.00  0.00    +0.000 OA
ATOM     10  H   UNL     1       7.656   6.419  20.612  0.00  0.00    +0.000 HD
ENDBRANCH   3   9
TORSDOF 1
ENDMDL
MODEL 6
REMARK VINA RESULT:      -4.7      1.747      3.453
REMARK  Name = 
REMARK  3 active torsions:
REMARK  status: ('A' for Active; 'I' for Inactive)
REMARK    1  A    between atoms: C_1  and  C_2
REMARK    2  A    between atoms: C_3  and  O_4
REMARK    3  A    between atoms: C_7  and  C_8
REMARK                            x       y       z     vdW  Elec       q    Type
REMARK                         _______ _______ _______ _____ _____    ______ ____
ROOT
ATOM      1  C   UNL     1       6.737   4.405  14.550  0.00  0.00    +0.000 C 
ATOM      2  C   UNL     1       6.209   4.526  15.938  0.00  0.00    +0.000 C 
ATOM      3  C   UNL     1       6.880   4.398  17.087  0.00  0.00    +0.000 C 
ATOM      4  C   UNL     1       5.862   4.655  18.110  0.00  0.00    +0.000 C 
ATOM      5  O   UNL     1       6.050   4.604  19.316  0.00  0.00    +0.000 OA
ATOM      6  C   UNL     1       4.570   5.022  17.434  0.00  0.00    +0.000 C 
ATOM      7  C   UNL     1       4.210   6.475  17.671  0.00  0.00    +0.000 C 
ATOM      8  O   UNL     1       4.849   4.828  16.029  0.00  0.00    +0.000 OA
ENDROOT
BRANCH   3   9
ATOM      9  O   UNL     1       8.190   4.134  17.333  0.00  0.00    +0.000 OA
ATOM     10  H   UNL     1       8.540   3.582  16.617  0.00  0.00    +0.000 HD
ENDBRANCH   3   9
TORSDOF 1
ENDMDL
MODEL 7
REMARK VINA RESULT:      -4.6      2.086      2.786
REMARK  Name = 
REMARK  3 active torsions:
REMARK  status: ('A' for Active; 'I' for Inactive)
REMARK    1  A    between atoms: C_1  and  C_2
REMARK    2  A    between atoms: C_3  and  O_4
REMARK    3  A    between atoms: C_7  and  C_8
REMARK                            x       y       z     vdW  Elec       q    Type
REMARK                         _______ _______ _______ _____ _____    ______ ____
ROOT
ATOM      1  C   UNL     1       2.759   2.944  17.550  0.00  0.00    +0.000 C 
ATOM      2  C   UNL     1       3.775   3.910  18.052  0.00  0.00    +0.000 C 
ATOM      3  C   UNL     1       4.764   3.685  18.922  0.00  0.00    +0.000 C 
ATOM      4  C   UNL     1       5.452   4.977  19.005  0.00  0.00    +0.000 C 
ATOM      5  O   UNL     1       6.408   5.219  19.725  0.00  0.00    +0.000 OA
ATOM      6  C   UNL     1       4.812   5.934  18.038  0.00  0.00    +0.000 C 
ATOM      7  C   UNL     1       5.743   6.272  16.890  0.00  0.00    +0.000 C 
ATOM      8  O   UNL     1       3.678   5.200  17.525  0.00  0.00    +0.000 OA
ENDROOT
BRANCH   3   9
ATOM      9  O   UNL     1       5.134   2.557  19.584  0.00  0.00    +0.000 OA
ATOM     10  H   UNL     1       5.769   2.066  19.040  0.00  0.00    +0.000 HD
ENDBRANCH   3   9
TORSDOF 1
ENDMDL
MODEL 8
REMARK VINA RESULT:      -4.6      2.838      4.668
REMARK  Name = 
REMARK  3 active torsions:
REMARK  status: ('A' for Active; 'I' for Inactive)
REMARK    1  A    between atoms: C_1  and  C_2
REMARK    2  A    between atoms: C_3  and  O_4
REMARK    3  A    between atoms: C_7  and  C_8
REMARK                            x       y       z     vdW  Elec       q    Type
REMARK                         _______ _______ _______ _____ _____    ______ ____
ROOT
ATOM      1  C   UNL     1       3.957   5.975  18.002  0.00  0.00    +0.000 C 
ATOM      2  C   UNL     1       3.576   4.535  18.040  0.00  0.00    +0.000 C 
ATOM      3  C   UNL     1       4.317   3.499  18.445  0.00  0.00    +0.000 C 
ATOM      4  C   UNL     1       3.417   2.352  18.292  0.00  0.00    +0.000 C 
ATOM      5  O   UNL     1       3.715   1.190  18.524  0.00  0.00    +0.000 OA
ATOM      6  C   UNL     1       2.070   2.843  17.841  0.00  0.00    +0.000 C 
ATOM      7  C   UNL     1       1.021   2.665  18.921  0.00  0.00    +0.000 C 
ATOM      8  O   UNL     1       2.277   4.255  17.612  0.00  0.00    +0.000 OA
ENDROOT
BRANCH   3   9
ATOM      9  O   UNL     1       5.586   3.441  18.929  0.00  0.00    +0.000 OA
ATOM     10  H   UNL     1       5.720   4.174  19.550  0.00  0.00    +0.000 HD
ENDBRANCH   3   9
TORSDOF 1
ENDMDL
MODEL 9
REMARK VINA RESULT:      -4.6      2.365      3.269
REMARK  Name = 
REMARK  3 active torsions:
REMARK  status: ('A' for Active; 'I' for Inactive)
REMARK    1  A    between atoms: C_1  and  C_2
REMARK    2  A    between atoms: C_3  and  O_4
REMARK    3  A    between atoms: C_7  and  C_8
REMARK                            x       y       z     vdW  Elec       q    Type
REMARK                         _______ _______ _______ _____ _____    ______ ____
ROOT
ATOM      1  C   UNL     1       2.050   2.651  20.556  0.00  0.00    +0.000 C 
ATOM      2  C   UNL     1       3.186   3.449  20.015  0.00  0.00    +0.000 C 
ATOM      3  C   UNL     1       4.410   3.023  19.691  0.00  0.00    +0.000 C 
ATOM      4  C   UNL     1       5.073   4.229  19.188  0.00  0.00    +0.000 C 
ATOM      5  O   UNL     1       6.234   4.287  18.812  0.00  0.00    +0.000 OA
ATOM      6  C   UNL     1       4.086   5.362  19.179  0.00  0.00    +0.000 C 
ATOM      7  C   UNL     1       3.732   5.782  17.766  0.00  0.00    +0.000 C 
ATOM      8  O   UNL     1       2.913   4.804  19.813  0.00  0.00    +0.000 OA
ENDROOT
BRANCH   3   9
ATOM      9  O   UNL     1       4.970   1.786  19.748  0.00  0.00    +0.000 OA
ATOM     10  H   UNL     1       5.933   1.879  19.808  0.00  0.00    +0.000 HD
ENDBRANCH   3   9
TORSDOF 1
ENDMDL
