MODEL 1
REMARK VINA RESULT:      -8.8      0.000      0.000
REMARK  Name = 
REMARK  4 active torsions:
REMARK  status: ('A' for Active; 'I' for Inactive)
REMARK    1  A    between atoms: C_1  and  C_2
REMARK    2  A    between atoms: C_4  and  C_5
REMARK    3  A    between atoms: C_5  and  N_6
REMARK    4  A    between atoms: N_6  and  C_7
REMARK                            x       y       z     vdW  Elec       q    Type
REMARK                         _______ _______ _______ _____ _____    ______ ____
ROOT
ATOM      1  C   UNL     1       3.576   4.583  17.569  0.00  0.00    +0.000 A 
ATOM      2  N   UNL     1       3.299   5.884  17.790  0.00  0.00    +0.000 NA
ATOM      3  C   UNL     1       2.630   6.272  18.934  0.00  0.00    +0.000 A 
ATOM      4  N   UNL     1       2.183   7.668  18.974  0.00  0.00    +0.000 N 
ATOM      5  N   UNL     1       2.348   8.391  17.815  0.00  0.00    +0.000 NA
ATOM      6  C   UNL     1       1.596   9.467  17.967  0.00  0.00    +0.000 A 
ATOM      7  C   UNL     1       1.070   9.593  19.256  0.00  0.00    +0.000 A 
ATOM      8  C   UNL     1       0.288  10.584  19.885  0.00  0.00    +0.000 A 
ATOM      9  C   UNL     1       0.038  10.498  21.246  0.00  0.00    +0.000 A 
ATOM     10  C   UNL     1       0.555   9.424  21.971  0.00  0.00    +0.000 A 
ATOM     11  C   UNL     1       1.282   8.370  21.343  0.00  0.00    +0.000 A 
ATOM     12  C   UNL     1       1.529   8.462  19.952  0.00  0.00    +0.000 A 
ATOM     13  N   UNL     1       2.280   5.418  19.910  0.00  0.00    +0.000 NA
ATOM     14  C   UNL     1       2.552   4.104  19.672  0.00  0.00    +0.000 A 
ATOM     15  N   UNL     1       2.089   3.190  20.630  0.00  0.00    +0.000 N 
ATOM     16  C   UNL     1       3.169   3.641  18.504  0.00  0.00    +0.000 A 
ATOM     17 BR   UNL     1       3.517   1.784  18.238  0.00  0.00    +0.000 Br
ATOM     18  H   UNL     1       1.758   3.671  21.458  0.00  0.00    +0.000 HD
ATOM     19  H   UNL     1       2.750   2.442  20.814  0.00  0.00    +0.000 HD
ENDROOT
BRANCH   1  20
ATOM     20  N   UNL     1       4.145   4.155  16.349  0.00  0.00    +0.000 N 
ATOM     21  H   UNL     1       3.732   3.297  15.992  0.00  0.00    +0.000 HD
BRANCH  20  22
ATOM     22  C   UNL     1       5.601   4.117  16.232  0.00  0.00    +0.000 C 
BRANCH  22  26
ATOM     23  C   UNL     1       7.867   8.449  17.635  0.00  0.00    +0.000 C 
ATOM     24  C   UNL     1       7.417   7.020  17.639  0.00  0.00    +0.000 A 
ATOM     25  N   UNL     1       6.680   6.420  16.715  0.00  0.00    +0.000 NA
ATOM     26  C   UNL     1       6.433   5.088  17.086  0.00  0.00    +0.000 A 
ATOM     27  C   UNL     1       7.037   4.722  18.276  0.00  0.00    +0.000 A 
ATOM     28  S   UNL     1       7.893   6.030  18.963  0.00  0.00    +0.000 S 
ENDBRANCH  22  26
ENDBRANCH  20  22
ENDBRANCH   1  20
TORSDOF 3
ENDMDL
MODEL 2
REMARK VINA RESULT:      -8.4      1.981      2.311
REMARK  Name = 
REMARK  4 active torsions:
REMARK  status: ('A' for Active; 'I' for Inactive)
REMARK    1  A    between atoms: C_1  and  C_2
REMARK    2  A    between atoms: C_4  and  C_5
REMARK    3  A    between atoms: C_5  and  N_6
REMARK    4  A    between atoms: N_6  and  C_7
REMARK                            x       y       z     vdW  Elec       q    Type
REMARK                         _______ _______ _______ _____ _____    ______ ____
ROOT
ATOM      1  C   UNL     1       4.460   4.395  19.047  0.00  0.00    +0.000 A 
ATOM      2  N   UNL     1       4.039   5.666  18.885  0.00  0.00    +0.000 NA
ATOM      3  C   UNL     1       2.999   6.161  19.648  0.00  0.00    +0.000 A 
ATOM      4  N   UNL     1       2.473   7.469  19.244  0.00  0.00    +0.000 N 
ATOM      5  N   UNL     1       2.972   7.987  18.071  0.00  0.00    +0.000 NA
ATOM      6  C   UNL     1       2.143   8.963  17.743  0.00  0.00    +0.000 A 
ATOM      7  C   UNL     1       1.206   9.248  18.741  0.00  0.00    +0.000 A 
ATOM      8  C   UNL     1       0.193  10.222  18.862  0.00  0.00    +0.000 A 
ATOM      9  C   UNL     1      -0.494  10.350  20.059  0.00  0.00    +0.000 A 
ATOM     10  C   UNL     1      -0.182   9.502  21.122  0.00  0.00    +0.000 A 
ATOM     11  C   UNL     1       0.782   8.459  20.998  0.00  0.00    +0.000 A 
ATOM     12  C   UNL     1       1.477   8.332  19.771  0.00  0.00    +0.000 A 
ATOM     13  N   UNL     1       2.397   5.458  20.621  0.00  0.00    +0.000 NA
ATOM     14  C   UNL     1       2.820   4.171  20.768  0.00  0.00    +0.000 A 
ATOM     15  N   UNL     1       2.123   3.390  21.702  0.00  0.00    +0.000 N 
ATOM     16  C   UNL     1       3.825   3.592  19.983  0.00  0.00    +0.000 A 
ATOM     17 BR   UNL     1       4.364   1.780  20.244  0.00  0.00    +0.000 Br
ATOM     18  H   UNL     1       1.502   3.963  22.259  0.00  0.00    +0.000 HD
ATOM     19  H   UNL     1       2.731   2.782  22.241  0.00  0.00    +0.000 HD
ENDROOT
BRANCH   1  20
ATOM     20  N   UNL     1       5.434   3.835  18.191  0.00  0.00    +0.000 N 
ATOM     21  H   UNL     1       5.934   3.054  18.608  0.00  0.00    +0.000 HD
BRANCH  20  22
ATOM     22  C   UNL     1       6.357   4.733  17.501  0.00  0.00    +0.000 C 
BRANCH  22  26
ATOM     23  C   UNL     1       8.193   5.564  12.831  0.00  0.00    +0.000 C 
ATOM     24  C   UNL     1       7.351   5.025  13.947  0.00  0.00    +0.000 A 
ATOM     25  N   UNL     1       7.440   5.344  15.230  0.00  0.00    +0.000 NA
ATOM     26  C   UNL     1       6.508   4.604  15.976  0.00  0.00    +0.000 A 
ATOM     27  C   UNL     1       5.715   3.772  15.205  0.00  0.00    +0.000 A 
ATOM     28  S   UNL     1       6.133   3.875  13.553  0.00  0.00    +0.000 S 
ENDBRANCH  22  26
ENDBRANCH  20  22
ENDBRANCH   1  20
TORSDOF 3
ENDMDL
MODEL 3
REMARK VINA RESULT:      -8.3      0.969      1.152
REMARK  Name = 
REMARK  4 active torsions:
REMARK  status: ('A' for Active; 'I' for Inactive)
REMARK    1  A    between atoms: C_1  and  C_2
REMARK    2  A    between atoms: C_4  and  C_5
REMARK    3  A    between atoms: C_5  and  N_6
REMARK    4  A    between atoms: N_6  and  C_7
REMARK                            x       y       z     vdW  Elec       q    Type
REMARK                         _______ _______ _______ _____ _____    ______ ____
ROOT
ATOM      1  C   UNL     1       3.306   4.500  17.844  0.00  0.00    +0.000 A 
ATOM      2  N   UNL     1       3.048   5.814  18.011  0.00  0.00    +0.000 NA
ATOM      3  C   UNL     1       2.474   6.270  19.182  0.00  0.00    +0.000 A 
ATOM      4  N   UNL     1       2.033   7.668  19.177  0.00  0.00    +0.000 N 
ATOM      5  N   UNL     1       2.104   8.323  17.969  0.00  0.00    +0.000 NA
ATOM      6  C   UNL     1       1.367   9.410  18.119  0.00  0.00    +0.000 A 
ATOM      7  C   UNL     1       0.948   9.612  19.438  0.00  0.00    +0.000 A 
ATOM      8  C   UNL     1       0.220  10.642  20.070  0.00  0.00    +0.000 A 
ATOM      9  C   UNL     1       0.082  10.635  21.449  0.00  0.00    +0.000 A 
ATOM     10  C   UNL     1       0.655   9.601  22.190  0.00  0.00    +0.000 A 
ATOM     11  C   UNL     1       1.328   8.509  21.567  0.00  0.00    +0.000 A 
ATOM     12  C   UNL     1       1.461   8.520  20.158  0.00  0.00    +0.000 A 
ATOM     13  N   UNL     1       2.204   5.475  20.230  0.00  0.00    +0.000 NA
ATOM     14  C   UNL     1       2.455   4.148  20.047  0.00  0.00    +0.000 A 
ATOM     15  N   UNL     1       2.071   3.293  21.089  0.00  0.00    +0.000 N 
ATOM     16  C   UNL     1       2.976   3.616  18.861  0.00  0.00    +0.000 A 
ATOM     17 BR   UNL     1       3.299   1.745  18.674  0.00  0.00    +0.000 Br
ATOM     18  H   UNL     1       1.809   3.821  21.913  0.00  0.00    +0.000 HD
ATOM     19  H   UNL     1       2.744   2.553  21.262  0.00  0.00    +0.000 HD
ENDROOT
BRANCH   1  20
ATOM     20  N   UNL     1       3.773   4.000  16.607  0.00  0.00    +0.000 N 
ATOM     21  H   UNL     1       3.295   3.154  16.310  0.00  0.00    +0.000 HD
BRANCH  20  22
ATOM     22  C   UNL     1       5.215   3.881  16.403  0.00  0.00    +0.000 C 
BRANCH  22  26
ATOM     23  C   UNL     1       8.316   5.653  20.025  0.00  0.00    +0.000 C 
ATOM     24  C   UNL     1       7.491   5.582  18.776  0.00  0.00    +0.000 A 
ATOM     25  N   UNL     1       6.737   4.566  18.383  0.00  0.00    +0.000 NA
ATOM     26  C   UNL     1       6.146   4.857  17.141  0.00  0.00    +0.000 A 
ATOM     27  C   UNL     1       6.456   6.117  16.661  0.00  0.00    +0.000 A 
ATOM     28  S   UNL     1       7.502   6.945  17.726  0.00  0.00    +0.000 S 
ENDBRANCH  22  26
ENDBRANCH  20  22
ENDBRANCH   1  20
TORSDOF 3
ENDMDL
MODEL 4
REMARK VINA RESULT:      -8.0      1.871      2.532
REMARK  Name = 
REMARK  4 active torsions:
REMARK  status: ('A' for Active; 'I' for Inactive)
REMARK    1  A    between atoms: C_1  and  C_2
REMARK    2  A    between atoms: C_4  and  C_5
REMARK    3  A    between atoms: C_5  and  N_6
REMARK    4  A    between atoms: N_6  and  C_7
REMARK                            x       y       z     vdW  Elec       q    Type
REMARK                         _______ _______ _______ _____ _____    ______ ____
ROOT
ATOM      1  C   UNL     1       3.279   4.890  18.429  0.00  0.00    +0.000 A 
ATOM      2  N   UNL     1       2.960   6.188  18.610  0.00  0.00    +0.000 NA
ATOM      3  C   UNL     1       2.280   6.589  19.743  0.00  0.00    +0.000 A 
ATOM      4  N   UNL     1       1.788   7.971  19.740  0.00  0.00    +0.000 N 
ATOM      5  N   UNL     1       1.929   8.662  18.558  0.00  0.00    +0.000 NA
ATOM      6  C   UNL     1       1.142   9.718  18.678  0.00  0.00    +0.000 A 
ATOM      7  C   UNL     1       0.614   9.867  19.964  0.00  0.00    +0.000 A 
ATOM      8  C   UNL     1      -0.200  10.851  20.563  0.00  0.00    +0.000 A 
ATOM      9  C   UNL     1      -0.444  10.800  21.927  0.00  0.00    +0.000 A 
ATOM     10  C   UNL     1       0.108   9.766  22.684  0.00  0.00    +0.000 A 
ATOM     11  C   UNL     1       0.868   8.717  22.087  0.00  0.00    +0.000 A 
ATOM     12  C   UNL     1       1.110   8.774  20.694  0.00  0.00    +0.000 A 
ATOM     13  N   UNL     1       1.959   5.756  20.746  0.00  0.00    +0.000 NA
ATOM     14  C   UNL     1       2.273   4.445  20.548  0.00  0.00    +0.000 A 
ATOM     15  N   UNL     1       1.841   3.546  21.535  0.00  0.00    +0.000 N 
ATOM     16  C   UNL     1       2.904   3.966  19.394  0.00  0.00    +0.000 A 
ATOM     17 BR   UNL     1       3.311   2.113  19.185  0.00  0.00    +0.000 Br
ATOM     18  H   UNL     1       1.496   4.041  22.348  0.00  0.00    +0.000 HD
ATOM     19  H   UNL     1       2.526   2.826  21.740  0.00  0.00    +0.000 HD
ENDROOT
BRANCH   1  20
ATOM     20  N   UNL     1       3.860   4.443  17.221  0.00  0.00    +0.000 N 
ATOM     21  H   UNL     1       3.499   3.545  16.910  0.00  0.00    +0.000 HD
BRANCH  20  22
ATOM     22  C   UNL     1       5.314   4.493  17.085  0.00  0.00    +0.000 C 
BRANCH  22  26
ATOM     23  C   UNL     1       5.851   3.259  12.180  0.00  0.00    +0.000 C 
ATOM     24  C   UNL     1       6.110   3.868  13.524  0.00  0.00    +0.000 A 
ATOM     25  N   UNL     1       5.387   3.699  14.622  0.00  0.00    +0.000 NA
ATOM     26  C   UNL     1       5.923   4.461  15.673  0.00  0.00    +0.000 A 
ATOM     27  C   UNL     1       7.069   5.156  15.328  0.00  0.00    +0.000 A 
ATOM     28  S   UNL     1       7.480   4.895  13.691  0.00  0.00    +0.000 S 
ENDBRANCH  22  26
ENDBRANCH  20  22
ENDBRANCH   1  20
TORSDOF 3
ENDMDL
MODEL 5
REMARK VINA RESULT:      -7.6      4.731      8.138
REMARK  Name = 
REMARK  4 active torsions:
REMARK  status: ('A' for Active; 'I' for Inactive)
REMARK    1  A    between atoms: C_1  and  C_2
REMARK    2  A    between atoms: C_4  and  C_5
REMARK    3  A    between atoms: C_5  and  N_6
REMARK    4  A    between atoms: N_6  and  C_7
REMARK                            x       y       z     vdW  Elec       q    Type
REMARK                         _______ _______ _______ _____ _____    ______ ____
ROOT
ATOM      1  C   UNL     1      -0.312  11.099  20.427  0.00  0.00    +0.000 A 
ATOM      2  N   UNL     1       0.326  10.186  19.666  0.00  0.00    +0.000 NA
ATOM      3  C   UNL     1       0.788   9.011  20.225  0.00  0.00    +0.000 A 
ATOM      4  N   UNL     1       1.656   8.193  19.372  0.00  0.00    +0.000 N 
ATOM      5  N   UNL     1       2.030   8.754  18.172  0.00  0.00    +0.000 NA
ATOM      6  C   UNL     1       3.041   8.016  17.745  0.00  0.00    +0.000 A 
ATOM      7  C   UNL     1       3.249   6.868  18.516  0.00  0.00    +0.000 A 
ATOM      8  C   UNL     1       4.143   5.783  18.406  0.00  0.00    +0.000 A 
ATOM      9  C   UNL     1       4.010   4.698  19.259  0.00  0.00    +0.000 A 
ATOM     10  C   UNL     1       3.002   4.703  20.223  0.00  0.00    +0.000 A 
ATOM     11  C   UNL     1       2.137   5.822  20.404  0.00  0.00    +0.000 A 
ATOM     12  C   UNL     1       2.281   6.929  19.533  0.00  0.00    +0.000 A 
ATOM     13  N   UNL     1       0.582   8.672  21.508  0.00  0.00    +0.000 NA
ATOM     14  C   UNL     1      -0.052   9.607  22.272  0.00  0.00    +0.000 A 
ATOM     15  N   UNL     1      -0.171   9.316  23.639  0.00  0.00    +0.000 N 
ATOM     16  C   UNL     1      -0.486  10.843  21.779  0.00  0.00    +0.000 A 
ATOM     17 BR   UNL     1      -1.364  12.105  22.909  0.00  0.00    +0.000 Br
ATOM     18  H   UNL     1       0.091   8.356  23.828  0.00  0.00    +0.000 HD
ATOM     19  H   UNL     1      -1.069   9.590  24.024  0.00  0.00    +0.000 HD
ENDROOT
BRANCH   1  20
ATOM     20  N   UNL     1      -0.678  12.359  19.901  0.00  0.00    +0.000 N 
ATOM     21  H   UNL     1      -1.444  12.798  20.406  0.00  0.00    +0.000 HD
BRANCH  20  22
ATOM     22  C   UNL     1      -0.867  12.485  18.458  0.00  0.00    +0.000 C 
BRANCH  22  26
ATOM     23  C   UNL     1      -3.721  10.143  14.960  0.00  0.00    +0.000 C 
ATOM     24  C   UNL     1      -3.311  10.819  16.233  0.00  0.00    +0.000 A 
ATOM     25  N   UNL     1      -2.116  11.318  16.514  0.00  0.00    +0.000 NA
ATOM     26  C   UNL     1      -2.106  11.837  17.819  0.00  0.00    +0.000 A 
ATOM     27  C   UNL     1      -3.327  11.740  18.465  0.00  0.00    +0.000 A 
ATOM     28  S   UNL     1      -4.492  10.981  17.474  0.00  0.00    +0.000 S 
ENDBRANCH  22  26
ENDBRANCH  20  22
ENDBRANCH   1  20
TORSDOF 3
ENDMDL
MODEL 6
REMARK VINA RESULT:      -7.5      4.684      8.308
REMARK  Name = 
REMARK  4 active torsions:
REMARK  status: ('A' for Active; 'I' for Inactive)
REMARK    1  A    between atoms: C_1  and  C_2
REMARK    2  A    between atoms: C_4  and  C_5
REMARK    3  A    between atoms: C_5  and  N_6
REMARK    4  A    between atoms: N_6  and  C_7
REMARK                            x       y       z     vdW  Elec       q    Type
REMARK                         _______ _______ _______ _____ _____    ______ ____
ROOT
ATOM      1  C   UNL     1       0.063  11.096  20.332  0.00  0.00    +0.000 A 
ATOM      2  N   UNL     1       0.654  10.112  19.623  0.00  0.00    +0.000 NA
ATOM      3  C   UNL     1       0.952   8.903  20.219  0.00  0.00    +0.000 A 
ATOM      4  N   UNL     1       1.787   7.989  19.434  0.00  0.00    +0.000 N 
ATOM      5  N   UNL     1       2.300   8.493  18.260  0.00  0.00    +0.000 NA
ATOM      6  C   UNL     1       3.256   7.650  17.909  0.00  0.00    +0.000 A 
ATOM      7  C   UNL     1       3.290   6.497  18.699  0.00  0.00    +0.000 A 
ATOM      8  C   UNL     1       4.072   5.323  18.657  0.00  0.00    +0.000 A 
ATOM      9  C   UNL     1       3.768   4.269  19.505  0.00  0.00    +0.000 A 
ATOM     10  C   UNL     1       2.702   4.390  20.395  0.00  0.00    +0.000 A 
ATOM     11  C   UNL     1       1.947   5.594  20.509  0.00  0.00    +0.000 A 
ATOM     12  C   UNL     1       2.266   6.669  19.645  0.00  0.00    +0.000 A 
ATOM     13  N   UNL     1       0.623   8.603  21.486  0.00  0.00    +0.000 NA
ATOM     14  C   UNL     1       0.039   9.607  22.198  0.00  0.00    +0.000 A 
ATOM     15  N   UNL     1      -0.205   9.347  23.555  0.00  0.00    +0.000 N 
ATOM     16  C   UNL     1      -0.230  10.876  21.670  0.00  0.00    +0.000 A 
ATOM     17 BR   UNL     1      -1.048  12.236  22.729  0.00  0.00    +0.000 Br
ATOM     18  H   UNL     1      -0.058   8.368  23.767  0.00  0.00    +0.000 HD
ATOM     19  H   UNL     1      -1.095   9.717  23.874  0.00  0.00    +0.000 HD
ENDROOT
BRANCH   1  20
ATOM     20  N   UNL     1      -0.132  12.380  19.776  0.00  0.00    +0.000 N 
ATOM     21  H   UNL     1      -0.633  13.014  20.393  0.00  0.00    +0.000 HD
BRANCH  20  22
ATOM     22  C   UNL     1      -0.639  12.479  18.409  0.00  0.00    +0.000 C 
BRANCH  22  26
ATOM     23  C   UNL     1      -5.606  11.640  19.115  0.00  0.00    +0.000 C 
ATOM     24  C   UNL     1      -4.242  11.635  18.493  0.00  0.00    +0.000 A 
ATOM     25  N   UNL     1      -3.136  12.151  19.009  0.00  0.00    +0.000 NA
ATOM     26  C   UNL     1      -2.065  11.985  18.115  0.00  0.00    +0.000 A 
ATOM     27  C   UNL     1      -2.407  11.305  16.959  0.00  0.00    +0.000 A 
ATOM     28  S   UNL     1      -4.063  10.888  16.953  0.00  0.00    +0.000 S 
ENDBRANCH  22  26
ENDBRANCH  20  22
ENDBRANCH   1  20
TORSDOF 3
ENDMDL
MODEL 7
REMARK VINA RESULT:      -7.3      2.528      6.742
REMARK  Name = 
REMARK  4 active torsions:
REMARK  status: ('A' for Active; 'I' for Inactive)
REMARK    1  A    between atoms: C_1  and  C_2
REMARK    2  A    between atoms: C_4  and  C_5
REMARK    3  A    between atoms: C_5  and  N_6
REMARK    4  A    between atoms: N_6  and  C_7
REMARK                            x       y       z     vdW  Elec       q    Type
REMARK                         _______ _______ _______ _____ _____    ______ ____
ROOT
ATOM      1  C   UNL     1       3.057   4.856  19.374  0.00  0.00    +0.000 A 
ATOM      2  N   UNL     1       3.842   5.313  18.377  0.00  0.00    +0.000 NA
ATOM      3  C   UNL     1       4.031   4.560  17.235  0.00  0.00    +0.000 A 
ATOM      4  N   UNL     1       5.069   5.038  16.316  0.00  0.00    +0.000 N 
ATOM      5  N   UNL     1       5.833   6.093  16.760  0.00  0.00    +0.000 NA
ATOM      6  C   UNL     1       6.879   6.128  15.951  0.00  0.00    +0.000 A 
ATOM      7  C   UNL     1       6.763   5.256  14.864  0.00  0.00    +0.000 A 
ATOM      8  C   UNL     1       7.577   5.006  13.740  0.00  0.00    +0.000 A 
ATOM      9  C   UNL     1       7.117   4.167  12.736  0.00  0.00    +0.000 A 
ATOM     10  C   UNL     1       5.860   3.574  12.860  0.00  0.00    +0.000 A 
ATOM     11  C   UNL     1       5.054   3.750  14.023  0.00  0.00    +0.000 A 
ATOM     12  C   UNL     1       5.532   4.604  15.047  0.00  0.00    +0.000 A 
ATOM     13  N   UNL     1       3.414   3.388  17.013  0.00  0.00    +0.000 NA
ATOM     14  C   UNL     1       2.635   2.928  18.032  0.00  0.00    +0.000 A 
ATOM     15  N   UNL     1       2.077   1.652  17.861  0.00  0.00    +0.000 N 
ATOM     16  C   UNL     1       2.454   3.614  19.239  0.00  0.00    +0.000 A 
ATOM     17 BR   UNL     1       1.349   2.906  20.624  0.00  0.00    +0.000 Br
ATOM     18  H   UNL     1       2.206   1.326  16.910  0.00  0.00    +0.000 HD
ATOM     19  H   UNL     1       1.123   1.590  18.200  0.00  0.00    +0.000 HD
ENDROOT
BRANCH   1  20
ATOM     20  N   UNL     1       2.954   5.553  20.599  0.00  0.00    +0.000 N 
ATOM     21  H   UNL     1       3.317   5.030  21.391  0.00  0.00    +0.000 HD
BRANCH  20  22
ATOM     22  C   UNL     1       1.682   6.187  20.936  0.00  0.00    +0.000 C 
BRANCH  22  26
ATOM     23  C   UNL     1       1.817  10.319  17.972  0.00  0.00    +0.000 C 
ATOM     24  C   UNL     1       1.548   9.424  19.143  0.00  0.00    +0.000 A 
ATOM     25  N   UNL     1       1.904   8.153  19.266  0.00  0.00    +0.000 NA
ATOM     26  C   UNL     1       1.441   7.639  20.488  0.00  0.00    +0.000 A 
ATOM     27  C   UNL     1       0.777   8.570  21.267  0.00  0.00    +0.000 A 
ATOM     28  S   UNL     1       0.693  10.085  20.482  0.00  0.00    +0.000 S 
ENDBRANCH  22  26
ENDBRANCH  20  22
ENDBRANCH   1  20
TORSDOF 3
ENDMDL
MODEL 8
REMARK VINA RESULT:      -7.3      5.111      8.804
REMARK  Name = 
REMARK  4 active torsions:
REMARK  status: ('A' for Active; 'I' for Inactive)
REMARK    1  A    between atoms: C_1  and  C_2
REMARK    2  A    between atoms: C_4  and  C_5
REMARK    3  A    between atoms: C_5  and  N_6
REMARK    4  A    between atoms: N_6  and  C_7
REMARK                            x       y       z     vdW  Elec       q    Type
REMARK                         _______ _______ _______ _____ _____    ______ ____
ROOT
ATOM      1  C   UNL     1      -0.365  11.069  20.444  0.00  0.00    +0.000 A 
ATOM      2  N   UNL     1       0.270  10.165  19.671  0.00  0.00    +0.000 NA
ATOM      3  C   UNL     1       0.767   9.000  20.223  0.00  0.00    +0.000 A 
ATOM      4  N   UNL     1       1.629   8.195  19.351  0.00  0.00    +0.000 N 
ATOM      5  N   UNL     1       1.963   8.758  18.141  0.00  0.00    +0.000 NA
ATOM      6  C   UNL     1       2.976   8.037  17.692  0.00  0.00    +0.000 A 
ATOM      7  C   UNL     1       3.224   6.896  18.461  0.00  0.00    +0.000 A 
ATOM      8  C   UNL     1       4.135   5.826  18.332  0.00  0.00    +0.000 A 
ATOM      9  C   UNL     1       4.043   4.743  19.192  0.00  0.00    +0.000 A 
ATOM     10  C   UNL     1       3.059   4.734  20.181  0.00  0.00    +0.000 A 
ATOM     11  C   UNL     1       2.178   5.837  20.380  0.00  0.00    +0.000 A 
ATOM     12  C   UNL     1       2.281   6.943  19.501  0.00  0.00    +0.000 A 
ATOM     13  N   UNL     1       0.599   8.663  21.512  0.00  0.00    +0.000 NA
ATOM     14  C   UNL     1      -0.033   9.589  22.287  0.00  0.00    +0.000 A 
ATOM     15  N   UNL     1      -0.113   9.301  23.658  0.00  0.00    +0.000 N 
ATOM     16  C   UNL     1      -0.502  10.815  21.801  0.00  0.00    +0.000 A 
ATOM     17 BR   UNL     1      -1.374  12.066  22.948  0.00  0.00    +0.000 Br
ATOM     18  H   UNL     1       0.171   8.347  23.844  0.00  0.00    +0.000 HD
ATOM     19  H   UNL     1      -1.007   9.560  24.064  0.00  0.00    +0.000 HD
ENDROOT
BRANCH   1  20
ATOM     20  N   UNL     1      -0.767  12.320  19.924  0.00  0.00    +0.000 N 
ATOM     21  H   UNL     1      -1.025  12.991  20.643  0.00  0.00    +0.000 HD
BRANCH  20  22
ATOM     22  C   UNL     1      -1.729  12.343  18.824  0.00  0.00    +0.000 C 
BRANCH  22  26
ATOM     23  C   UNL     1      -6.596  10.958  18.311  0.00  0.00    +0.000 C 
ATOM     24  C   UNL     1      -5.353  11.587  18.862  0.00  0.00    +0.000 A 
ATOM     25  N   UNL     1      -4.141  11.541  18.329  0.00  0.00    +0.000 NA
ATOM     26  C   UNL     1      -3.226  12.216  19.154  0.00  0.00    +0.000 A 
ATOM     27  C   UNL     1      -3.804  12.785  20.275  0.00  0.00    +0.000 A 
ATOM     28  S   UNL     1      -5.480  12.467  20.335  0.00  0.00    +0.000 S 
ENDBRANCH  22  26
ENDBRANCH  20  22
ENDBRANCH   1  20
TORSDOF 3
ENDMDL
MODEL 9
REMARK VINA RESULT:      -7.2      2.544      6.929
REMARK  Name = 
REMARK  4 active torsions:
REMARK  status: ('A' for Active; 'I' for Inactive)
REMARK    1  A    between atoms: C_1  and  C_2
REMARK    2  A    between atoms: C_4  and  C_5
REMARK    3  A    between atoms: C_5  and  N_6
REMARK    4  A    between atoms: N_6  and  C_7
REMARK                            x       y       z     vdW  Elec       q    Type
REMARK                         _______ _______ _______ _____ _____    ______ ____
ROOT
ATOM      1  C   UNL     1       3.335   5.006  19.013  0.00  0.00    +0.000 A 
ATOM      2  N   UNL     1       4.079   5.407  17.962  0.00  0.00    +0.000 NA
ATOM      3  C   UNL     1       4.225   4.591  16.857  0.00  0.00    +0.000 A 
ATOM      4  N   UNL     1       5.224   5.017  15.873  0.00  0.00    +0.000 N 
ATOM      5  N   UNL     1       6.004   6.094  16.227  0.00  0.00    +0.000 NA
ATOM      6  C   UNL     1       7.016   6.084  15.377  0.00  0.00    +0.000 A 
ATOM      7  C   UNL     1       6.859   5.153  14.345  0.00  0.00    +0.000 A 
ATOM      8  C   UNL     1       7.629   4.840  13.205  0.00  0.00    +0.000 A 
ATOM      9  C   UNL     1       7.131   3.947  12.268  0.00  0.00    +0.000 A 
ATOM     10  C   UNL     1       5.881   3.362  12.475  0.00  0.00    +0.000 A 
ATOM     11  C   UNL     1       5.122   3.603  13.657  0.00  0.00    +0.000 A 
ATOM     12  C   UNL     1       5.638   4.512  14.612  0.00  0.00    +0.000 A 
ATOM     13  N   UNL     1       3.602   3.408  16.725  0.00  0.00    +0.000 NA
ATOM     14  C   UNL     1       2.863   3.006  17.798  0.00  0.00    +0.000 A 
ATOM     15  N   UNL     1       2.301   1.723  17.720  0.00  0.00    +0.000 N 
ATOM     16  C   UNL     1       2.729   3.759  18.971  0.00  0.00    +0.000 A 
ATOM     17 BR   UNL     1       1.681   3.130  20.435  0.00  0.00    +0.000 Br
ATOM     18  H   UNL     1       2.393   1.345  16.785  0.00  0.00    +0.000 HD
ATOM     19  H   UNL     1       1.361   1.681  18.100  0.00  0.00    +0.000 HD
ENDROOT
BRANCH   1  20
ATOM     20  N   UNL     1       3.279   5.770  20.201  0.00  0.00    +0.000 N 
ATOM     21  H   UNL     1       3.633   5.275  21.015  0.00  0.00    +0.000 HD
BRANCH  20  22
ATOM     22  C   UNL     1       2.039   6.473  20.520  0.00  0.00    +0.000 C 
BRANCH  22  26
ATOM     23  C   UNL     1       0.327  11.232  19.972  0.00  0.00    +0.000 C 
ATOM     24  C   UNL     1       0.978   9.917  19.669  0.00  0.00    +0.000 A 
ATOM     25  N   UNL     1       1.048   8.865  20.472  0.00  0.00    +0.000 NA
ATOM     26  C   UNL     1       1.770   7.832  19.852  0.00  0.00    +0.000 A 
ATOM     27  C   UNL     1       2.189   8.140  18.569  0.00  0.00    +0.000 A 
ATOM     28  S   UNL     1       1.718   9.721  18.128  0.00  0.00    +0.000 S 
ENDBRANCH  22  26
ENDBRANCH  20  22
ENDBRANCH   1  20
TORSDOF 3
ENDMDL
