MODEL 1
REMARK VINA RESULT:      -8.5      0.000      0.000
REMARK  Name = 
REMARK  5 active torsions:
REMARK  status: ('A' for Active; 'I' for Inactive)
REMARK    1  A    between atoms: C_1  and  N_2
REMARK    2  A    between atoms: N_2  and  C_3
REMARK    3  A    between atoms: N_2  and  C_4
REMARK    4  A    between atoms: C_11  and  C_12
REMARK    5  A    between atoms: C_20  and  O_21
REMARK                            x       y       z     vdW  Elec       q    Type
REMARK                         _______ _______ _______ _____ _____    ______ ____
ROOT
ATOM      1  C   UNL     1       5.933   3.485  12.731  0.00  0.00    +0.000 A 
ATOM      2  C   UNL     1       6.934   4.331  12.243  0.00  0.00    +0.000 A 
ATOM      3  C   UNL     1       7.637   5.220  13.061  0.00  0.00    +0.000 A 
ATOM      4  C   UNL     1       7.307   5.251  14.420  0.00  0.00    +0.000 A 
ATOM      5  N   UNL     1       7.841   6.026  15.419  0.00  0.00    +0.000 N 
ATOM      6  C   UNL     1       7.248   5.727  16.599  0.00  0.00    +0.000 A 
ATOM      7 CL   UNL     1       7.803   6.607  17.948  0.00  0.00    +0.000 Cl
ATOM      8  C   UNL     1       6.335   4.704  16.432  0.00  0.00    +0.000 A 
ATOM      9  C   UNL     1       6.333   4.432  15.002  0.00  0.00    +0.000 A 
ATOM     10  C   UNL     1       5.640   3.556  14.124  0.00  0.00    +0.000 A 
ATOM     11  H   UNL     1       8.579   6.704  15.290  0.00  0.00    +0.000 HD
ENDROOT
BRANCH   8  12
ATOM     12  C   UNL     1       5.616   4.092  17.550  0.00  0.00    +0.000 C 
ATOM     13  C   UNL     1       4.355   4.436  17.919  0.00  0.00    +0.000 C 
ATOM     14  C   UNL     1       3.930   5.835  17.510  0.00  0.00    +0.000 C 
ATOM     15  O   UNL     1       4.649   6.781  17.285  0.00  0.00    +0.000 OA
ATOM     16  N   UNL     1       2.586   5.939  17.784  0.00  0.00    +0.000 N 
ATOM     17  C   UNL     1       2.328   5.005  18.790  0.00  0.00    +0.000 A 
ATOM     18  C   UNL     1       1.340   5.205  19.732  0.00  0.00    +0.000 A 
ATOM     19  C   UNL     1       1.171   4.222  20.686  0.00  0.00    +0.000 A 
ATOM     20  C   UNL     1       1.910   3.035  20.572  0.00  0.00    +0.000 A 
ATOM     21  C   UNL     1       2.961   2.882  19.634  0.00  0.00    +0.000 A 
ATOM     22  C   UNL     1       3.268   3.964  18.822  0.00  0.00    +0.000 A 
ATOM     23  H   UNL     1       2.095   5.655  16.935  0.00  0.00    +0.000 HD
BRANCH  20  24
ATOM     24  O   UNL     1       1.625   2.000  21.423  0.00  0.00    +0.000 OA
ATOM     25  H   UNL     1       0.801   2.204  21.902  0.00  0.00    +0.000 HD
ENDBRANCH  20  24
ENDBRANCH   8  12
BRANCH   1  27
ATOM     26  C   UNL     1       4.006   3.058  11.226  0.00  0.00    +0.000 C 
ATOM     27  N   UNL     1       5.253   2.625  11.859  0.00  0.00    +0.000 N 
ATOM     28  C   UNL     1       5.912   1.448  11.316  0.00  0.00    +0.000 C 
ENDBRANCH   1  27
TORSDOF 3
ENDMDL
MODEL 2
REMARK VINA RESULT:      -7.5      2.947      7.484
REMARK  Name = 
REMARK  5 active torsions:
REMARK  status: ('A' for Active; 'I' for Inactive)
REMARK    1  A    between atoms: C_1  and  N_2
REMARK    2  A    between atoms: N_2  and  C_3
REMARK    3  A    between atoms: N_2  and  C_4
REMARK    4  A    between atoms: C_11  and  C_12
REMARK    5  A    between atoms: C_20  and  O_21
REMARK                            x       y       z     vdW  Elec       q    Type
REMARK                         _______ _______ _______ _____ _____    ______ ____
ROOT
ATOM      1  C   UNL     1       1.606   8.677  18.801  0.00  0.00    +0.000 A 
ATOM      2  C   UNL     1       1.636   8.524  20.191  0.00  0.00    +0.000 A 
ATOM      3  C   UNL     1       2.126   7.372  20.814  0.00  0.00    +0.000 A 
ATOM      4  C   UNL     1       2.599   6.342  19.993  0.00  0.00    +0.000 A 
ATOM      5  N   UNL     1       3.124   5.125  20.353  0.00  0.00    +0.000 N 
ATOM      6  C   UNL     1       3.479   4.433  19.245  0.00  0.00    +0.000 A 
ATOM      7 CL   UNL     1       4.151   2.892  19.522  0.00  0.00    +0.000 Cl
ATOM      8  C   UNL     1       3.250   5.189  18.112  0.00  0.00    +0.000 A 
ATOM      9  C   UNL     1       2.625   6.412  18.596  0.00  0.00    +0.000 A 
ATOM     10  C   UNL     1       2.103   7.598  18.014  0.00  0.00    +0.000 A 
ATOM     11  H   UNL     1       3.241   4.808  21.305  0.00  0.00    +0.000 HD
ENDROOT
BRANCH   8  12
ATOM     12  C   UNL     1       3.636   4.746  16.772  0.00  0.00    +0.000 C 
ATOM     13  C   UNL     1       4.888   4.879  16.261  0.00  0.00    +0.000 C 
ATOM     14  C   UNL     1       5.718   5.986  16.886  0.00  0.00    +0.000 C 
ATOM     15  O   UNL     1       5.311   6.977  17.447  0.00  0.00    +0.000 OA
ATOM     16  N   UNL     1       6.997   5.849  16.397  0.00  0.00    +0.000 N 
ATOM     17  C   UNL     1       6.869   5.179  15.177  0.00  0.00    +0.000 A 
ATOM     18  C   UNL     1       7.751   5.390  14.138  0.00  0.00    +0.000 A 
ATOM     19  C   UNL     1       7.532   4.681  12.973  0.00  0.00    +0.000 A 
ATOM     20  C   UNL     1       6.523   3.706  12.954  0.00  0.00    +0.000 A 
ATOM     21  C   UNL     1       5.594   3.555  14.014  0.00  0.00    +0.000 A 
ATOM     22  C   UNL     1       5.689   4.426  15.090  0.00  0.00    +0.000 A 
ATOM     23  H   UNL     1       7.494   5.248  17.055  0.00  0.00    +0.000 HD
BRANCH  20  24
ATOM     24  O   UNL     1       6.414   2.896  11.856  0.00  0.00    +0.000 OA
ATOM     25  H   UNL     1       5.549   3.049  11.435  0.00  0.00    +0.000 HD
ENDBRANCH  20  24
ENDBRANCH   8  12
BRANCH   1  27
ATOM     26  C   UNL     1      -0.359  10.061  18.181  0.00  0.00    +0.000 C 
ATOM     27  N   UNL     1       1.089   9.850  18.235  0.00  0.00    +0.000 N 
ATOM     28  C   UNL     1       1.947  10.998  17.996  0.00  0.00    +0.000 C 
ENDBRANCH   1  27
TORSDOF 3
ENDMDL
MODEL 3
REMARK VINA RESULT:      -7.5      2.705      7.561
REMARK  Name = 
REMARK  5 active torsions:
REMARK  status: ('A' for Active; 'I' for Inactive)
REMARK    1  A    between atoms: C_1  and  N_2
REMARK    2  A    between atoms: N_2  and  C_3
REMARK    3  A    between atoms: N_2  and  C_4
REMARK    4  A    between atoms: C_11  and  C_12
REMARK    5  A    between atoms: C_20  and  O_21
REMARK                            x       y       z     vdW  Elec       q    Type
REMARK                         _______ _______ _______ _____ _____    ______ ____
ROOT
ATOM      1  C   UNL     1       1.928   7.529  19.421  0.00  0.00    +0.000 A 
ATOM      2  C   UNL     1       1.827   6.981  20.703  0.00  0.00    +0.000 A 
ATOM      3  C   UNL     1       2.145   5.649  20.983  0.00  0.00    +0.000 A 
ATOM      4  C   UNL     1       2.578   4.848  19.920  0.00  0.00    +0.000 A 
ATOM      5  N   UNL     1       2.944   3.525  19.932  0.00  0.00    +0.000 N 
ATOM      6  C   UNL     1       3.318   3.141  18.689  0.00  0.00    +0.000 A 
ATOM      7 CL   UNL     1       3.806   1.516  18.533  0.00  0.00    +0.000 Cl
ATOM      8  C   UNL     1       3.262   4.213  17.818  0.00  0.00    +0.000 A 
ATOM      9  C   UNL     1       2.726   5.312  18.609  0.00  0.00    +0.000 A 
ATOM     10  C   UNL     1       2.376   6.669  18.377  0.00  0.00    +0.000 A 
ATOM     11  H   UNL     1       2.950   2.936  20.753  0.00  0.00    +0.000 HD
ENDROOT
BRANCH   8  12
ATOM     12  C   UNL     1       3.710   4.129  16.428  0.00  0.00    +0.000 C 
ATOM     13  C   UNL     1       4.991   4.347  16.030  0.00  0.00    +0.000 C 
ATOM     14  C   UNL     1       5.811   5.216  16.967  0.00  0.00    +0.000 C 
ATOM     15  O   UNL     1       5.397   6.035  17.754  0.00  0.00    +0.000 OA
ATOM     16  N   UNL     1       7.111   5.166  16.520  0.00  0.00    +0.000 N 
ATOM     17  C   UNL     1       7.036   4.852  15.161  0.00  0.00    +0.000 A 
ATOM     18  C   UNL     1       7.978   5.299  14.259  0.00  0.00    +0.000 A 
ATOM     19  C   UNL     1       7.807   4.935  12.937  0.00  0.00    +0.000 A 
ATOM     20  C   UNL     1       6.778   4.039  12.611  0.00  0.00    +0.000 A 
ATOM     21  C   UNL     1       5.789   3.645  13.546  0.00  0.00    +0.000 A 
ATOM     22  C   UNL     1       5.845   4.194  14.820  0.00  0.00    +0.000 A 
ATOM     23  H   UNL     1       7.558   4.393  17.015  0.00  0.00    +0.000 HD
BRANCH  20  24
ATOM     24  O   UNL     1       6.711   3.556  11.331  0.00  0.00    +0.000 OA
ATOM     25  H   UNL     1       7.606   3.300  11.043  0.00  0.00    +0.000 HD
ENDBRANCH  20  24
ENDBRANCH   8  12
BRANCH   1  27
ATOM     26  C   UNL     1       1.745   9.458  17.870  0.00  0.00    +0.000 C 
ATOM     27  N   UNL     1       1.581   8.868  19.200  0.00  0.00    +0.000 N 
ATOM     28  C   UNL     1       0.765   9.591  20.162  0.00  0.00    +0.000 C 
ENDBRANCH   1  27
TORSDOF 3
ENDMDL
MODEL 4
REMARK VINA RESULT:      -7.3      1.467      1.982
REMARK  Name = 
REMARK  5 active torsions:
REMARK  status: ('A' for Active; 'I' for Inactive)
REMARK    1  A    between atoms: C_1  and  N_2
REMARK    2  A    between atoms: N_2  and  C_3
REMARK    3  A    between atoms: N_2  and  C_4
REMARK    4  A    between atoms: C_11  and  C_12
REMARK    5  A    between atoms: C_20  and  O_21
REMARK                            x       y       z     vdW  Elec       q    Type
REMARK                         _______ _______ _______ _____ _____    ______ ____
ROOT
ATOM      1  C   UNL     1       5.824   3.518  12.422  0.00  0.00    +0.000 A 
ATOM      2  C   UNL     1       7.176   3.836  12.263  0.00  0.00    +0.000 A 
ATOM      3  C   UNL     1       7.878   4.631  13.174  0.00  0.00    +0.000 A 
ATOM      4  C   UNL     1       7.177   5.122  14.281  0.00  0.00    +0.000 A 
ATOM      5  N   UNL     1       7.631   5.916  15.305  0.00  0.00    +0.000 N 
ATOM      6  C   UNL     1       6.629   6.145  16.187  0.00  0.00    +0.000 A 
ATOM      7 CL   UNL     1       7.031   7.119  17.525  0.00  0.00    +0.000 Cl
ATOM      8  C   UNL     1       5.488   5.466  15.804  0.00  0.00    +0.000 A 
ATOM      9  C   UNL     1       5.829   4.844  14.533  0.00  0.00    +0.000 A 
ATOM     10  C   UNL     1       5.160   4.043  13.570  0.00  0.00    +0.000 A 
ATOM     11  H   UNL     1       8.577   6.260  15.392  0.00  0.00    +0.000 HD
ENDROOT
BRANCH   8  12
ATOM     12  C   UNL     1       4.272   5.435  16.619  0.00  0.00    +0.000 C 
ATOM     13  C   UNL     1       4.124   4.668  17.730  0.00  0.00    +0.000 C 
ATOM     14  C   UNL     1       5.020   3.443  17.783  0.00  0.00    +0.000 C 
ATOM     15  O   UNL     1       5.517   2.859  16.848  0.00  0.00    +0.000 OA
ATOM     16  N   UNL     1       4.882   2.903  19.041  0.00  0.00    +0.000 N 
ATOM     17  C   UNL     1       3.630   3.322  19.501  0.00  0.00    +0.000 A 
ATOM     18  C   UNL     1       2.880   2.553  20.366  0.00  0.00    +0.000 A 
ATOM     19  C   UNL     1       1.654   3.058  20.754  0.00  0.00    +0.000 A 
ATOM     20  C   UNL     1       1.302   4.358  20.361  0.00  0.00    +0.000 A 
ATOM     21  C   UNL     1       2.063   5.099  19.423  0.00  0.00    +0.000 A 
ATOM     22  C   UNL     1       3.181   4.492  18.869  0.00  0.00    +0.000 A 
ATOM     23  H   UNL     1       5.606   3.330  19.620  0.00  0.00    +0.000 HD
BRANCH  20  24
ATOM     24  O   UNL     1       0.163   4.914  20.879  0.00  0.00    +0.000 OA
ATOM     25  H   UNL     1       0.327   5.163  21.806  0.00  0.00    +0.000 HD
ENDBRANCH  20  24
ENDBRANCH   8  12
BRANCH   1  27
ATOM     26  C   UNL     1       5.685   1.395  11.145  0.00  0.00    +0.000 C 
ATOM     27  N   UNL     1       5.171   2.727  11.468  0.00  0.00    +0.000 N 
ATOM     28  C   UNL     1       3.825   3.055  11.028  0.00  0.00    +0.000 C 
ENDBRANCH   1  27
TORSDOF 3
ENDMDL
MODEL 5
REMARK VINA RESULT:      -7.3      3.216      7.167
REMARK  Name = 
REMARK  5 active torsions:
REMARK  status: ('A' for Active; 'I' for Inactive)
REMARK    1  A    between atoms: C_1  and  N_2
REMARK    2  A    between atoms: N_2  and  C_3
REMARK    3  A    between atoms: N_2  and  C_4
REMARK    4  A    between atoms: C_11  and  C_12
REMARK    5  A    between atoms: C_20  and  O_21
REMARK                            x       y       z     vdW  Elec       q    Type
REMARK                         _______ _______ _______ _____ _____    ______ ____
ROOT
ATOM      1  C   UNL     1       2.690   3.863  19.285  0.00  0.00    +0.000 A 
ATOM      2  C   UNL     1       2.908   2.573  18.789  0.00  0.00    +0.000 A 
ATOM      3  C   UNL     1       3.805   2.304  17.752  0.00  0.00    +0.000 A 
ATOM      4  C   UNL     1       4.501   3.386  17.199  0.00  0.00    +0.000 A 
ATOM      5  N   UNL     1       5.424   3.387  16.183  0.00  0.00    +0.000 N 
ATOM      6  C   UNL     1       5.871   4.648  15.971  0.00  0.00    +0.000 A 
ATOM      7 CL   UNL     1       7.030   4.822  14.735  0.00  0.00    +0.000 Cl
ATOM      8  C   UNL     1       5.297   5.520  16.876  0.00  0.00    +0.000 A 
ATOM      9  C   UNL     1       4.362   4.706  17.640  0.00  0.00    +0.000 A 
ATOM     10  C   UNL     1       3.427   4.925  18.688  0.00  0.00    +0.000 A 
ATOM     11  H   UNL     1       5.734   2.565  15.685  0.00  0.00    +0.000 HD
ENDROOT
BRANCH   8  12
ATOM     12  C   UNL     1       5.668   6.933  16.962  0.00  0.00    +0.000 C 
ATOM     13  C   UNL     1       6.797   7.385  17.566  0.00  0.00    +0.000 C 
ATOM     14  C   UNL     1       7.368   6.457  18.625  0.00  0.00    +0.000 C 
ATOM     15  O   UNL     1       6.771   5.622  19.263  0.00  0.00    +0.000 OA
ATOM     16  N   UNL     1       8.594   6.970  18.983  0.00  0.00    +0.000 N 
ATOM     17  C   UNL     1       8.538   8.334  18.688  0.00  0.00    +0.000 A 
ATOM     18  C   UNL     1       9.246   9.265  19.419  0.00  0.00    +0.000 A 
ATOM     19  C   UNL     1       9.117  10.589  19.047  0.00  0.00    +0.000 A 
ATOM     20  C   UNL     1       8.390  10.897  17.887  0.00  0.00    +0.000 A 
ATOM     21  C   UNL     1       7.623   9.930  17.192  0.00  0.00    +0.000 A 
ATOM     22  C   UNL     1       7.584   8.641  17.705  0.00  0.00    +0.000 A 
ATOM     23  H   UNL     1       9.281   6.527  18.373  0.00  0.00    +0.000 HD
BRANCH  20  24
ATOM     24  O   UNL     1       8.398  12.189  17.432  0.00  0.00    +0.000 OA
ATOM     25  H   UNL     1       9.321  12.467  17.289  0.00  0.00    +0.000 HD
ENDBRANCH  20  24
ENDBRANCH   8  12
BRANCH   1  27
ATOM     26  C   UNL     1       1.355   2.953  21.170  0.00  0.00    +0.000 C 
ATOM     27  N   UNL     1       1.767   4.071  20.318  0.00  0.00    +0.000 N 
ATOM     28  C   UNL     1       1.453   5.416  20.773  0.00  0.00    +0.000 C 
ENDBRANCH   1  27
TORSDOF 3
ENDMDL
MODEL 6
REMARK VINA RESULT:      -6.9      3.934      6.254
REMARK  Name = 
REMARK  5 active torsions:
REMARK  status: ('A' for Active; 'I' for Inactive)
REMARK    1  A    between atoms: C_1  and  N_2
REMARK    2  A    between atoms: N_2  and  C_3
REMARK    3  A    between atoms: N_2  and  C_4
REMARK    4  A    between atoms: C_11  and  C_12
REMARK    5  A    between atoms: C_20  and  O_21
REMARK                            x       y       z     vdW  Elec       q    Type
REMARK                         _______ _______ _______ _____ _____    ______ ____
ROOT
ATOM      1  C   UNL     1       6.125   5.408  18.154  0.00  0.00    +0.000 A 
ATOM      2  C   UNL     1       5.889   4.315  17.313  0.00  0.00    +0.000 A 
ATOM      3  C   UNL     1       4.684   3.607  17.314  0.00  0.00    +0.000 A 
ATOM      4  C   UNL     1       3.687   4.023  18.204  0.00  0.00    +0.000 A 
ATOM      5  N   UNL     1       2.433   3.501  18.398  0.00  0.00    +0.000 N 
ATOM      6  C   UNL     1       1.779   4.216  19.344  0.00  0.00    +0.000 A 
ATOM      7 CL   UNL     1       0.198   3.694  19.704  0.00  0.00    +0.000 Cl
ATOM      8  C   UNL     1       2.560   5.272  19.772  0.00  0.00    +0.000 A 
ATOM      9  C   UNL     1       3.825   5.114  19.070  0.00  0.00    +0.000 A 
ATOM     10  C   UNL     1       5.074   5.790  19.038  0.00  0.00    +0.000 A 
ATOM     11  H   UNL     1       2.053   2.711  17.895  0.00  0.00    +0.000 HD
ENDROOT
BRANCH   8  12
ATOM     12  C   UNL     1       2.078   6.284  20.714  0.00  0.00    +0.000 C 
ATOM     13  C   UNL     1       1.538   7.473  20.338  0.00  0.00    +0.000 C 
ATOM     14  C   UNL     1       1.958   7.957  18.961  0.00  0.00    +0.000 C 
ATOM     15  O   UNL     1       2.965   7.664  18.359  0.00  0.00    +0.000 OA
ATOM     16  N   UNL     1       1.177   9.052  18.669  0.00  0.00    +0.000 N 
ATOM     17  C   UNL     1       0.780   9.577  19.902  0.00  0.00    +0.000 A 
ATOM     18  C   UNL     1       0.548  10.925  20.076  0.00  0.00    +0.000 A 
ATOM     19  C   UNL     1       0.164  11.340  21.336  0.00  0.00    +0.000 A 
ATOM     20  C   UNL     1      -0.091  10.371  22.318  0.00  0.00    +0.000 A 
ATOM     21  C   UNL     1       0.215   9.001  22.131  0.00  0.00    +0.000 A 
ATOM     22  C   UNL     1       0.808   8.626  20.933  0.00  0.00    +0.000 A 
ATOM     23  H   UNL     1       0.355   8.698  18.179  0.00  0.00    +0.000 HD
BRANCH  20  24
ATOM     24  O   UNL     1      -0.625  10.774  23.514  0.00  0.00    +0.000 OA
ATOM     25  H   UNL     1      -0.317  11.678  23.708  0.00  0.00    +0.000 HD
ENDBRANCH  20  24
ENDBRANCH   8  12
BRANCH   1  27
ATOM     26  C   UNL     1       7.583   7.148  17.152  0.00  0.00    +0.000 C 
ATOM     27  N   UNL     1       7.359   6.069  18.117  0.00  0.00    +0.000 N 
ATOM     28  C   UNL     1       8.304   5.939  19.214  0.00  0.00    +0.000 C 
ENDBRANCH   1  27
TORSDOF 3
ENDMDL
MODEL 7
REMARK VINA RESULT:      -6.9     10.536     13.357
REMARK  Name = 
REMARK  5 active torsions:
REMARK  status: ('A' for Active; 'I' for Inactive)
REMARK    1  A    between atoms: C_1  and  N_2
REMARK    2  A    between atoms: N_2  and  C_3
REMARK    3  A    between atoms: N_2  and  C_4
REMARK    4  A    between atoms: C_11  and  C_12
REMARK    5  A    between atoms: C_20  and  O_21
REMARK                            x       y       z     vdW  Elec       q    Type
REMARK                         _______ _______ _______ _____ _____    ______ ____
ROOT
ATOM      1  C   UNL     1      -1.579  10.353  18.298  0.00  0.00    +0.000 A 
ATOM      2  C   UNL     1      -1.820   9.828  17.025  0.00  0.00    +0.000 A 
ATOM      3  C   UNL     1      -2.972  10.125  16.291  0.00  0.00    +0.000 A 
ATOM      4  C   UNL     1      -3.910  10.983  16.875  0.00  0.00    +0.000 A 
ATOM      5  N   UNL     1      -5.108  11.423  16.368  0.00  0.00    +0.000 N 
ATOM      6  C   UNL     1      -5.700  12.261  17.252  0.00  0.00    +0.000 A 
ATOM      7 CL   UNL     1      -7.204  12.900  16.770  0.00  0.00    +0.000 Cl
ATOM      8  C   UNL     1      -4.889  12.446  18.355  0.00  0.00    +0.000 A 
ATOM      9  C   UNL     1      -3.748  11.570  18.135  0.00  0.00    +0.000 A 
ATOM     10  C   UNL     1      -2.567  11.224  18.843  0.00  0.00    +0.000 A 
ATOM     11  H   UNL     1      -5.478  11.171  15.462  0.00  0.00    +0.000 HD
ENDROOT
BRANCH   8  12
ATOM     12  C   UNL     1      -5.216  13.384  19.431  0.00  0.00    +0.000 C 
ATOM     13  C   UNL     1      -5.799  13.020  20.602  0.00  0.00    +0.000 C 
ATOM     14  C   UNL     1      -6.606  11.735  20.540  0.00  0.00    +0.000 C 
ATOM     15  O   UNL     1      -7.118  11.240  19.563  0.00  0.00    +0.000 OA
ATOM     16  N   UNL     1      -6.952  11.420  21.834  0.00  0.00    +0.000 N 
ATOM     17  C   UNL     1      -6.933  12.627  22.539  0.00  0.00    +0.000 A 
ATOM     18  C   UNL     1      -7.769  12.854  23.612  0.00  0.00    +0.000 A 
ATOM     19  C   UNL     1      -7.672  14.083  24.236  0.00  0.00    +0.000 A 
ATOM     20  C   UNL     1      -6.659  14.967  23.835  0.00  0.00    +0.000 A 
ATOM     21  C   UNL     1      -5.857  14.733  22.690  0.00  0.00    +0.000 A 
ATOM     22  C   UNL     1      -6.112  13.594  21.940  0.00  0.00    +0.000 A 
ATOM     23  H   UNL     1      -6.212  10.815  22.193  0.00  0.00    +0.000 HD
BRANCH  20  24
ATOM     24  O   UNL     1      -6.464  16.113  24.559  0.00  0.00    +0.000 OA
ATOM     25  H   UNL     1      -5.568  16.096  24.940  0.00  0.00    +0.000 HD
ENDBRANCH  20  24
ENDBRANCH   8  12
BRANCH   1  27
ATOM     26  C   UNL     1       0.825   9.735  18.254  0.00  0.00    +0.000 C 
ATOM     27  N   UNL     1      -0.411  10.007  18.991  0.00  0.00    +0.000 N 
ATOM     28  C   UNL     1      -0.308  10.225  20.424  0.00  0.00    +0.000 C 
ENDBRANCH   1  27
TORSDOF 3
ENDMDL
MODEL 8
REMARK VINA RESULT:      -6.7      6.420      9.924
REMARK  Name = 
REMARK  5 active torsions:
REMARK  status: ('A' for Active; 'I' for Inactive)
REMARK    1  A    between atoms: C_1  and  N_2
REMARK    2  A    between atoms: N_2  and  C_3
REMARK    3  A    between atoms: N_2  and  C_4
REMARK    4  A    between atoms: C_11  and  C_12
REMARK    5  A    between atoms: C_20  and  O_21
REMARK                            x       y       z     vdW  Elec       q    Type
REMARK                         _______ _______ _______ _____ _____    ______ ____
ROOT
ATOM      1  C   UNL     1       1.632  13.973  20.918  0.00  0.00    +0.000 A 
ATOM      2  C   UNL     1       0.302  14.346  21.136  0.00  0.00    +0.000 A 
ATOM      3  C   UNL     1      -0.778  13.657  20.577  0.00  0.00    +0.000 A 
ATOM      4  C   UNL     1      -0.492  12.553  19.765  0.00  0.00    +0.000 A 
ATOM      5  N   UNL     1      -1.363  11.721  19.105  0.00  0.00    +0.000 N 
ATOM      6  C   UNL     1      -0.671  10.763  18.446  0.00  0.00    +0.000 A 
ATOM      7 CL   UNL     1      -1.610   9.642  17.572  0.00  0.00    +0.000 Cl
ATOM      8  C   UNL     1       0.683  10.895  18.688  0.00  0.00    +0.000 A 
ATOM      9  C   UNL     1       0.803  12.095  19.503  0.00  0.00    +0.000 A 
ATOM     10  C   UNL     1       1.864  12.839  20.086  0.00  0.00    +0.000 A 
ATOM     11  H   UNL     1      -2.370  11.806  19.128  0.00  0.00    +0.000 HD
ENDROOT
BRANCH   8  12
ATOM     12  C   UNL     1       1.674   9.938  18.196  0.00  0.00    +0.000 C 
ATOM     13  C   UNL     1       1.878   8.710  18.740  0.00  0.00    +0.000 C 
ATOM     14  C   UNL     1       1.455   8.579  20.193  0.00  0.00    +0.000 C 
ATOM     15  O   UNL     1       1.357   9.465  21.009  0.00  0.00    +0.000 OA
ATOM     16  N   UNL     1       1.545   7.244  20.515  0.00  0.00    +0.000 N 
ATOM     17  C   UNL     1       2.480   6.700  19.629  0.00  0.00    +0.000 A 
ATOM     18  C   UNL     1       3.283   5.636  19.984  0.00  0.00    +0.000 A 
ATOM     19  C   UNL     1       4.177   5.179  19.035  0.00  0.00    +0.000 A 
ATOM     20  C   UNL     1       4.130   5.725  17.744  0.00  0.00    +0.000 A 
ATOM     21  C   UNL     1       3.340   6.857  17.426  0.00  0.00    +0.000 A 
ATOM     22  C   UNL     1       2.609   7.446  18.448  0.00  0.00    +0.000 A 
ATOM     23  H   UNL     1       0.630   6.837  20.320  0.00  0.00    +0.000 HD
BRANCH  20  24
ATOM     24  O   UNL     1       4.905   5.160  16.765  0.00  0.00    +0.000 OA
ATOM     25  H   UNL     1       4.488   5.323  15.900  0.00  0.00    +0.000 HD
ENDBRANCH  20  24
ENDBRANCH   8  12
BRANCH   1  27
ATOM     26  C   UNL     1       2.369  15.872  22.336  0.00  0.00    +0.000 C 
ATOM     27  N   UNL     1       2.673  14.712  21.496  0.00  0.00    +0.000 N 
ATOM     28  C   UNL     1       4.022  14.174  21.551  0.00  0.00    +0.000 C 
ENDBRANCH   1  27
TORSDOF 3
ENDMDL
MODEL 9
REMARK VINA RESULT:      -6.7      8.941     12.102
REMARK  Name = 
REMARK  5 active torsions:
REMARK  status: ('A' for Active; 'I' for Inactive)
REMARK    1  A    between atoms: C_1  and  N_2
REMARK    2  A    between atoms: N_2  and  C_3
REMARK    3  A    between atoms: N_2  and  C_4
REMARK    4  A    between atoms: C_11  and  C_12
REMARK    5  A    between atoms: C_20  and  O_21
REMARK                            x       y       z     vdW  Elec       q    Type
REMARK                         _______ _______ _______ _____ _____    ______ ____
ROOT
ATOM      1  C   UNL     1       0.968   9.343  20.212  0.00  0.00    +0.000 A 
ATOM      2  C   UNL     1       0.644   8.593  21.347  0.00  0.00    +0.000 A 
ATOM      3  C   UNL     1      -0.110   9.110  22.405  0.00  0.00    +0.000 A 
ATOM      4  C   UNL     1      -0.544  10.437  22.304  0.00  0.00    +0.000 A 
ATOM      5  N   UNL     1      -1.287  11.170  23.197  0.00  0.00    +0.000 N 
ATOM      6  C   UNL     1      -1.505  12.411  22.701  0.00  0.00    +0.000 A 
ATOM      7 CL   UNL     1      -2.418  13.452  23.693  0.00  0.00    +0.000 Cl
ATOM      8  C   UNL     1      -0.958  12.527  21.438  0.00  0.00    +0.000 A 
ATOM      9  C   UNL     1      -0.284  11.258  21.202  0.00  0.00    +0.000 A 
ATOM     10  C   UNL     1       0.497  10.687  20.161  0.00  0.00    +0.000 A 
ATOM     11  H   UNL     1      -1.632  10.824  24.081  0.00  0.00    +0.000 HD
ENDROOT
BRANCH   8  12
ATOM     12  C   UNL     1      -1.127  13.719  20.606  0.00  0.00    +0.000 C 
ATOM     13  C   UNL     1      -0.105  14.528  20.225  0.00  0.00    +0.000 C 
ATOM     14  C   UNL     1       1.113  14.487  21.131  0.00  0.00    +0.000 C 
ATOM     15  O   UNL     1       1.145  14.175  22.299  0.00  0.00    +0.000 OA
ATOM     16  N   UNL     1       2.105  15.200  20.497  0.00  0.00    +0.000 N 
ATOM     17  C   UNL     1       1.449  16.090  19.643  0.00  0.00    +0.000 A 
ATOM     18  C   UNL     1       1.983  17.322  19.330  0.00  0.00    +0.000 A 
ATOM     19  C   UNL     1       1.251  18.128  18.480  0.00  0.00    +0.000 A 
ATOM     20  C   UNL     1       0.089  17.608  17.889  0.00  0.00    +0.000 A 
ATOM     21  C   UNL     1      -0.468  16.364  18.277  0.00  0.00    +0.000 A 
ATOM     22  C   UNL     1       0.160  15.660  19.294  0.00  0.00    +0.000 A 
ATOM     23  H   UNL     1       2.630  14.528  19.936  0.00  0.00    +0.000 HD
BRANCH  20  24
ATOM     24  O   UNL     1      -0.544  18.348  16.926  0.00  0.00    +0.000 OA
ATOM     25  H   UNL     1      -1.249  18.874  17.346  0.00  0.00    +0.000 HD
ENDBRANCH  20  24
ENDBRANCH   8  12
BRANCH   1  27
ATOM     26  C   UNL     1       2.291   7.427  19.353  0.00  0.00    +0.000 C 
ATOM     27  N   UNL     1       1.738   8.773  19.190  0.00  0.00    +0.000 N 
ATOM     28  C   UNL     1       1.735   9.344  17.853  0.00  0.00    +0.000 C 
ENDBRANCH   1  27
TORSDOF 3
ENDMDL
