MODEL 1
REMARK VINA RESULT:      -6.8      0.000      0.000
REMARK  Name = 
REMARK  12 active torsions:
REMARK  status: ('A' for Active; 'I' for Inactive)
REMARK    1  A    between atoms: C_1  and  C_2
REMARK    2  A    between atoms: C_5  and  C_6
REMARK    3  A    between atoms: N_8  and  C_9
REMARK    4  A    between atoms: C_9  and  C_10
REMARK    5  A    between atoms: C_10  and  C_11
REMARK    6  A    between atoms: C_11  and  O_12
REMARK    7  A    between atoms: C_11  and  P_13
REMARK    8  A    between atoms: C_11  and  P_17
REMARK    9  A    between atoms: P_13  and  O_15
REMARK   10  A    between atoms: P_13  and  O_16
REMARK   11  A    between atoms: P_17  and  O_19
REMARK   12  A    between atoms: P_17  and  O_20
REMARK                            x       y       z     vdW  Elec       q    Type
REMARK                         _______ _______ _______ _____ _____    ______ ____
ROOT
ATOM      1  C   UNL     1       2.726   3.525  19.493  0.00  0.00    +0.000 C 
ENDROOT
BRANCH   1   2
ATOM      2  O   UNL     1       4.190   3.523  19.630  0.00  0.00    +0.000 OA
ATOM      3  H   UNL     1       4.330   3.767  20.574  0.00  0.00    +0.000 HD
ENDBRANCH   1   2
BRANCH   1   4
ATOM      4  P   UNL     1       1.947   2.956  21.048  0.00  0.00    +0.000 P 
ATOM      5  O   UNL     1       2.361   4.216  21.809  0.00  0.00    +0.000 OA
BRANCH   4   6
ATOM      6  O   UNL     1       0.443   3.331  20.496  0.00  0.00    +0.000 OA
ATOM      7  H   UNL     1       0.464   4.023  19.807  0.00  0.00    +0.000 HD
ENDBRANCH   4   6
BRANCH   4   8
ATOM      8  O   UNL     1       1.211   2.417  22.518  0.00  0.00    +0.000 OA
ATOM      9  H   UNL     1       0.254   2.393  22.292  0.00  0.00    +0.000 HD
ENDBRANCH   4   8
ENDBRANCH   1   4
BRANCH   1  10
ATOM     10  P   UNL     1       2.305   2.474  18.030  0.00  0.00    +0.000 P 
ATOM     11  O   UNL     1       2.291   3.176  16.710  0.00  0.00    +0.000 OA
BRANCH  10  12
ATOM     12  O   UNL     1       3.352   1.252  18.137  0.00  0.00    +0.000 OA
ATOM     13  H   UNL     1       3.745   1.059  17.261  0.00  0.00    +0.000 HD
ENDBRANCH  10  12
BRANCH  10  14
ATOM     14  O   UNL     1       0.949   1.674  18.287  0.00  0.00    +0.000 OA
ATOM     15  H   UNL     1       1.117   0.839  18.759  0.00  0.00    +0.000 HD
ENDBRANCH  10  14
ENDBRANCH   1  10
BRANCH   1  16
ATOM     16  C   UNL     1       2.291   4.982  19.173  0.00  0.00    +0.000 C 
BRANCH  16  17
ATOM     17  C   UNL     1       3.409   5.926  18.724  0.00  0.00    +0.000 C 
BRANCH  17  20
ATOM     18  C   UNL     1       5.357   5.371  17.330  0.00  0.00    +0.000 C 
ATOM     19  O   UNL     1       6.139   5.484  18.264  0.00  0.00    +0.000 OA
ATOM     20  N   UNL     1       3.993   5.533  17.457  0.00  0.00    +0.000 N 
ATOM     21  H   UNL     1       3.384   5.464  16.657  0.00  0.00    +0.000 HD
BRANCH  18  26
ATOM     22  C   UNL     1       7.026   3.903  11.973  0.00  0.00    +0.000 C 
ATOM     23  C   UNL     1       6.624   4.250  13.376  0.00  0.00    +0.000 A 
ATOM     24  C   UNL     1       5.354   3.920  13.855  0.00  0.00    +0.000 A 
ATOM     25  C   UNL     1       4.975   4.278  15.152  0.00  0.00    +0.000 A 
ATOM     26  C   UNL     1       5.859   4.977  15.982  0.00  0.00    +0.000 A 
ATOM     27  C   UNL     1       7.139   5.275  15.520  0.00  0.00    +0.000 A 
ATOM     28  C   UNL     1       7.520   4.918  14.221  0.00  0.00    +0.000 A 
ENDBRANCH  18  26
ENDBRANCH  17  20
ENDBRANCH  16  17
ENDBRANCH   1  16
TORSDOF 11
ENDMDL
MODEL 2
REMARK VINA RESULT:      -6.8      1.396      3.113
REMARK  Name = 
REMARK  12 active torsions:
REMARK  status: ('A' for Active; 'I' for Inactive)
REMARK    1  A    between atoms: C_1  and  C_2
REMARK    2  A    between atoms: C_5  and  C_6
REMARK    3  A    between atoms: N_8  and  C_9
REMARK    4  A    between atoms: C_9  and  C_10
REMARK    5  A    between atoms: C_10  and  C_11
REMARK    6  A    between atoms: C_11  and  O_12
REMARK    7  A    between atoms: C_11  and  P_13
REMARK    8  A    between atoms: C_11  and  P_17
REMARK    9  A    between atoms: P_13  and  O_15
REMARK   10  A    between atoms: P_13  and  O_16
REMARK   11  A    between atoms: P_17  and  O_19
REMARK   12  A    between atoms: P_17  and  O_20
REMARK                            x       y       z     vdW  Elec       q    Type
REMARK                         _______ _______ _______ _____ _____    ______ ____
ROOT
ATOM      1  C   UNL     1       3.116   3.913  19.307  0.00  0.00    +0.000 C 
ENDROOT
BRANCH   1   2
ATOM      2  O   UNL     1       2.344   4.462  18.182  0.00  0.00    +0.000 OA
ATOM      3  H   UNL     1       2.461   3.785  17.476  0.00  0.00    +0.000 HD
ENDBRANCH   1   2
BRANCH   1   4
ATOM      4  P   UNL     1       3.657   2.207  18.928  0.00  0.00    +0.000 P 
ATOM      5  O   UNL     1       3.905   2.529  17.453  0.00  0.00    +0.000 OA
BRANCH   4   6
ATOM      6  O   UNL     1       5.129   2.462  19.617  0.00  0.00    +0.000 OA
ATOM      7  H   UNL     1       5.506   1.646  19.998  0.00  0.00    +0.000 HD
ENDBRANCH   4   6
BRANCH   4   8
ATOM      8  O   UNL     1       4.168   0.594  18.569  0.00  0.00    +0.000 OA
ATOM      9  H   UNL     1       3.319   0.117  18.427  0.00  0.00    +0.000 HD
ENDBRANCH   4   8
ENDBRANCH   1   4
BRANCH   1  10
ATOM     10  P   UNL     1       2.051   4.030  20.816  0.00  0.00    +0.000 P 
ATOM     11  O   UNL     1       2.372   3.066  21.912  0.00  0.00    +0.000 OA
BRANCH  10  12
ATOM     12  O   UNL     1       2.161   5.585  21.228  0.00  0.00    +0.000 OA
ATOM     13  H   UNL     1       1.544   6.127  20.692  0.00  0.00    +0.000 HD
ENDBRANCH  10  12
BRANCH  10  14
ATOM     14  O   UNL     1       0.508   3.978  20.418  0.00  0.00    +0.000 OA
ATOM     15  H   UNL     1       0.079   4.843  20.553  0.00  0.00    +0.000 HD
ENDBRANCH  10  14
ENDBRANCH   1  10
BRANCH   1  16
ATOM     16  C   UNL     1       4.347   4.836  19.521  0.00  0.00    +0.000 C 
BRANCH  16  17
ATOM     17  C   UNL     1       4.633   5.835  18.398  0.00  0.00    +0.000 C 
BRANCH  17  20
ATOM     18  C   UNL     1       5.612   5.878  16.143  0.00  0.00    +0.000 C 
ATOM     19  O   UNL     1       5.981   7.039  16.256  0.00  0.00    +0.000 OA
ATOM     20  N   UNL     1       4.972   5.183  17.149  0.00  0.00    +0.000 N 
ATOM     21  H   UNL     1       4.654   4.237  17.006  0.00  0.00    +0.000 HD
BRANCH  18  26
ATOM     22  C   UNL     1       7.047   2.891  11.382  0.00  0.00    +0.000 C 
ATOM     23  C   UNL     1       6.646   3.689  12.587  0.00  0.00    +0.000 A 
ATOM     24  C   UNL     1       7.537   4.593  13.172  0.00  0.00    +0.000 A 
ATOM     25  C   UNL     1       7.168   5.307  14.316  0.00  0.00    +0.000 A 
ATOM     26  C   UNL     1       5.907   5.120  14.892  0.00  0.00    +0.000 A 
ATOM     27  C   UNL     1       5.002   4.248  14.290  0.00  0.00    +0.000 A 
ATOM     28  C   UNL     1       5.371   3.531  13.146  0.00  0.00    +0.000 A 
ENDBRANCH  18  26
ENDBRANCH  17  20
ENDBRANCH  16  17
ENDBRANCH   1  16
TORSDOF 11
ENDMDL
MODEL 3
REMARK VINA RESULT:      -6.8      1.310      2.769
REMARK  Name = 
REMARK  12 active torsions:
REMARK  status: ('A' for Active; 'I' for Inactive)
REMARK    1  A    between atoms: C_1  and  C_2
REMARK    2  A    between atoms: C_5  and  C_6
REMARK    3  A    between atoms: N_8  and  C_9
REMARK    4  A    between atoms: C_9  and  C_10
REMARK    5  A    between atoms: C_10  and  C_11
REMARK    6  A    between atoms: C_11  and  O_12
REMARK    7  A    between atoms: C_11  and  P_13
REMARK    8  A    between atoms: C_11  and  P_17
REMARK    9  A    between atoms: P_13  and  O_15
REMARK   10  A    between atoms: P_13  and  O_16
REMARK   11  A    between atoms: P_17  and  O_19
REMARK   12  A    between atoms: P_17  and  O_20
REMARK                            x       y       z     vdW  Elec       q    Type
REMARK                         _______ _______ _______ _____ _____    ______ ____
ROOT
ATOM      1  C   UNL     1       3.121   4.032  19.427  0.00  0.00    +0.000 C 
ENDROOT
BRANCH   1   2
ATOM      2  O   UNL     1       2.429   3.877  18.139  0.00  0.00    +0.000 OA
ATOM      3  H   UNL     1       1.570   3.467  18.392  0.00  0.00    +0.000 HD
ENDBRANCH   1   2
BRANCH   1   4
ATOM      4  P   UNL     1       4.192   2.583  19.745  0.00  0.00    +0.000 P 
ATOM      5  O   UNL     1       3.511   1.743  18.663  0.00  0.00    +0.000 OA
BRANCH   4   6
ATOM      6  O   UNL     1       5.454   3.271  18.942  0.00  0.00    +0.000 OA
ATOM      7  H   UNL     1       5.902   3.955  19.474  0.00  0.00    +0.000 HD
ENDBRANCH   4   6
BRANCH   4   8
ATOM      8  O   UNL     1       5.205   1.213  20.046  0.00  0.00    +0.000 OA
ATOM      9  H   UNL     1       4.559   0.481  20.169  0.00  0.00    +0.000 HD
ENDBRANCH   4   8
ENDBRANCH   1   4
BRANCH   1  10
ATOM     10  P   UNL     1       1.826   4.290  20.724  0.00  0.00    +0.000 P 
ATOM     11  O   UNL     1       1.466   5.713  21.006  0.00  0.00    +0.000 OA
BRANCH  10  12
ATOM     12  O   UNL     1       0.604   3.369  20.217  0.00  0.00    +0.000 OA
ATOM     13  H   UNL     1       0.792   3.011  19.324  0.00  0.00    +0.000 HD
ENDBRANCH  10  12
BRANCH  10  14
ATOM     14  O   UNL     1       2.206   3.501  22.058  0.00  0.00    +0.000 OA
ATOM     15  H   UNL     1       2.430   2.573  21.867  0.00  0.00    +0.000 HD
ENDBRANCH  10  14
ENDBRANCH   1  10
BRANCH   1  16
ATOM     16  C   UNL     1       3.975   5.328  19.344  0.00  0.00    +0.000 C 
BRANCH  16  17
ATOM     17  C   UNL     1       3.807   6.152  18.066  0.00  0.00    +0.000 C 
BRANCH  17  20
ATOM     18  C   UNL     1       5.462   5.995  16.254  0.00  0.00    +0.000 C 
ATOM     19  O   UNL     1       6.078   6.977  16.644  0.00  0.00    +0.000 OA
ATOM     20  N   UNL     1       4.353   5.487  16.900  0.00  0.00    +0.000 N 
ATOM     21  H   UNL     1       3.853   4.695  16.529  0.00  0.00    +0.000 HD
BRANCH  18  26
ATOM     22  C   UNL     1       7.026   3.084  11.487  0.00  0.00    +0.000 C 
ATOM     23  C   UNL     1       6.654   3.813  12.744  0.00  0.00    +0.000 A 
ATOM     24  C   UNL     1       5.423   3.580  13.365  0.00  0.00    +0.000 A 
ATOM     25  C   UNL     1       5.069   4.288  14.517  0.00  0.00    +0.000 A 
ATOM     26  C   UNL     1       5.939   5.243  15.057  0.00  0.00    +0.000 A 
ATOM     27  C   UNL     1       7.181   5.450  14.463  0.00  0.00    +0.000 A 
ATOM     28  C   UNL     1       7.536   4.743  13.308  0.00  0.00    +0.000 A 
ENDBRANCH  18  26
ENDBRANCH  17  20
ENDBRANCH  16  17
ENDBRANCH   1  16
TORSDOF 11
ENDMDL
MODEL 4
REMARK VINA RESULT:      -6.7      1.292      2.876
REMARK  Name = 
REMARK  12 active torsions:
REMARK  status: ('A' for Active; 'I' for Inactive)
REMARK    1  A    between atoms: C_1  and  C_2
REMARK    2  A    between atoms: C_5  and  C_6
REMARK    3  A    between atoms: N_8  and  C_9
REMARK    4  A    between atoms: C_9  and  C_10
REMARK    5  A    between atoms: C_10  and  C_11
REMARK    6  A    between atoms: C_11  and  O_12
REMARK    7  A    between atoms: C_11  and  P_13
REMARK    8  A    between atoms: C_11  and  P_17
REMARK    9  A    between atoms: P_13  and  O_15
REMARK   10  A    between atoms: P_13  and  O_16
REMARK   11  A    between atoms: P_17  and  O_19
REMARK   12  A    between atoms: P_17  and  O_20
REMARK                            x       y       z     vdW  Elec       q    Type
REMARK                         _______ _______ _______ _____ _____    ______ ____
ROOT
ATOM      1  C   UNL     1       2.922   3.848  19.243  0.00  0.00    +0.000 C 
ENDROOT
BRANCH   1   2
ATOM      2  O   UNL     1       2.128   4.282  18.084  0.00  0.00    +0.000 OA
ATOM      3  H   UNL     1       2.803   4.385  17.373  0.00  0.00    +0.000 HD
ENDBRANCH   1   2
BRANCH   1   4
ATOM      4  P   UNL     1       3.634   2.191  18.935  0.00  0.00    +0.000 P 
ATOM      5  O   UNL     1       3.887   2.488  17.456  0.00  0.00    +0.000 OA
BRANCH   4   6
ATOM      6  O   UNL     1       5.058   2.611  19.647  0.00  0.00    +0.000 OA
ATOM      7  H   UNL     1       5.486   1.854  20.091  0.00  0.00    +0.000 HD
ENDBRANCH   4   6
BRANCH   4   8
ATOM      8  O   UNL     1       4.308   0.624  18.643  0.00  0.00    +0.000 OA
ATOM      9  H   UNL     1       4.315   0.215  19.538  0.00  0.00    +0.000 HD
ENDBRANCH   4   8
ENDBRANCH   1   4
BRANCH   1  10
ATOM     10  P   UNL     1       1.816   3.910  20.725  0.00  0.00    +0.000 P 
ATOM     11  O   UNL     1       2.383   3.331  21.982  0.00  0.00    +0.000 OA
BRANCH  10  12
ATOM     12  O   UNL     1       1.409   5.467  20.820  0.00  0.00    +0.000 OA
ATOM     13  H   UNL     1       0.635   5.585  21.410  0.00  0.00    +0.000 HD
ENDBRANCH  10  12
BRANCH  10  14
ATOM     14  O   UNL     1       0.386   3.291  20.383  0.00  0.00    +0.000 OA
ATOM     15  H   UNL     1      -0.216   3.353  21.146  0.00  0.00    +0.000 HD
ENDBRANCH  10  14
ENDBRANCH   1  10
BRANCH   1  16
ATOM     16  C   UNL     1       4.053   4.893  19.450  0.00  0.00    +0.000 C 
BRANCH  16  17
ATOM     17  C   UNL     1       4.258   5.886  18.304  0.00  0.00    +0.000 C 
BRANCH  17  20
ATOM     18  C   UNL     1       5.562   5.937  16.220  0.00  0.00    +0.000 C 
ATOM     19  O   UNL     1       5.960   7.076  16.422  0.00  0.00    +0.000 OA
ATOM     20  N   UNL     1       4.749   5.250  17.099  0.00  0.00    +0.000 N 
ATOM     21  H   UNL     1       4.415   4.324  16.882  0.00  0.00    +0.000 HD
BRANCH  18  26
ATOM     22  C   UNL     1       6.992   3.074  11.383  0.00  0.00    +0.000 C 
ATOM     23  C   UNL     1       6.655   3.790  12.657  0.00  0.00    +0.000 A 
ATOM     24  C   UNL     1       5.442   3.551  13.309  0.00  0.00    +0.000 A 
ATOM     25  C   UNL     1       5.120   4.248  14.478  0.00  0.00    +0.000 A 
ATOM     26  C   UNL     1       6.005   5.197  15.003  0.00  0.00    +0.000 A 
ATOM     27  C   UNL     1       7.231   5.411  14.377  0.00  0.00    +0.000 A 
ATOM     28  C   UNL     1       7.553   4.714  13.206  0.00  0.00    +0.000 A 
ENDBRANCH  18  26
ENDBRANCH  17  20
ENDBRANCH  16  17
ENDBRANCH   1  16
TORSDOF 11
ENDMDL
MODEL 5
REMARK VINA RESULT:      -6.7      3.995      7.050
REMARK  Name = 
REMARK  12 active torsions:
REMARK  status: ('A' for Active; 'I' for Inactive)
REMARK    1  A    between atoms: C_1  and  C_2
REMARK    2  A    between atoms: C_5  and  C_6
REMARK    3  A    between atoms: N_8  and  C_9
REMARK    4  A    between atoms: C_9  and  C_10
REMARK    5  A    between atoms: C_10  and  C_11
REMARK    6  A    between atoms: C_11  and  O_12
REMARK    7  A    between atoms: C_11  and  P_13
REMARK    8  A    between atoms: C_11  and  P_17
REMARK    9  A    between atoms: P_13  and  O_15
REMARK   10  A    between atoms: P_13  and  O_16
REMARK   11  A    between atoms: P_17  and  O_19
REMARK   12  A    between atoms: P_17  and  O_20
REMARK                            x       y       z     vdW  Elec       q    Type
REMARK                         _______ _______ _______ _____ _____    ______ ____
ROOT
ATOM      1  C   UNL     1       3.227   4.495  18.982  0.00  0.00    +0.000 C 
ENDROOT
BRANCH   1   2
ATOM      2  O   UNL     1       2.992   5.165  20.269  0.00  0.00    +0.000 OA
ATOM      3  H   UNL     1       3.897   5.430  20.555  0.00  0.00    +0.000 HD
ENDBRANCH   1   2
BRANCH   1   4
ATOM      4  P   UNL     1       2.227   2.968  18.874  0.00  0.00    +0.000 P 
ATOM      5  O   UNL     1       3.242   2.272  17.966  0.00  0.00    +0.000 OA
BRANCH   4   6
ATOM      6  O   UNL     1       2.689   2.494  20.381  0.00  0.00    +0.000 OA
ATOM      7  H   UNL     1       3.659   2.493  20.487  0.00  0.00    +0.000 HD
ENDBRANCH   4   6
BRANCH   4   8
ATOM      8  O   UNL     1       1.280   1.523  18.772  0.00  0.00    +0.000 OA
ATOM      9  H   UNL     1       1.097   1.310  19.715  0.00  0.00    +0.000 HD
ENDBRANCH   4   8
ENDBRANCH   1   4
BRANCH   1  10
ATOM     10  P   UNL     1       5.048   4.195  18.839  0.00  0.00    +0.000 P 
ATOM     11  O   UNL     1       5.928   5.308  19.312  0.00  0.00    +0.000 OA
BRANCH  10  12
ATOM     12  O   UNL     1       5.254   2.794  19.608  0.00  0.00    +0.000 OA
ATOM     13  H   UNL     1       5.397   2.067  18.966  0.00  0.00    +0.000 HD
ENDBRANCH  10  12
BRANCH  10  14
ATOM     14  O   UNL     1       5.425   3.734  17.359  0.00  0.00    +0.000 OA
ATOM     15  H   UNL     1       4.634   3.689  16.792  0.00  0.00    +0.000 HD
ENDBRANCH  10  14
ENDBRANCH   1  10
BRANCH   1  16
ATOM     16  C   UNL     1       2.820   5.489  17.858  0.00  0.00    +0.000 C 
BRANCH  16  17
ATOM     17  C   UNL     1       3.238   6.945  18.076  0.00  0.00    +0.000 C 
BRANCH  17  20
ATOM     18  C   UNL     1       1.773   8.820  18.695  0.00  0.00    +0.000 C 
ATOM     19  O   UNL     1       1.854   9.333  17.587  0.00  0.00    +0.000 OA
ATOM     20  N   UNL     1       2.387   7.630  19.028  0.00  0.00    +0.000 N 
ATOM     21  H   UNL     1       2.324   7.256  19.962  0.00  0.00    +0.000 HD
BRANCH  18  26
ATOM     22  C   UNL     1      -1.289  11.219  22.998  0.00  0.00    +0.000 C 
ATOM     23  C   UNL     1      -0.537  10.585  21.865  0.00  0.00    +0.000 A 
ATOM     24  C   UNL     1       0.228   9.434  22.074  0.00  0.00    +0.000 A 
ATOM     25  C   UNL     1       0.953   8.869  21.021  0.00  0.00    +0.000 A 
ATOM     26  C   UNL     1       0.927   9.452  19.749  0.00  0.00    +0.000 A 
ATOM     27  C   UNL     1       0.136  10.577  19.528  0.00  0.00    +0.000 A 
ATOM     28  C   UNL     1      -0.590  11.145  20.583  0.00  0.00    +0.000 A 
ENDBRANCH  18  26
ENDBRANCH  17  20
ENDBRANCH  16  17
ENDBRANCH   1  16
TORSDOF 11
ENDMDL
MODEL 6
REMARK VINA RESULT:      -6.6      4.115      6.966
REMARK  Name = 
REMARK  12 active torsions:
REMARK  status: ('A' for Active; 'I' for Inactive)
REMARK    1  A    between atoms: C_1  and  C_2
REMARK    2  A    between atoms: C_5  and  C_6
REMARK    3  A    between atoms: N_8  and  C_9
REMARK    4  A    between atoms: C_9  and  C_10
REMARK    5  A    between atoms: C_10  and  C_11
REMARK    6  A    between atoms: C_11  and  O_12
REMARK    7  A    between atoms: C_11  and  P_13
REMARK    8  A    between atoms: C_11  and  P_17
REMARK    9  A    between atoms: P_13  and  O_15
REMARK   10  A    between atoms: P_13  and  O_16
REMARK   11  A    between atoms: P_17  and  O_19
REMARK   12  A    between atoms: P_17  and  O_20
REMARK                            x       y       z     vdW  Elec       q    Type
REMARK                         _______ _______ _______ _____ _____    ______ ____
ROOT
ATOM      1  C   UNL     1       3.234   4.700  18.991  0.00  0.00    +0.000 C 
ENDROOT
BRANCH   1   2
ATOM      2  O   UNL     1       3.943   5.537  19.970  0.00  0.00    +0.000 OA
ATOM      3  H   UNL     1       4.693   5.908  19.449  0.00  0.00    +0.000 HD
ENDBRANCH   1   2
BRANCH   1   4
ATOM      4  P   UNL     1       1.880   3.783  19.811  0.00  0.00    +0.000 P 
ATOM      5  O   UNL     1       1.434   3.120  18.507  0.00  0.00    +0.000 OA
BRANCH   4   6
ATOM      6  O   UNL     1       2.932   2.687  20.445  0.00  0.00    +0.000 OA
ATOM      7  H   UNL     1       3.600   3.106  21.020  0.00  0.00    +0.000 HD
ENDBRANCH   4   6
BRANCH   4   8
ATOM      8  O   UNL     1       0.599   2.916  20.586  0.00  0.00    +0.000 OA
ATOM      9  H   UNL     1      -0.042   3.626  20.818  0.00  0.00    +0.000 HD
ENDBRANCH   4   8
ENDBRANCH   1   4
BRANCH   1  10
ATOM     10  P   UNL     1       4.490   3.600  18.191  0.00  0.00    +0.000 P 
ATOM     11  O   UNL     1       5.112   4.130  16.940  0.00  0.00    +0.000 OA
BRANCH  10  12
ATOM     12  O   UNL     1       5.527   3.290  19.386  0.00  0.00    +0.000 OA
ATOM     13  H   UNL     1       5.143   2.643  20.014  0.00  0.00    +0.000 HD
ENDBRANCH  10  12
BRANCH  10  14
ATOM     14  O   UNL     1       3.896   2.135  17.980  0.00  0.00    +0.000 OA
ATOM     15  H   UNL     1       4.030   1.829  17.064  0.00  0.00    +0.000 HD
ENDBRANCH  10  14
ENDBRANCH   1  10
BRANCH   1  16
ATOM     16  C   UNL     1       2.664   5.644  17.897  0.00  0.00    +0.000 C 
BRANCH  16  17
ATOM     17  C   UNL     1       3.056   7.118  18.020  0.00  0.00    +0.000 C 
BRANCH  17  20
ATOM     18  C   UNL     1       1.670   9.046  18.657  0.00  0.00    +0.000 C 
ATOM     19  O   UNL     1       1.765   9.561  17.551  0.00  0.00    +0.000 OA
ATOM     20  N   UNL     1       2.239   7.831  18.981  0.00  0.00    +0.000 N 
ATOM     21  H   UNL     1       2.166   7.456  19.913  0.00  0.00    +0.000 HD
BRANCH  18  26
ATOM     22  C   UNL     1      -1.316  11.472  22.998  0.00  0.00    +0.000 C 
ATOM     23  C   UNL     1      -0.583  10.843  21.850  0.00  0.00    +0.000 A 
ATOM     24  C   UNL     1      -0.129   9.524  21.930  0.00  0.00    +0.000 A 
ATOM     25  C   UNL     1       0.584   8.958  20.869  0.00  0.00    +0.000 A 
ATOM     26  C   UNL     1       0.856   9.706  19.719  0.00  0.00    +0.000 A 
ATOM     27  C   UNL     1       0.373  11.009  19.620  0.00  0.00    +0.000 A 
ATOM     28  C   UNL     1      -0.339  11.578  20.682  0.00  0.00    +0.000 A 
ENDBRANCH  18  26
ENDBRANCH  17  20
ENDBRANCH  16  17
ENDBRANCH   1  16
TORSDOF 11
ENDMDL
MODEL 7
REMARK VINA RESULT:      -6.5      4.036      6.905
REMARK  Name = 
REMARK  12 active torsions:
REMARK  status: ('A' for Active; 'I' for Inactive)
REMARK    1  A    between atoms: C_1  and  C_2
REMARK    2  A    between atoms: C_5  and  C_6
REMARK    3  A    between atoms: N_8  and  C_9
REMARK    4  A    between atoms: C_9  and  C_10
REMARK    5  A    between atoms: C_10  and  C_11
REMARK    6  A    between atoms: C_11  and  O_12
REMARK    7  A    between atoms: C_11  and  P_13
REMARK    8  A    between atoms: C_11  and  P_17
REMARK    9  A    between atoms: P_13  and  O_15
REMARK   10  A    between atoms: P_13  and  O_16
REMARK   11  A    between atoms: P_17  and  O_19
REMARK   12  A    between atoms: P_17  and  O_20
REMARK                            x       y       z     vdW  Elec       q    Type
REMARK                         _______ _______ _______ _____ _____    ______ ____
ROOT
ATOM      1  C   UNL     1       3.452   4.792  19.202  0.00  0.00    +0.000 C 
ENDROOT
BRANCH   1   2
ATOM      2  O   UNL     1       3.974   5.868  20.057  0.00  0.00    +0.000 OA
ATOM      3  H   UNL     1       3.449   5.773  20.886  0.00  0.00    +0.000 HD
ENDBRANCH   1   2
BRANCH   1   4
ATOM      4  P   UNL     1       2.108   3.898  20.064  0.00  0.00    +0.000 P 
ATOM      5  O   UNL     1       1.581   5.170  20.730  0.00  0.00    +0.000 OA
BRANCH   4   6
ATOM      6  O   UNL     1       1.214   3.802  18.685  0.00  0.00    +0.000 OA
ATOM      7  H   UNL     1       1.596   3.178  18.039  0.00  0.00    +0.000 HD
ENDBRANCH   4   6
BRANCH   4   8
ATOM      8  O   UNL     1       0.838   3.052  20.879  0.00  0.00    +0.000 OA
ATOM      9  H   UNL     1       1.120   3.082  21.821  0.00  0.00    +0.000 HD
ENDBRANCH   4   8
ENDBRANCH   1   4
BRANCH   1  10
ATOM     10  P   UNL     1       4.880   3.710  18.741  0.00  0.00    +0.000 P 
ATOM     11  O   UNL     1       6.230   4.346  18.826  0.00  0.00    +0.000 OA
BRANCH  10  12
ATOM     12  O   UNL     1       4.681   2.413  19.677  0.00  0.00    +0.000 OA
ATOM     13  H   UNL     1       5.484   1.852  19.662  0.00  0.00    +0.000 HD
ENDBRANCH  10  12
BRANCH  10  14
ATOM     14  O   UNL     1       4.635   3.037  17.315  0.00  0.00    +0.000 OA
ATOM     15  H   UNL     1       4.314   2.122  17.408  0.00  0.00    +0.000 HD
ENDBRANCH  10  14
ENDBRANCH   1  10
BRANCH   1  16
ATOM     16  C   UNL     1       2.915   5.451  17.901  0.00  0.00    +0.000 C 
BRANCH  16  17
ATOM     17  C   UNL     1       3.026   6.975  17.833  0.00  0.00    +0.000 C 
BRANCH  17  20
ATOM     18  C   UNL     1       1.712   8.907  18.598  0.00  0.00    +0.000 C 
ATOM     19  O   UNL     1       1.885   9.520  17.554  0.00  0.00    +0.000 OA
ATOM     20  N   UNL     1       2.202   7.637  18.824  0.00  0.00    +0.000 N 
ATOM     21  H   UNL     1       2.067   7.178  19.711  0.00  0.00    +0.000 HD
BRANCH  18  26
ATOM     22  C   UNL     1      -1.277  11.176  23.022  0.00  0.00    +0.000 C 
ATOM     23  C   UNL     1      -0.544  10.574  21.859  0.00  0.00    +0.000 A 
ATOM     24  C   UNL     1       0.249   9.436  22.028  0.00  0.00    +0.000 A 
ATOM     25  C   UNL     1       0.956   8.903  20.946  0.00  0.00    +0.000 A 
ATOM     26  C   UNL     1       0.884   9.505  19.685  0.00  0.00    +0.000 A 
ATOM     27  C   UNL     1       0.064  10.617  19.505  0.00  0.00    +0.000 A 
ATOM     28  C   UNL     1      -0.643  11.154  20.587  0.00  0.00    +0.000 A 
ENDBRANCH  18  26
ENDBRANCH  17  20
ENDBRANCH  16  17
ENDBRANCH   1  16
TORSDOF 11
ENDMDL
MODEL 8
REMARK VINA RESULT:      -6.5      3.522      6.766
REMARK  Name = 
REMARK  12 active torsions:
REMARK  status: ('A' for Active; 'I' for Inactive)
REMARK    1  A    between atoms: C_1  and  C_2
REMARK    2  A    between atoms: C_5  and  C_6
REMARK    3  A    between atoms: N_8  and  C_9
REMARK    4  A    between atoms: C_9  and  C_10
REMARK    5  A    between atoms: C_10  and  C_11
REMARK    6  A    between atoms: C_11  and  O_12
REMARK    7  A    between atoms: C_11  and  P_13
REMARK    8  A    between atoms: C_11  and  P_17
REMARK    9  A    between atoms: P_13  and  O_15
REMARK   10  A    between atoms: P_13  and  O_16
REMARK   11  A    between atoms: P_17  and  O_19
REMARK   12  A    between atoms: P_17  and  O_20
REMARK                            x       y       z     vdW  Elec       q    Type
REMARK                         _______ _______ _______ _____ _____    ______ ____
ROOT
ATOM      1  C   UNL     1       2.760   3.187  19.166  0.00  0.00    +0.000 C 
ENDROOT
BRANCH   1   2
ATOM      2  O   UNL     1       2.468   1.787  18.827  0.00  0.00    +0.000 OA
ATOM      3  H   UNL     1       1.569   1.645  19.204  0.00  0.00    +0.000 HD
ENDBRANCH   1   2
BRANCH   1   4
ATOM      4  P   UNL     1       4.549   3.521  18.976  0.00  0.00    +0.000 P 
ATOM      5  O   UNL     1       4.936   2.459  20.007  0.00  0.00    +0.000 OA
BRANCH   4   6
ATOM      6  O   UNL     1       4.607   2.697  17.553  0.00  0.00    +0.000 OA
ATOM      7  H   UNL     1       4.751   1.740  17.685  0.00  0.00    +0.000 HD
ENDBRANCH   4   6
BRANCH   4   8
ATOM      8  O   UNL     1       6.241   3.837  18.797  0.00  0.00    +0.000 OA
ATOM      9  H   UNL     1       6.571   3.028  18.345  0.00  0.00    +0.000 HD
ENDBRANCH   4   8
ENDBRANCH   1   4
BRANCH   1  10
ATOM     10  P   UNL     1       2.133   3.483  20.881  0.00  0.00    +0.000 P 
ATOM     11  O   UNL     1       2.230   4.892  21.373  0.00  0.00    +0.000 OA
BRANCH  10  12
ATOM     12  O   UNL     1       0.638   2.881  20.840  0.00  0.00    +0.000 OA
ATOM     13  H   UNL     1       0.660   1.921  20.646  0.00  0.00    +0.000 HD
ENDBRANCH  10  12
BRANCH  10  14
ATOM     14  O   UNL     1       2.796   2.455  21.905  0.00  0.00    +0.000 OA
ATOM     15  H   UNL     1       2.267   2.377  22.719  0.00  0.00    +0.000 HD
ENDBRANCH  10  14
ENDBRANCH   1  10
BRANCH   1  16
ATOM     16  C   UNL     1       1.937   4.082  18.198  0.00  0.00    +0.000 C 
BRANCH  16  17
ATOM     17  C   UNL     1       2.476   5.498  17.984  0.00  0.00    +0.000 C 
BRANCH  17  20
ATOM     18  C   UNL     1       2.153   7.813  18.746  0.00  0.00    +0.000 C 
ATOM     19  O   UNL     1       2.995   8.253  17.974  0.00  0.00    +0.000 OA
ATOM     20  N   UNL     1       1.799   6.481  18.806  0.00  0.00    +0.000 N 
ATOM     21  H   UNL     1       1.124   6.152  19.478  0.00  0.00    +0.000 HD
BRANCH  18  26
ATOM     22  C   UNL     1      -0.567  11.348  22.454  0.00  0.00    +0.000 C 
ATOM     23  C   UNL     1       0.096  10.427  21.473  0.00  0.00    +0.000 A 
ATOM     24  C   UNL     1       0.561   9.172  21.876  0.00  0.00    +0.000 A 
ATOM     25  C   UNL     1       1.208   8.334  20.964  0.00  0.00    +0.000 A 
ATOM     26  C   UNL     1       1.404   8.743  19.640  0.00  0.00    +0.000 A 
ATOM     27  C   UNL     1       0.909   9.978  19.226  0.00  0.00    +0.000 A 
ATOM     28  C   UNL     1       0.262  10.819  20.139  0.00  0.00    +0.000 A 
ENDBRANCH  18  26
ENDBRANCH  17  20
ENDBRANCH  16  17
ENDBRANCH   1  16
TORSDOF 11
ENDMDL
MODEL 9
REMARK VINA RESULT:      -6.5      3.537      6.853
REMARK  Name = 
REMARK  12 active torsions:
REMARK  status: ('A' for Active; 'I' for Inactive)
REMARK    1  A    between atoms: C_1  and  C_2
REMARK    2  A    between atoms: C_5  and  C_6
REMARK    3  A    between atoms: N_8  and  C_9
REMARK    4  A    between atoms: C_9  and  C_10
REMARK    5  A    between atoms: C_10  and  C_11
REMARK    6  A    between atoms: C_11  and  O_12
REMARK    7  A    between atoms: C_11  and  P_13
REMARK    8  A    between atoms: C_11  and  P_17
REMARK    9  A    between atoms: P_13  and  O_15
REMARK   10  A    between atoms: P_13  and  O_16
REMARK   11  A    between atoms: P_17  and  O_19
REMARK   12  A    between atoms: P_17  and  O_20
REMARK                            x       y       z     vdW  Elec       q    Type
REMARK                         _______ _______ _______ _____ _____    ______ ____
ROOT
ATOM      1  C   UNL     1       5.876   5.460  17.478  0.00  0.00    +0.000 C 
ENDROOT
BRANCH   1   2
ATOM      2  O   UNL     1       5.369   6.809  17.184  0.00  0.00    +0.000 OA
ATOM      3  H   UNL     1       5.451   7.274  18.048  0.00  0.00    +0.000 HD
ENDBRANCH   1   2
BRANCH   1   4
ATOM      4  P   UNL     1       7.259   5.553  18.672  0.00  0.00    +0.000 P 
ATOM      5  O   UNL     1       6.390   5.076  19.836  0.00  0.00    +0.000 OA
BRANCH   4   6
ATOM      6  O   UNL     1       7.917   4.157  18.102  0.00  0.00    +0.000 OA
ATOM      7  H   UNL     1       8.824   4.286  17.766  0.00  0.00    +0.000 HD
ENDBRANCH   4   6
BRANCH   4   8
ATOM      8  O   UNL     1       8.567   5.642  19.801  0.00  0.00    +0.000 OA
ATOM      9  H   UNL     1       8.108   5.754  20.664  0.00  0.00    +0.000 HD
ENDBRANCH   4   8
ENDBRANCH   1   4
BRANCH   1  10
ATOM     10  P   UNL     1       6.345   4.682  15.866  0.00  0.00    +0.000 P 
ATOM     11  O   UNL     1       7.747   4.931  15.409  0.00  0.00    +0.000 OA
BRANCH  10  12
ATOM     12  O   UNL     1       5.968   3.129  16.079  0.00  0.00    +0.000 OA
ATOM     13  H   UNL     1       5.048   2.956  15.787  0.00  0.00    +0.000 HD
ENDBRANCH  10  12
BRANCH  10  14
ATOM     14  O   UNL     1       5.282   5.052  14.735  0.00  0.00    +0.000 OA
ATOM     15  H   UNL     1       4.483   5.453  15.121  0.00  0.00    +0.000 HD
ENDBRANCH  10  14
ENDBRANCH   1  10
BRANCH   1  16
ATOM     16  C   UNL     1       4.699   4.640  18.076  0.00  0.00    +0.000 C 
BRANCH  16  17
ATOM     17  C   UNL     1       3.312   4.966  17.519  0.00  0.00    +0.000 C 
BRANCH  17  20
ATOM     18  C   UNL     1       2.380   6.349  19.325  0.00  0.00    +0.000 C 
ATOM     19  O   UNL     1       2.473   5.449  20.149  0.00  0.00    +0.000 OA
ATOM     20  N   UNL     1       2.795   6.225  18.015  0.00  0.00    +0.000 N 
ATOM     21  H   UNL     1       2.672   6.979  17.357  0.00  0.00    +0.000 HD
BRANCH  18  26
ATOM     22  C   UNL     1       0.184  11.553  20.645  0.00  0.00    +0.000 C 
ATOM     23  C   UNL     1       0.790  10.217  20.329  0.00  0.00    +0.000 A 
ATOM     24  C   UNL     1       1.229   9.922  19.035  0.00  0.00    +0.000 A 
ATOM     25  C   UNL     1       1.761   8.664  18.741  0.00  0.00    +0.000 A 
ATOM     26  C   UNL     1       1.854   7.683  19.735  0.00  0.00    +0.000 A 
ATOM     27  C   UNL     1       1.452   7.986  21.034  0.00  0.00    +0.000 A 
ATOM     28  C   UNL     1       0.918   9.246  21.330  0.00  0.00    +0.000 A 
ENDBRANCH  18  26
ENDBRANCH  17  20
ENDBRANCH  16  17
ENDBRANCH   1  16
TORSDOF 11
ENDMDL
