MODEL 1
REMARK VINA RESULT:      -7.8      0.000      0.000
REMARK  Name = 
REMARK  7 active torsions:
REMARK  status: ('A' for Active; 'I' for Inactive)
REMARK    1  A    between atoms: C_1  and  O_2
REMARK    2  A    between atoms: O_2  and  C_3
REMARK    3  A    between atoms: C_3  and  C_4
REMARK    4  A    between atoms: C_4  and  C_5
REMARK    5  A    between atoms: C_4  and  N_6
REMARK    6  A    between atoms: C_7  and  C_9
REMARK    7  A    between atoms: C_12  and  N_13
REMARK                            x       y       z     vdW  Elec       q    Type
REMARK                         _______ _______ _______ _____ _____    ______ ____
ROOT
ATOM      1  C   UNL     1       5.137   5.218  16.272  0.00  0.00    +0.000 A 
ATOM      2  C   UNL     1       5.376   6.561  16.557  0.00  0.00    +0.000 A 
ATOM      3  C   UNL     1       4.531   7.251  17.431  0.00  0.00    +0.000 A 
ATOM      4  C   UNL     1       3.408   6.643  18.015  0.00  0.00    +0.000 A 
ATOM      5  C   UNL     1       3.185   5.288  17.747  0.00  0.00    +0.000 A 
ATOM      6  C   UNL     1       4.033   4.585  16.867  0.00  0.00    +0.000 A 
ENDROOT
BRANCH   4   7
ATOM      7  N   UNL     1       2.506   7.362  18.854  0.00  0.00    +0.000 N 
ATOM      8  C   UNL     1       1.877   8.509  18.447  0.00  0.00    +0.000 C 
ATOM      9  O   UNL     1       1.913   8.930  17.284  0.00  0.00    +0.000 OA
ATOM     10  N   UNL     1       1.206   9.255  19.377  0.00  0.00    +0.000 N 
ATOM     11  C   UNL     1       0.823  10.597  18.950  0.00  0.00    +0.000 C 
ATOM     12  C   UNL     1       0.348  11.247  20.199  0.00  0.00    +0.000 A 
ATOM     13  C   UNL     1       0.093  12.593  20.411  0.00  0.00    +0.000 A 
ATOM     14  C   UNL     1      -0.473  12.960  21.627  0.00  0.00    +0.000 A 
ATOM     15  C   UNL     1      -0.814  11.974  22.561  0.00  0.00    +0.000 A 
ATOM     16  F   UNL     1      -1.437  12.344  23.688  0.00  0.00    +0.000 F 
ATOM     17  C   UNL     1      -0.507  10.623  22.359  0.00  0.00    +0.000 A 
ATOM     18  C   UNL     1       0.141  10.276  21.186  0.00  0.00    +0.000 A 
ATOM     19  C   UNL     1       0.762   8.973  20.749  0.00  0.00    +0.000 C 
ATOM     20  H   UNL     1       2.163   6.905  19.685  0.00  0.00    +0.000 HD
ENDBRANCH   4   7
BRANCH   1  22
ATOM     21  N   UNL     1       5.578   4.365  14.032  0.00  0.00    +0.000 N 
ATOM     22  C   UNL     1       6.024   4.463  15.336  0.00  0.00    +0.000 C 
ATOM     23  O   UNL     1       7.085   3.997  15.731  0.00  0.00    +0.000 OA
ATOM     24  H   UNL     1       4.728   4.841  13.763  0.00  0.00    +0.000 HD
BRANCH  21  25
ATOM     25  C   UNL     1       6.325   3.675  12.978  0.00  0.00    +0.000 C 
ATOM     26  C   UNL     1       7.384   4.623  12.407  0.00  0.00    +0.000 C 
BRANCH  25  27
ATOM     27  C   UNL     1       5.400   3.152  11.861  0.00  0.00    +0.000 C 
BRANCH  27  29
ATOM     28  C   UNL     1       6.695   1.415  10.910  0.00  0.00    +0.000 C 
ATOM     29  O   UNL     1       5.573   1.739  11.714  0.00  0.00    +0.000 OA
ENDBRANCH  27  29
ENDBRANCH  25  27
ENDBRANCH  21  25
ENDBRANCH   1  22
TORSDOF 5
ENDMDL
MODEL 2
REMARK VINA RESULT:      -7.6      0.429      1.017
REMARK  Name = 
REMARK  7 active torsions:
REMARK  status: ('A' for Active; 'I' for Inactive)
REMARK    1  A    between atoms: C_1  and  O_2
REMARK    2  A    between atoms: O_2  and  C_3
REMARK    3  A    between atoms: C_3  and  C_4
REMARK    4  A    between atoms: C_4  and  C_5
REMARK    5  A    between atoms: C_4  and  N_6
REMARK    6  A    between atoms: C_7  and  C_9
REMARK    7  A    between atoms: C_12  and  N_13
REMARK                            x       y       z     vdW  Elec       q    Type
REMARK                         _______ _______ _______ _____ _____    ______ ____
ROOT
ATOM      1  C   UNL     1       5.234   5.425  16.382  0.00  0.00    +0.000 A 
ATOM      2  C   UNL     1       4.209   4.715  17.004  0.00  0.00    +0.000 A 
ATOM      3  C   UNL     1       3.271   5.388  17.793  0.00  0.00    +0.000 A 
ATOM      4  C   UNL     1       3.344   6.771  18.016  0.00  0.00    +0.000 A 
ATOM      5  C   UNL     1       4.359   7.486  17.371  0.00  0.00    +0.000 A 
ATOM      6  C   UNL     1       5.309   6.814  16.573  0.00  0.00    +0.000 A 
ENDROOT
BRANCH   4   7
ATOM      7  N   UNL     1       2.428   7.451  18.873  0.00  0.00    +0.000 N 
ATOM      8  C   UNL     1       1.791   8.607  18.501  0.00  0.00    +0.000 C 
ATOM      9  O   UNL     1       1.832   9.068  17.354  0.00  0.00    +0.000 OA
ATOM     10  N   UNL     1       1.106   9.313  19.451  0.00  0.00    +0.000 N 
ATOM     11  C   UNL     1       0.713  10.665  19.068  0.00  0.00    +0.000 C 
ATOM     12  C   UNL     1       0.222  11.267  20.335  0.00  0.00    +0.000 A 
ATOM     13  C   UNL     1      -0.047  12.602  20.592  0.00  0.00    +0.000 A 
ATOM     14  C   UNL     1      -0.627  12.921  21.815  0.00  0.00    +0.000 A 
ATOM     15  C   UNL     1      -0.965  11.901  22.711  0.00  0.00    +0.000 A 
ATOM     16  F   UNL     1      -1.601  12.224  23.846  0.00  0.00    +0.000 F 
ATOM     17  C   UNL     1      -0.643  10.560  22.465  0.00  0.00    +0.000 A 
ATOM     18  C   UNL     1       0.017  10.260  21.286  0.00  0.00    +0.000 A 
ATOM     19  C   UNL     1       0.654   8.980  20.809  0.00  0.00    +0.000 C 
ATOM     20  H   UNL     1       2.083   6.963  19.685  0.00  0.00    +0.000 HD
ENDBRANCH   4   7
BRANCH   1  22
ATOM     21  N   UNL     1       5.925   4.572  14.206  0.00  0.00    +0.000 N 
ATOM     22  C   UNL     1       6.250   4.725  15.540  0.00  0.00    +0.000 C 
ATOM     23  O   UNL     1       7.305   4.346  16.033  0.00  0.00    +0.000 OA
ATOM     24  H   UNL     1       5.069   4.978  13.856  0.00  0.00    +0.000 HD
BRANCH  21  25
ATOM     25  C   UNL     1       6.809   3.925  13.234  0.00  0.00    +0.000 C 
ATOM     26  C   UNL     1       7.686   4.986  12.563  0.00  0.00    +0.000 C 
BRANCH  25  27
ATOM     27  C   UNL     1       6.020   3.122  12.180  0.00  0.00    +0.000 C 
BRANCH  27  29
ATOM     28  C   UNL     1       6.324   1.059  11.061  0.00  0.00    +0.000 C 
ATOM     29  O   UNL     1       6.916   2.293  11.434  0.00  0.00    +0.000 OA
ENDBRANCH  27  29
ENDBRANCH  25  27
ENDBRANCH  21  25
ENDBRANCH   1  22
TORSDOF 5
ENDMDL
MODEL 3
REMARK VINA RESULT:      -7.6      3.526      5.208
REMARK  Name = 
REMARK  7 active torsions:
REMARK  status: ('A' for Active; 'I' for Inactive)
REMARK    1  A    between atoms: C_1  and  O_2
REMARK    2  A    between atoms: O_2  and  C_3
REMARK    3  A    between atoms: C_3  and  C_4
REMARK    4  A    between atoms: C_4  and  C_5
REMARK    5  A    between atoms: C_4  and  N_6
REMARK    6  A    between atoms: C_7  and  C_9
REMARK    7  A    between atoms: C_12  and  N_13
REMARK                            x       y       z     vdW  Elec       q    Type
REMARK                         _______ _______ _______ _____ _____    ______ ____
ROOT
ATOM      1  C   UNL     1       2.622   7.765  18.440  0.00  0.00    +0.000 A 
ATOM      2  C   UNL     1       2.294   8.878  17.668  0.00  0.00    +0.000 A 
ATOM      3  C   UNL     1       1.407   9.837  18.166  0.00  0.00    +0.000 A 
ATOM      4  C   UNL     1       0.793   9.701  19.421  0.00  0.00    +0.000 A 
ATOM      5  C   UNL     1       1.143   8.596  20.204  0.00  0.00    +0.000 A 
ATOM      6  C   UNL     1       2.038   7.624  19.710  0.00  0.00    +0.000 A 
ENDROOT
BRANCH   4   7
ATOM      7  N   UNL     1      -0.163  10.643  19.904  0.00  0.00    +0.000 N 
ATOM      8  C   UNL     1      -0.314  10.919  21.238  0.00  0.00    +0.000 C 
ATOM      9  O   UNL     1       0.456  10.503  22.112  0.00  0.00    +0.000 OA
ATOM     10  N   UNL     1      -1.393  11.661  21.636  0.00  0.00    +0.000 N 
ATOM     11  C   UNL     1      -1.659  11.664  23.071  0.00  0.00    +0.000 C 
ATOM     12  C   UNL     1      -2.987  12.320  23.186  0.00  0.00    +0.000 A 
ATOM     13  C   UNL     1      -3.816  12.369  24.296  0.00  0.00    +0.000 A 
ATOM     14  C   UNL     1      -4.960  13.156  24.215  0.00  0.00    +0.000 A 
ATOM     15  C   UNL     1      -5.207  13.906  23.058  0.00  0.00    +0.000 A 
ATOM     16  F   UNL     1      -6.269  14.723  23.036  0.00  0.00    +0.000 F 
ATOM     17  C   UNL     1      -4.391  13.811  21.925  0.00  0.00    +0.000 A 
ATOM     18  C   UNL     1      -3.305  12.955  21.980  0.00  0.00    +0.000 A 
ATOM     19  C   UNL     1      -2.356  12.493  20.903  0.00  0.00    +0.000 C 
ATOM     20  H   UNL     1      -0.591  11.270  19.241  0.00  0.00    +0.000 HD
ENDBRANCH   4   7
BRANCH   1  22
ATOM     21  N   UNL     1       3.342   5.437  18.375  0.00  0.00    +0.000 N 
ATOM     22  C   UNL     1       3.563   6.725  17.925  0.00  0.00    +0.000 C 
ATOM     23  O   UNL     1       4.448   7.029  17.135  0.00  0.00    +0.000 OA
ATOM     24  H   UNL     1       2.545   5.250  18.967  0.00  0.00    +0.000 HD
BRANCH  21  25
ATOM     25  C   UNL     1       4.156   4.292  17.963  0.00  0.00    +0.000 C 
ATOM     26  C   UNL     1       3.238   3.176  17.454  0.00  0.00    +0.000 C 
BRANCH  25  27
ATOM     27  C   UNL     1       5.057   3.782  19.105  0.00  0.00    +0.000 C 
BRANCH  27  29
ATOM     28  C   UNL     1       6.937   4.726  18.022  0.00  0.00    +0.000 C 
ATOM     29  O   UNL     1       6.203   4.629  19.232  0.00  0.00    +0.000 OA
ENDBRANCH  27  29
ENDBRANCH  25  27
ENDBRANCH  21  25
ENDBRANCH   1  22
TORSDOF 5
ENDMDL
MODEL 4
REMARK VINA RESULT:      -7.5      3.684      5.530
REMARK  Name = 
REMARK  7 active torsions:
REMARK  status: ('A' for Active; 'I' for Inactive)
REMARK    1  A    between atoms: C_1  and  O_2
REMARK    2  A    between atoms: O_2  and  C_3
REMARK    3  A    between atoms: C_3  and  C_4
REMARK    4  A    between atoms: C_4  and  C_5
REMARK    5  A    between atoms: C_4  and  N_6
REMARK    6  A    between atoms: C_7  and  C_9
REMARK    7  A    between atoms: C_12  and  N_13
REMARK                            x       y       z     vdW  Elec       q    Type
REMARK                         _______ _______ _______ _____ _____    ______ ____
ROOT
ATOM      1  C   UNL     1       2.353   7.676  18.777  0.00  0.00    +0.000 A 
ATOM      2  C   UNL     1       1.884   8.678  17.929  0.00  0.00    +0.000 A 
ATOM      3  C   UNL     1       1.031   9.669  18.423  0.00  0.00    +0.000 A 
ATOM      4  C   UNL     1       0.590   9.673  19.755  0.00  0.00    +0.000 A 
ATOM      5  C   UNL     1       1.081   8.681  20.610  0.00  0.00    +0.000 A 
ATOM      6  C   UNL     1       1.942   7.678  20.120  0.00  0.00    +0.000 A 
ENDROOT
BRANCH   4   7
ATOM      7  N   UNL     1      -0.333  10.645  20.247  0.00  0.00    +0.000 N 
ATOM      8  C   UNL     1       0.069  11.754  20.944  0.00  0.00    +0.000 C 
ATOM      9  O   UNL     1       1.253  12.088  21.071  0.00  0.00    +0.000 OA
ATOM     10  N   UNL     1      -0.881  12.515  21.568  0.00  0.00    +0.000 N 
ATOM     11  C   UNL     1      -0.375  13.490  22.529  0.00  0.00    +0.000 C 
ATOM     12  C   UNL     1      -1.598  13.985  23.214  0.00  0.00    +0.000 A 
ATOM     13  C   UNL     1      -1.673  14.743  24.372  0.00  0.00    +0.000 A 
ATOM     14  C   UNL     1      -2.926  15.206  24.761  0.00  0.00    +0.000 A 
ATOM     15  C   UNL     1      -4.043  14.944  23.960  0.00  0.00    +0.000 A 
ATOM     16  F   UNL     1      -5.224  15.473  24.309  0.00  0.00    +0.000 F 
ATOM     17  C   UNL     1      -3.966  14.135  22.820  0.00  0.00    +0.000 A 
ATOM     18  C   UNL     1      -2.732  13.602  22.488  0.00  0.00    +0.000 A 
ATOM     19  C   UNL     1      -2.345  12.571  21.458  0.00  0.00    +0.000 C 
ATOM     20  H   UNL     1      -1.277  10.624  19.895  0.00  0.00    +0.000 HD
ENDBRANCH   4   7
BRANCH   1  22
ATOM     21  N   UNL     1       3.007   5.329  18.738  0.00  0.00    +0.000 N 
ATOM     22  C   UNL     1       3.260   6.603  18.268  0.00  0.00    +0.000 C 
ATOM     23  O   UNL     1       4.145   6.872  17.467  0.00  0.00    +0.000 OA
ATOM     24  H   UNL     1       2.211   5.172  19.340  0.00  0.00    +0.000 HD
BRANCH  21  25
ATOM     25  C   UNL     1       3.786   4.156  18.335  0.00  0.00    +0.000 C 
ATOM     26  C   UNL     1       3.044   3.416  17.218  0.00  0.00    +0.000 C 
BRANCH  25  27
ATOM     27  C   UNL     1       4.068   3.213  19.522  0.00  0.00    +0.000 C 
BRANCH  27  29
ATOM     28  C   UNL     1       2.565   2.781  21.298  0.00  0.00    +0.000 C 
ATOM     29  O   UNL     1       2.855   2.570  19.926  0.00  0.00    +0.000 OA
ENDBRANCH  27  29
ENDBRANCH  25  27
ENDBRANCH  21  25
ENDBRANCH   1  22
TORSDOF 5
ENDMDL
MODEL 5
REMARK VINA RESULT:      -7.4      2.605      4.285
REMARK  Name = 
REMARK  7 active torsions:
REMARK  status: ('A' for Active; 'I' for Inactive)
REMARK    1  A    between atoms: C_1  and  O_2
REMARK    2  A    between atoms: O_2  and  C_3
REMARK    3  A    between atoms: C_3  and  C_4
REMARK    4  A    between atoms: C_4  and  C_5
REMARK    5  A    between atoms: C_4  and  N_6
REMARK    6  A    between atoms: C_7  and  C_9
REMARK    7  A    between atoms: C_12  and  N_13
REMARK                            x       y       z     vdW  Elec       q    Type
REMARK                         _______ _______ _______ _____ _____    ______ ____
ROOT
ATOM      1  C   UNL     1       2.995   7.065  18.473  0.00  0.00    +0.000 A 
ATOM      2  C   UNL     1       2.749   8.155  17.640  0.00  0.00    +0.000 A 
ATOM      3  C   UNL     1       1.892   9.176  18.059  0.00  0.00    +0.000 A 
ATOM      4  C   UNL     1       1.227   9.128  19.295  0.00  0.00    +0.000 A 
ATOM      5  C   UNL     1       1.495   8.046  20.140  0.00  0.00    +0.000 A 
ATOM      6  C   UNL     1       2.359   7.012  19.725  0.00  0.00    +0.000 A 
ENDROOT
BRANCH   4   7
ATOM      7  N   UNL     1       0.301  10.135  19.698  0.00  0.00    +0.000 N 
ATOM      8  C   UNL     1       0.164  10.529  21.004  0.00  0.00    +0.000 C 
ATOM      9  O   UNL     1       0.926  10.166  21.909  0.00  0.00    +0.000 OA
ATOM     10  N   UNL     1      -0.891  11.332  21.339  0.00  0.00    +0.000 N 
ATOM     11  C   UNL     1      -1.151  11.466  22.769  0.00  0.00    +0.000 C 
ATOM     12  C   UNL     1      -2.459  12.168  22.831  0.00  0.00    +0.000 A 
ATOM     13  C   UNL     1      -3.282  12.335  23.934  0.00  0.00    +0.000 A 
ATOM     14  C   UNL     1      -4.402  13.145  23.788  0.00  0.00    +0.000 A 
ATOM     15  C   UNL     1      -4.633  13.800  22.572  0.00  0.00    +0.000 A 
ATOM     16  F   UNL     1      -5.671  14.644  22.483  0.00  0.00    +0.000 F 
ATOM     17  C   UNL     1      -3.825  13.586  21.449  0.00  0.00    +0.000 A 
ATOM     18  C   UNL     1      -2.764  12.706  21.575  0.00  0.00    +0.000 A 
ATOM     19  C   UNL     1      -1.833  12.127  20.539  0.00  0.00    +0.000 C 
ATOM     20  H   UNL     1      -0.111  10.716  18.984  0.00  0.00    +0.000 HD
ENDBRANCH   4   7
BRANCH   1  22
ATOM     21  N   UNL     1       5.254   6.253  18.047  0.00  0.00    +0.000 N 
ATOM     22  C   UNL     1       3.903   5.959  18.043  0.00  0.00    +0.000 C 
ATOM     23  O   UNL     1       3.443   4.867  17.736  0.00  0.00    +0.000 OA
ATOM     24  H   UNL     1       5.563   7.153  18.385  0.00  0.00    +0.000 HD
BRANCH  21  25
ATOM     25  C   UNL     1       6.286   5.285  17.670  0.00  0.00    +0.000 C 
ATOM     26  C   UNL     1       7.544   5.537  18.507  0.00  0.00    +0.000 C 
BRANCH  25  27
ATOM     27  C   UNL     1       6.610   5.344  16.164  0.00  0.00    +0.000 C 
BRANCH  27  29
ATOM     28  C   UNL     1       6.156   4.020  14.255  0.00  0.00    +0.000 C 
ATOM     29  O   UNL     1       6.574   4.025  15.610  0.00  0.00    +0.000 OA
ENDBRANCH  27  29
ENDBRANCH  25  27
ENDBRANCH  21  25
ENDBRANCH   1  22
TORSDOF 5
ENDMDL
MODEL 6
REMARK VINA RESULT:      -7.4      3.691      5.521
REMARK  Name = 
REMARK  7 active torsions:
REMARK  status: ('A' for Active; 'I' for Inactive)
REMARK    1  A    between atoms: C_1  and  O_2
REMARK    2  A    between atoms: O_2  and  C_3
REMARK    3  A    between atoms: C_3  and  C_4
REMARK    4  A    between atoms: C_4  and  C_5
REMARK    5  A    between atoms: C_4  and  N_6
REMARK    6  A    between atoms: C_7  and  C_9
REMARK    7  A    between atoms: C_12  and  N_13
REMARK                            x       y       z     vdW  Elec       q    Type
REMARK                         _______ _______ _______ _____ _____    ______ ____
ROOT
ATOM      1  C   UNL     1       2.590   7.459  18.750  0.00  0.00    +0.000 A 
ATOM      2  C   UNL     1       2.224   8.469  17.863  0.00  0.00    +0.000 A 
ATOM      3  C   UNL     1       1.352   9.480  18.276  0.00  0.00    +0.000 A 
ATOM      4  C   UNL     1       0.791   9.497  19.563  0.00  0.00    +0.000 A 
ATOM      5  C   UNL     1       1.179   8.496  20.459  0.00  0.00    +0.000 A 
ATOM      6  C   UNL     1       2.059   7.473  20.050  0.00  0.00    +0.000 A 
ENDROOT
BRANCH   4   7
ATOM      7  N   UNL     1      -0.151  10.490  19.967  0.00  0.00    +0.000 N 
ATOM      8  C   UNL     1      -0.314  10.859  21.278  0.00  0.00    +0.000 C 
ATOM      9  O   UNL     1       0.435  10.486  22.189  0.00  0.00    +0.000 OA
ATOM     10  N   UNL     1      -1.381  11.648  21.608  0.00  0.00    +0.000 N 
ATOM     11  C   UNL     1      -1.667  11.754  23.035  0.00  0.00    +0.000 C 
ATOM     12  C   UNL     1      -2.982  12.445  23.086  0.00  0.00    +0.000 A 
ATOM     13  C   UNL     1      -3.824  12.586  24.177  0.00  0.00    +0.000 A 
ATOM     14  C   UNL     1      -4.949  13.391  24.026  0.00  0.00    +0.000 A 
ATOM     15  C   UNL     1      -5.164  14.065  22.819  0.00  0.00    +0.000 A 
ATOM     16  F   UNL     1      -6.206  14.902  22.725  0.00  0.00    +0.000 F 
ATOM     17  C   UNL     1      -4.334  13.877  21.706  0.00  0.00    +0.000 A 
ATOM     18  C   UNL     1      -3.268  13.004  21.835  0.00  0.00    +0.000 A 
ATOM     19  C   UNL     1      -2.315  12.450  20.806  0.00  0.00    +0.000 C 
ATOM     20  H   UNL     1      -0.555  11.080  19.257  0.00  0.00    +0.000 HD
ENDBRANCH   4   7
BRANCH   1  22
ATOM     21  N   UNL     1       3.173   5.092  18.743  0.00  0.00    +0.000 N 
ATOM     22  C   UNL     1       3.516   6.365  18.327  0.00  0.00    +0.000 C 
ATOM     23  O   UNL     1       4.493   6.616  17.634  0.00  0.00    +0.000 OA
ATOM     24  H   UNL     1       2.310   4.953  19.249  0.00  0.00    +0.000 HD
BRANCH  21  25
ATOM     25  C   UNL     1       3.956   3.901  18.408  0.00  0.00    +0.000 C 
ATOM     26  C   UNL     1       3.259   3.139  17.277  0.00  0.00    +0.000 C 
BRANCH  25  27
ATOM     27  C   UNL     1       4.171   2.987  19.631  0.00  0.00    +0.000 C 
BRANCH  27  29
ATOM     28  C   UNL     1       2.605   2.718  21.385  0.00  0.00    +0.000 C 
ATOM     29  O   UNL     1       2.921   2.420  20.035  0.00  0.00    +0.000 OA
ENDBRANCH  27  29
ENDBRANCH  25  27
ENDBRANCH  21  25
ENDBRANCH   1  22
TORSDOF 5
ENDMDL
MODEL 7
REMARK VINA RESULT:      -7.4      0.992      1.086
REMARK  Name = 
REMARK  7 active torsions:
REMARK  status: ('A' for Active; 'I' for Inactive)
REMARK    1  A    between atoms: C_1  and  O_2
REMARK    2  A    between atoms: O_2  and  C_3
REMARK    3  A    between atoms: C_3  and  C_4
REMARK    4  A    between atoms: C_4  and  C_5
REMARK    5  A    between atoms: C_4  and  N_6
REMARK    6  A    between atoms: C_7  and  C_9
REMARK    7  A    between atoms: C_12  and  N_13
REMARK                            x       y       z     vdW  Elec       q    Type
REMARK                         _______ _______ _______ _____ _____    ______ ____
ROOT
ATOM      1  C   UNL     1       5.739   5.559  16.520  0.00  0.00    +0.000 A 
ATOM      2  C   UNL     1       5.123   6.753  16.147  0.00  0.00    +0.000 A 
ATOM      3  C   UNL     1       4.179   7.345  16.991  0.00  0.00    +0.000 A 
ATOM      4  C   UNL     1       3.793   6.754  18.204  0.00  0.00    +0.000 A 
ATOM      5  C   UNL     1       4.430   5.570  18.588  0.00  0.00    +0.000 A 
ATOM      6  C   UNL     1       5.384   4.966  17.742  0.00  0.00    +0.000 A 
ENDROOT
BRANCH   4   7
ATOM      7  N   UNL     1       2.782   7.321  19.037  0.00  0.00    +0.000 N 
ATOM      8  C   UNL     1       1.994   8.366  18.630  0.00  0.00    +0.000 C 
ATOM      9  O   UNL     1       1.982   8.800  17.471  0.00  0.00    +0.000 OA
ATOM     10  N   UNL     1       1.207   8.994  19.556  0.00  0.00    +0.000 N 
ATOM     11  C   UNL     1       0.633  10.268  19.135  0.00  0.00    +0.000 C 
ATOM     12  C   UNL     1       0.050  10.827  20.382  0.00  0.00    +0.000 A 
ATOM     13  C   UNL     1      -0.406  12.117  20.602  0.00  0.00    +0.000 A 
ATOM     14  C   UNL     1      -1.038  12.382  21.812  0.00  0.00    +0.000 A 
ATOM     15  C   UNL     1      -1.240  11.347  22.733  0.00  0.00    +0.000 A 
ATOM     16  F   UNL     1      -1.926  11.607  23.854  0.00  0.00    +0.000 F 
ATOM     17  C   UNL     1      -0.731  10.059  22.524  0.00  0.00    +0.000 A 
ATOM     18  C   UNL     1      -0.024   9.825  21.357  0.00  0.00    +0.000 A 
ATOM     19  C   UNL     1       0.791   8.634  20.919  0.00  0.00    +0.000 C 
ATOM     20  H   UNL     1       2.499   6.809  19.858  0.00  0.00    +0.000 HD
ENDBRANCH   4   7
BRANCH   1  22
ATOM     21  N   UNL     1       6.536   5.054  14.272  0.00  0.00    +0.000 N 
ATOM     22  C   UNL     1       6.746   4.905  15.630  0.00  0.00    +0.000 C 
ATOM     23  O   UNL     1       7.698   4.305  16.112  0.00  0.00    +0.000 OA
ATOM     24  H   UNL     1       5.769   5.627  13.950  0.00  0.00    +0.000 HD
BRANCH  21  25
ATOM     25  C   UNL     1       7.429   4.494  13.256  0.00  0.00    +0.000 C 
ATOM     26  C   UNL     1       8.199   5.631  12.578  0.00  0.00    +0.000 C 
BRANCH  25  27
ATOM     27  C   UNL     1       6.664   3.653  12.214  0.00  0.00    +0.000 C 
BRANCH  27  29
ATOM     28  C   UNL     1       4.429   3.214  11.573  0.00  0.00    +0.000 C 
ATOM     29  O   UNL     1       5.318   3.449  12.653  0.00  0.00    +0.000 OA
ENDBRANCH  27  29
ENDBRANCH  25  27
ENDBRANCH  21  25
ENDBRANCH   1  22
TORSDOF 5
ENDMDL
MODEL 8
REMARK VINA RESULT:      -7.4      3.555      5.434
REMARK  Name = 
REMARK  7 active torsions:
REMARK  status: ('A' for Active; 'I' for Inactive)
REMARK    1  A    between atoms: C_1  and  O_2
REMARK    2  A    between atoms: O_2  and  C_3
REMARK    3  A    between atoms: C_3  and  C_4
REMARK    4  A    between atoms: C_4  and  C_5
REMARK    5  A    between atoms: C_4  and  N_6
REMARK    6  A    between atoms: C_7  and  C_9
REMARK    7  A    between atoms: C_12  and  N_13
REMARK                            x       y       z     vdW  Elec       q    Type
REMARK                         _______ _______ _______ _____ _____    ______ ____
ROOT
ATOM      1  C   UNL     1       2.192   7.951  18.718  0.00  0.00    +0.000 A 
ATOM      2  C   UNL     1       1.817   7.905  20.059  0.00  0.00    +0.000 A 
ATOM      3  C   UNL     1       0.900   8.833  20.561  0.00  0.00    +0.000 A 
ATOM      4  C   UNL     1       0.360   9.852  19.761  0.00  0.00    +0.000 A 
ATOM      5  C   UNL     1       0.718   9.881  18.409  0.00  0.00    +0.000 A 
ATOM      6  C   UNL     1       1.643   8.949  17.894  0.00  0.00    +0.000 A 
ENDROOT
BRANCH   4   7
ATOM      7  N   UNL     1      -0.524  10.841  20.286  0.00  0.00    +0.000 N 
ATOM      8  C   UNL     1      -0.081  11.909  21.021  0.00  0.00    +0.000 C 
ATOM      9  O   UNL     1       1.116  12.191  21.160  0.00  0.00    +0.000 OA
ATOM     10  N   UNL     1      -1.001  12.685  21.672  0.00  0.00    +0.000 N 
ATOM     11  C   UNL     1      -0.458  13.605  22.665  0.00  0.00    +0.000 C 
ATOM     12  C   UNL     1      -1.661  14.123  23.367  0.00  0.00    +0.000 A 
ATOM     13  C   UNL     1      -1.708  14.843  24.551  0.00  0.00    +0.000 A 
ATOM     14  C   UNL     1      -2.942  15.341  24.956  0.00  0.00    +0.000 A 
ATOM     15  C   UNL     1      -4.068  15.151  24.146  0.00  0.00    +0.000 A 
ATOM     16  F   UNL     1      -5.228  15.713  24.514  0.00  0.00    +0.000 F 
ATOM     17  C   UNL     1      -4.021  14.380  22.978  0.00  0.00    +0.000 A 
ATOM     18  C   UNL     1      -2.808  13.810  22.629  0.00  0.00    +0.000 A 
ATOM     19  C   UNL     1      -2.461  12.801  21.563  0.00  0.00    +0.000 C 
ATOM     20  H   UNL     1      -1.468  10.870  19.933  0.00  0.00    +0.000 HD
ENDBRANCH   4   7
BRANCH   1  22
ATOM     21  N   UNL     1       3.015   5.662  18.568  0.00  0.00    +0.000 N 
ATOM     22  C   UNL     1       3.175   6.973  18.161  0.00  0.00    +0.000 C 
ATOM     23  O   UNL     1       4.039   7.345  17.377  0.00  0.00    +0.000 OA
ATOM     24  H   UNL     1       2.232   5.419  19.158  0.00  0.00    +0.000 HD
BRANCH  21  25
ATOM     25  C   UNL     1       3.878   4.570  18.111  0.00  0.00    +0.000 C 
ATOM     26  C   UNL     1       3.064   3.619  17.229  0.00  0.00    +0.000 C 
BRANCH  25  27
ATOM     27  C   UNL     1       4.520   3.809  19.288  0.00  0.00    +0.000 C 
BRANCH  27  29
ATOM     28  C   UNL     1       6.363   4.768  18.156  0.00  0.00    +0.000 C 
ATOM     29  O   UNL     1       5.941   3.975  19.252  0.00  0.00    +0.000 OA
ENDBRANCH  27  29
ENDBRANCH  25  27
ENDBRANCH  21  25
ENDBRANCH   1  22
TORSDOF 5
ENDMDL
MODEL 9
REMARK VINA RESULT:      -7.4      3.425      5.439
REMARK  Name = 
REMARK  7 active torsions:
REMARK  status: ('A' for Active; 'I' for Inactive)
REMARK    1  A    between atoms: C_1  and  O_2
REMARK    2  A    between atoms: O_2  and  C_3
REMARK    3  A    between atoms: C_3  and  C_4
REMARK    4  A    between atoms: C_4  and  C_5
REMARK    5  A    between atoms: C_4  and  N_6
REMARK    6  A    between atoms: C_7  and  C_9
REMARK    7  A    between atoms: C_12  and  N_13
REMARK                            x       y       z     vdW  Elec       q    Type
REMARK                         _______ _______ _______ _____ _____    ______ ____
ROOT
ATOM      1  C   UNL     1       2.320   7.941  18.803  0.00  0.00    +0.000 A 
ATOM      2  C   UNL     1       1.850   8.951  17.966  0.00  0.00    +0.000 A 
ATOM      3  C   UNL     1       0.949   9.901  18.455  0.00  0.00    +0.000 A 
ATOM      4  C   UNL     1       0.462   9.856  19.770  0.00  0.00    +0.000 A 
ATOM      5  C   UNL     1       0.955   8.857  20.616  0.00  0.00    +0.000 A 
ATOM      6  C   UNL     1       1.864   7.893  20.131  0.00  0.00    +0.000 A 
ENDROOT
BRANCH   4   7
ATOM      7  N   UNL     1      -0.507  10.785  20.254  0.00  0.00    +0.000 N 
ATOM      8  C   UNL     1      -0.167  11.876  21.011  0.00  0.00    +0.000 C 
ATOM      9  O   UNL     1       1.001  12.233  21.206  0.00  0.00    +0.000 OA
ATOM     10  N   UNL     1      -1.164  12.589  21.618  0.00  0.00    +0.000 N 
ATOM     11  C   UNL     1      -0.728  13.538  22.637  0.00  0.00    +0.000 C 
ATOM     12  C   UNL     1      -1.993  13.976  23.282  0.00  0.00    +0.000 A 
ATOM     13  C   UNL     1      -2.142  14.686  24.463  0.00  0.00    +0.000 A 
ATOM     14  C   UNL     1      -3.423  15.103  24.810  0.00  0.00    +0.000 A 
ATOM     15  C   UNL     1      -4.495  14.846  23.947  0.00  0.00    +0.000 A 
ATOM     16  F   UNL     1      -5.704  15.332  24.261  0.00  0.00    +0.000 F 
ATOM     17  C   UNL     1      -4.344  14.084  22.783  0.00  0.00    +0.000 A 
ATOM     18  C   UNL     1      -3.082  13.594  22.490  0.00  0.00    +0.000 A 
ATOM     19  C   UNL     1      -2.622  12.613  21.441  0.00  0.00    +0.000 C 
ATOM     20  H   UNL     1      -1.433  10.755  19.857  0.00  0.00    +0.000 HD
ENDBRANCH   4   7
BRANCH   1  22
ATOM     21  N   UNL     1       3.575   5.885  19.176  0.00  0.00    +0.000 N 
ATOM     22  C   UNL     1       3.278   6.910  18.299  0.00  0.00    +0.000 C 
ATOM     23  O   UNL     1       3.731   6.991  17.165  0.00  0.00    +0.000 OA
ATOM     24  H   UNL     1       3.103   5.845  20.069  0.00  0.00    +0.000 HD
BRANCH  21  25
ATOM     25  C   UNL     1       4.481   4.783  18.845  0.00  0.00    +0.000 C 
ATOM     26  C   UNL     1       4.023   3.516  19.574  0.00  0.00    +0.000 C 
BRANCH  25  27
ATOM     27  C   UNL     1       5.945   5.114  19.193  0.00  0.00    +0.000 C 
BRANCH  27  29
ATOM     28  C   UNL     1       7.373   4.708  17.349  0.00  0.00    +0.000 C 
ATOM     29  O   UNL     1       6.818   4.183  18.544  0.00  0.00    +0.000 OA
ENDBRANCH  27  29
ENDBRANCH  25  27
ENDBRANCH  21  25
ENDBRANCH   1  22
TORSDOF 5
ENDMDL
