MODEL 1
REMARK VINA RESULT:      -8.2      0.000      0.000
REMARK  Name = 
REMARK  5 active torsions:
REMARK  status: ('A' for Active; 'I' for Inactive)
REMARK    1  A    between atoms: C_1  and  C_2
REMARK    2  A    between atoms: N_8  and  C_9
REMARK    3  A    between atoms: C_9  and  C_10
REMARK    4  A    between atoms: N_12  and  C_13
REMARK    5  A    between atoms: C_13  and  C_14
REMARK                            x       y       z     vdW  Elec       q    Type
REMARK                         _______ _______ _______ _____ _____    ______ ____
ROOT
ATOM      1  C   UNL     1       0.725   2.492  18.998  0.00  0.00    +0.000 C 
ATOM      2  C   UNL     1       1.907   3.177  18.373  0.00  0.00    +0.000 A 
ATOM      3  C   UNL     1       2.807   2.452  17.592  0.00  0.00    +0.000 A 
ATOM      4  C   UNL     1       3.893   3.099  17.020  0.00  0.00    +0.000 A 
ATOM      5  C   UNL     1       4.075   4.476  17.231  0.00  0.00    +0.000 A 
ATOM      6  C   UNL     1       3.204   5.253  18.001  0.00  0.00    +0.000 A 
ATOM      7  C   UNL     1       2.115   4.560  18.572  0.00  0.00    +0.000 A 
ATOM      8  N   UNL     1       3.429   6.640  18.176  0.00  0.00    +0.000 N 
ATOM      9  C   UNL     1       4.537   7.238  17.615  0.00  0.00    +0.000 C 
ATOM     10  N   UNL     1       5.480   6.779  16.877  0.00  0.00    +0.000 NA
ATOM     11  S   UNL     1       5.476   5.226  16.467  0.00  0.00    +0.000 S 
ATOM     12  O   UNL     1       5.236   5.126  15.040  0.00  0.00    +0.000 OA
ATOM     13  O   UNL     1       6.635   4.584  17.063  0.00  0.00    +0.000 OA
ENDROOT
BRANCH   8  14
ATOM     14  C   UNL     1       2.465   7.381  19.022  0.00  0.00    +0.000 C 
BRANCH  14  15
ATOM     15  C   UNL     1       1.859   8.633  18.381  0.00  0.00    +0.000 C 
ATOM     16  O   UNL     1       2.122   8.945  17.222  0.00  0.00    +0.000 OA
ATOM     17  N   UNL     1       0.980   9.357  19.167  0.00  0.00    +0.000 N 
ATOM     18  H   UNL     1       0.930   9.174  20.163  0.00  0.00    +0.000 HD
BRANCH  17  19
ATOM     19  C   UNL     1       0.503  10.650  18.714  0.00  0.00    +0.000 C 
BRANCH  19  20
ATOM     20  C   UNL     1      -0.972  10.693  18.396  0.00  0.00    +0.000 A 
ATOM     21  C   UNL     1      -1.457   9.886  17.350  0.00  0.00    +0.000 A 
ATOM     22  C   UNL     1      -2.792   9.956  16.940  0.00  0.00    +0.000 A 
ATOM     23  C   UNL     1      -3.670  10.827  17.574  0.00  0.00    +0.000 A 
ATOM     24  C   UNL     1      -3.215  11.622  18.626  0.00  0.00    +0.000 A 
ATOM     25  C   UNL     1      -1.875  11.558  19.033  0.00  0.00    +0.000 A 
ATOM     26 CL   UNL     1      -1.378  12.594  20.324  0.00  0.00    +0.000 Cl
ENDBRANCH  19  20
ENDBRANCH  17  19
ENDBRANCH  14  15
ENDBRANCH   8  14
TORSDOF 4
ENDMDL
MODEL 2
REMARK VINA RESULT:      -8.2      3.894      8.320
REMARK  Name = 
REMARK  5 active torsions:
REMARK  status: ('A' for Active; 'I' for Inactive)
REMARK    1  A    between atoms: C_1  and  C_2
REMARK    2  A    between atoms: N_8  and  C_9
REMARK    3  A    between atoms: C_9  and  C_10
REMARK    4  A    between atoms: N_12  and  C_13
REMARK    5  A    between atoms: C_13  and  C_14
REMARK                            x       y       z     vdW  Elec       q    Type
REMARK                         _______ _______ _______ _____ _____    ______ ____
ROOT
ATOM      1  C   UNL     1      -2.908   9.923  16.026  0.00  0.00    +0.000 C 
ATOM      2  C   UNL     1      -2.419  10.516  17.317  0.00  0.00    +0.000 A 
ATOM      3  C   UNL     1      -3.219  11.411  18.026  0.00  0.00    +0.000 A 
ATOM      4  C   UNL     1      -2.755  11.949  19.218  0.00  0.00    +0.000 A 
ATOM      5  C   UNL     1      -1.487  11.586  19.699  0.00  0.00    +0.000 A 
ATOM      6  C   UNL     1      -0.643  10.691  19.033  0.00  0.00    +0.000 A 
ATOM      7  C   UNL     1      -1.146  10.170  17.822  0.00  0.00    +0.000 A 
ATOM      8  N   UNL     1       0.624  10.353  19.566  0.00  0.00    +0.000 N 
ATOM      9  C   UNL     1       1.061  10.933  20.738  0.00  0.00    +0.000 C 
ATOM     10  N   UNL     1       0.508  11.766  21.541  0.00  0.00    +0.000 NA
ATOM     11  S   UNL     1      -0.969  12.309  21.222  0.00  0.00    +0.000 S 
ATOM     12  O   UNL     1      -1.879  11.787  22.224  0.00  0.00    +0.000 OA
ATOM     13  O   UNL     1      -0.896  13.737  20.971  0.00  0.00    +0.000 OA
ENDROOT
BRANCH   8  14
ATOM     14  C   UNL     1       1.458   9.411  18.783  0.00  0.00    +0.000 C 
BRANCH  14  15
ATOM     15  C   UNL     1       1.826   8.110  19.504  0.00  0.00    +0.000 C 
ATOM     16  O   UNL     1       1.415   7.871  20.637  0.00  0.00    +0.000 OA
ATOM     17  N   UNL     1       2.610   7.218  18.792  0.00  0.00    +0.000 N 
ATOM     18  H   UNL     1       3.073   7.525  17.945  0.00  0.00    +0.000 HD
BRANCH  17  19
ATOM     19  C   UNL     1       3.159   6.051  19.455  0.00  0.00    +0.000 C 
BRANCH  19  20
ATOM     20  C   UNL     1       2.420   4.766  19.168  0.00  0.00    +0.000 A 
ATOM     21  C   UNL     1       1.392   4.373  20.045  0.00  0.00    +0.000 A 
ATOM     22  C   UNL     1       0.740   3.146  19.893  0.00  0.00    +0.000 A 
ATOM     23  C   UNL     1       1.095   2.293  18.853  0.00  0.00    +0.000 A 
ATOM     24  C   UNL     1       2.098   2.672  17.961  0.00  0.00    +0.000 A 
ATOM     25  C   UNL     1       2.758   3.899  18.118  0.00  0.00    +0.000 A 
ATOM     26 CL   UNL     1       4.009   4.287  16.990  0.00  0.00    +0.000 Cl
ENDBRANCH  19  20
ENDBRANCH  17  19
ENDBRANCH  14  15
ENDBRANCH   8  14
TORSDOF 4
ENDMDL
MODEL 3
REMARK VINA RESULT:      -8.1      1.989      3.304
REMARK  Name = 
REMARK  5 active torsions:
REMARK  status: ('A' for Active; 'I' for Inactive)
REMARK    1  A    between atoms: C_1  and  C_2
REMARK    2  A    between atoms: N_8  and  C_9
REMARK    3  A    between atoms: C_9  and  C_10
REMARK    4  A    between atoms: N_12  and  C_13
REMARK    5  A    between atoms: C_13  and  C_14
REMARK                            x       y       z     vdW  Elec       q    Type
REMARK                         _______ _______ _______ _____ _____    ______ ____
ROOT
ATOM      1  C   UNL     1       7.857   7.782  17.450  0.00  0.00    +0.000 C 
ATOM      2  C   UNL     1       6.809   6.744  17.734  0.00  0.00    +0.000 A 
ATOM      3  C   UNL     1       7.182   5.448  18.088  0.00  0.00    +0.000 A 
ATOM      4  C   UNL     1       6.203   4.500  18.348  0.00  0.00    +0.000 A 
ATOM      5  C   UNL     1       4.847   4.854  18.255  0.00  0.00    +0.000 A 
ATOM      6  C   UNL     1       4.414   6.138  17.908  0.00  0.00    +0.000 A 
ATOM      7  C   UNL     1       5.438   7.073  17.644  0.00  0.00    +0.000 A 
ATOM      8  N   UNL     1       3.034   6.444  17.835  0.00  0.00    +0.000 N 
ATOM      9  C   UNL     1       2.093   5.466  18.072  0.00  0.00    +0.000 C 
ATOM     10  N   UNL     1       2.203   4.231  18.404  0.00  0.00    +0.000 NA
ATOM     11  S   UNL     1       3.663   3.595  18.605  0.00  0.00    +0.000 S 
ATOM     12  O   UNL     1       3.840   3.281  20.010  0.00  0.00    +0.000 OA
ATOM     13  O   UNL     1       3.870   2.574  17.593  0.00  0.00    +0.000 OA
ENDROOT
BRANCH   8  14
ATOM     14  C   UNL     1       2.668   7.825  17.443  0.00  0.00    +0.000 C 
BRANCH  14  15
ATOM     15  C   UNL     1       1.835   8.598  18.470  0.00  0.00    +0.000 C 
ATOM     16  O   UNL     1       1.893   8.331  19.668  0.00  0.00    +0.000 OA
ATOM     17  N   UNL     1       1.052   9.625  17.972  0.00  0.00    +0.000 N 
ATOM     18  H   UNL     1       0.892   9.696  16.974  0.00  0.00    +0.000 HD
BRANCH  17  19
ATOM     19  C   UNL     1       0.094  10.287  18.838  0.00  0.00    +0.000 C 
BRANCH  19  20
ATOM     20  C   UNL     1      -1.276  10.465  18.231  0.00  0.00    +0.000 A 
ATOM     21  C   UNL     1      -1.595   9.735  17.070  0.00  0.00    +0.000 A 
ATOM     22  C   UNL     1      -2.807   9.931  16.401  0.00  0.00    +0.000 A 
ATOM     23  C   UNL     1      -3.729  10.852  16.886  0.00  0.00    +0.000 A 
ATOM     24  C   UNL     1      -3.441  11.571  18.045  0.00  0.00    +0.000 A 
ATOM     25  C   UNL     1      -2.222  11.381  18.713  0.00  0.00    +0.000 A 
ATOM     26 CL   UNL     1      -1.926  12.329  20.127  0.00  0.00    +0.000 Cl
ENDBRANCH  19  20
ENDBRANCH  17  19
ENDBRANCH  14  15
ENDBRANCH   8  14
TORSDOF 4
ENDMDL
MODEL 4
REMARK VINA RESULT:      -8.0      1.372      1.513
REMARK  Name = 
REMARK  5 active torsions:
REMARK  status: ('A' for Active; 'I' for Inactive)
REMARK    1  A    between atoms: C_1  and  C_2
REMARK    2  A    between atoms: N_8  and  C_9
REMARK    3  A    between atoms: C_9  and  C_10
REMARK    4  A    between atoms: N_12  and  C_13
REMARK    5  A    between atoms: C_13  and  C_14
REMARK                            x       y       z     vdW  Elec       q    Type
REMARK                         _______ _______ _______ _____ _____    ______ ____
ROOT
ATOM      1  C   UNL     1       0.964   2.750  19.886  0.00  0.00    +0.000 C 
ATOM      2  C   UNL     1       2.293   3.359  19.542  0.00  0.00    +0.000 A 
ATOM      3  C   UNL     1       3.475   2.700  19.879  0.00  0.00    +0.000 A 
ATOM      4  C   UNL     1       4.696   3.274  19.554  0.00  0.00    +0.000 A 
ATOM      5  C   UNL     1       4.730   4.510  18.888  0.00  0.00    +0.000 A 
ATOM      6  C   UNL     1       3.578   5.214  18.523  0.00  0.00    +0.000 A 
ATOM      7  C   UNL     1       2.356   4.603  18.875  0.00  0.00    +0.000 A 
ATOM      8  N   UNL     1       3.668   6.454  17.846  0.00  0.00    +0.000 N 
ATOM      9  C   UNL     1       4.901   7.004  17.568  0.00  0.00    +0.000 C 
ATOM     10  N   UNL     1       6.095   6.587  17.781  0.00  0.00    +0.000 NA
ATOM     11  S   UNL     1       6.319   5.172  18.506  0.00  0.00    +0.000 S 
ATOM     12  O   UNL     1       6.899   4.250  17.548  0.00  0.00    +0.000 OA
ATOM     13  O   UNL     1       6.964   5.402  19.786  0.00  0.00    +0.000 OA
ENDROOT
BRANCH   8  14
ATOM     14  C   UNL     1       2.396   7.137  17.513  0.00  0.00    +0.000 C 
BRANCH  14  15
ATOM     15  C   UNL     1       1.964   8.230  18.496  0.00  0.00    +0.000 C 
ATOM     16  O   UNL     1       2.044   8.063  19.711  0.00  0.00    +0.000 OA
ATOM     17  N   UNL     1       1.521   9.415  17.934  0.00  0.00    +0.000 N 
ATOM     18  H   UNL     1       1.300   9.449  16.946  0.00  0.00    +0.000 HD
BRANCH  17  19
ATOM     19  C   UNL     1       0.921  10.433  18.777  0.00  0.00    +0.000 C 
BRANCH  19  20
ATOM     20  C   UNL     1      -0.557  10.638  18.548  0.00  0.00    +0.000 A 
ATOM     21  C   UNL     1      -1.190   9.892  17.536  0.00  0.00    +0.000 A 
ATOM     22  C   UNL     1      -2.531  10.109  17.205  0.00  0.00    +0.000 A 
ATOM     23  C   UNL     1      -3.269  11.069  17.888  0.00  0.00    +0.000 A 
ATOM     24  C   UNL     1      -2.667  11.807  18.908  0.00  0.00    +0.000 A 
ATOM     25  C   UNL     1      -1.320  11.595  19.234  0.00  0.00    +0.000 A 
ATOM     26 CL   UNL     1      -0.636  12.566  20.490  0.00  0.00    +0.000 Cl
ENDBRANCH  19  20
ENDBRANCH  17  19
ENDBRANCH  14  15
ENDBRANCH   8  14
TORSDOF 4
ENDMDL
MODEL 5
REMARK VINA RESULT:      -7.9      1.081      1.098
REMARK  Name = 
REMARK  5 active torsions:
REMARK  status: ('A' for Active; 'I' for Inactive)
REMARK    1  A    between atoms: C_1  and  C_2
REMARK    2  A    between atoms: N_8  and  C_9
REMARK    3  A    between atoms: C_9  and  C_10
REMARK    4  A    between atoms: N_12  and  C_13
REMARK    5  A    between atoms: C_13  and  C_14
REMARK                            x       y       z     vdW  Elec       q    Type
REMARK                         _______ _______ _______ _____ _____    ______ ____
ROOT
ATOM      1  C   UNL     1       1.413   2.868  21.540  0.00  0.00    +0.000 C 
ATOM      2  C   UNL     1       2.330   3.360  20.456  0.00  0.00    +0.000 A 
ATOM      3  C   UNL     1       3.175   2.469  19.794  0.00  0.00    +0.000 A 
ATOM      4  C   UNL     1       4.016   2.938  18.794  0.00  0.00    +0.000 A 
ATOM      5  C   UNL     1       4.006   4.301  18.457  0.00  0.00    +0.000 A 
ATOM      6  C   UNL     1       3.178   5.238  19.083  0.00  0.00    +0.000 A 
ATOM      7  C   UNL     1       2.342   4.727  20.099  0.00  0.00    +0.000 A 
ATOM      8  N   UNL     1       3.202   6.600  18.700  0.00  0.00    +0.000 N 
ATOM      9  C   UNL     1       4.073   7.030  17.722  0.00  0.00    +0.000 C 
ATOM     10  N   UNL     1       4.925   6.404  16.995  0.00  0.00    +0.000 NA
ATOM     11  S   UNL     1       5.099   4.818  17.173  0.00  0.00    +0.000 S 
ATOM     12  O   UNL     1       4.618   4.163  15.972  0.00  0.00    +0.000 OA
ATOM     13  O   UNL     1       6.437   4.549  17.669  0.00  0.00    +0.000 OA
ENDROOT
BRANCH   8  14
ATOM     14  C   UNL     1       2.303   7.525  19.430  0.00  0.00    +0.000 C 
BRANCH  14  15
ATOM     15  C   UNL     1       1.712   8.661  18.590  0.00  0.00    +0.000 C 
ATOM     16  O   UNL     1       1.999   8.792  17.402  0.00  0.00    +0.000 OA
ATOM     17  N   UNL     1       0.819   9.497  19.237  0.00  0.00    +0.000 N 
ATOM     18  H   UNL     1       0.749   9.470  20.247  0.00  0.00    +0.000 HD
BRANCH  17  19
ATOM     19  C   UNL     1       0.353  10.704  18.579  0.00  0.00    +0.000 C 
BRANCH  19  20
ATOM     20  C   UNL     1      -1.124  10.712  18.267  0.00  0.00    +0.000 A 
ATOM     21  C   UNL     1      -1.600   9.861  17.251  0.00  0.00    +0.000 A 
ATOM     22  C   UNL     1      -2.936   9.896  16.844  0.00  0.00    +0.000 A 
ATOM     23  C   UNL     1      -3.827  10.774  17.453  0.00  0.00    +0.000 A 
ATOM     24  C   UNL     1      -3.381  11.612  18.474  0.00  0.00    +0.000 A 
ATOM     25  C   UNL     1      -2.038  11.583  18.878  0.00  0.00    +0.000 A 
ATOM     26 CL   UNL     1      -1.554  12.671  20.131  0.00  0.00    +0.000 Cl
ENDBRANCH  19  20
ENDBRANCH  17  19
ENDBRANCH  14  15
ENDBRANCH   8  14
TORSDOF 4
ENDMDL
MODEL 6
REMARK VINA RESULT:      -7.9      4.943      7.901
REMARK  Name = 
REMARK  5 active torsions:
REMARK  status: ('A' for Active; 'I' for Inactive)
REMARK    1  A    between atoms: C_1  and  C_2
REMARK    2  A    between atoms: N_8  and  C_9
REMARK    3  A    between atoms: C_9  and  C_10
REMARK    4  A    between atoms: N_12  and  C_13
REMARK    5  A    between atoms: C_13  and  C_14
REMARK                            x       y       z     vdW  Elec       q    Type
REMARK                         _______ _______ _______ _____ _____    ______ ____
ROOT
ATOM      1  C   UNL     1       2.197   9.231  17.715  0.00  0.00    +0.000 C 
ATOM      2  C   UNL     1       2.841   7.882  17.866  0.00  0.00    +0.000 A 
ATOM      3  C   UNL     1       2.091   6.792  18.308  0.00  0.00    +0.000 A 
ATOM      4  C   UNL     1       2.699   5.552  18.442  0.00  0.00    +0.000 A 
ATOM      5  C   UNL     1       4.060   5.405  18.130  0.00  0.00    +0.000 A 
ATOM      6  C   UNL     1       4.860   6.461  17.680  0.00  0.00    +0.000 A 
ATOM      7  C   UNL     1       4.209   7.708  17.562  0.00  0.00    +0.000 A 
ATOM      8  N   UNL     1       6.226   6.258  17.372  0.00  0.00    +0.000 N 
ATOM      9  C   UNL     1       6.799   5.016  17.547  0.00  0.00    +0.000 C 
ATOM     10  N   UNL     1       6.314   3.894  17.935  0.00  0.00    +0.000 NA
ATOM     11  S   UNL     1       4.759   3.798  18.321  0.00  0.00    +0.000 S 
ATOM     12  O   UNL     1       4.090   2.968  17.338  0.00  0.00    +0.000 OA
ATOM     13  O   UNL     1       4.648   3.491  19.736  0.00  0.00    +0.000 OA
ENDROOT
BRANCH   8  14
ATOM     14  C   UNL     1       7.001   7.437  16.919  0.00  0.00    +0.000 C 
BRANCH  14  15
ATOM     15  C   UNL     1       7.926   8.056  17.971  0.00  0.00    +0.000 C 
ATOM     16  O   UNL     1       8.481   7.361  18.819  0.00  0.00    +0.000 OA
ATOM     17  N   UNL     1       8.123   9.423  17.882  0.00  0.00    +0.000 N 
ATOM     18  H   UNL     1       7.515   9.979  17.292  0.00  0.00    +0.000 HD
BRANCH  17  19
ATOM     19  C   UNL     1       8.831  10.121  18.939  0.00  0.00    +0.000 C 
BRANCH  19  20
ATOM     20  C   UNL     1       9.767  11.201  18.454  0.00  0.00    +0.000 A 
ATOM     21  C   UNL     1      11.117  11.146  18.850  0.00  0.00    +0.000 A 
ATOM     22  C   UNL     1      12.011  12.168  18.521  0.00  0.00    +0.000 A 
ATOM     23  C   UNL     1      11.576  13.261  17.778  0.00  0.00    +0.000 A 
ATOM     24  C   UNL     1      10.247  13.326  17.360  0.00  0.00    +0.000 A 
ATOM     25  C   UNL     1       9.348  12.304  17.696  0.00  0.00    +0.000 A 
ATOM     26 CL   UNL     1       7.712  12.468  17.165  0.00  0.00    +0.000 Cl
ENDBRANCH  19  20
ENDBRANCH  17  19
ENDBRANCH  14  15
ENDBRANCH   8  14
TORSDOF 4
ENDMDL
MODEL 7
REMARK VINA RESULT:      -7.9      3.045      4.363
REMARK  Name = 
REMARK  5 active torsions:
REMARK  status: ('A' for Active; 'I' for Inactive)
REMARK    1  A    between atoms: C_1  and  C_2
REMARK    2  A    between atoms: N_8  and  C_9
REMARK    3  A    between atoms: C_9  and  C_10
REMARK    4  A    between atoms: N_12  and  C_13
REMARK    5  A    between atoms: C_13  and  C_14
REMARK                            x       y       z     vdW  Elec       q    Type
REMARK                         _______ _______ _______ _____ _____    ______ ____
ROOT
ATOM      1  C   UNL     1       5.092   3.872  13.247  0.00  0.00    +0.000 C 
ATOM      2  C   UNL     1       5.704   4.256  14.564  0.00  0.00    +0.000 A 
ATOM      3  C   UNL     1       7.006   4.754  14.615  0.00  0.00    +0.000 A 
ATOM      4  C   UNL     1       7.557   5.105  15.838  0.00  0.00    +0.000 A 
ATOM      5  C   UNL     1       6.801   4.959  17.012  0.00  0.00    +0.000 A 
ATOM      6  C   UNL     1       5.491   4.469  17.022  0.00  0.00    +0.000 A 
ATOM      7  C   UNL     1       4.965   4.116  15.760  0.00  0.00    +0.000 A 
ATOM      8  N   UNL     1       4.769   4.348  18.233  0.00  0.00    +0.000 N 
ATOM      9  C   UNL     1       5.364   4.680  19.431  0.00  0.00    +0.000 C 
ATOM     10  N   UNL     1       6.526   5.146  19.713  0.00  0.00    +0.000 NA
ATOM     11  S   UNL     1       7.570   5.431  18.527  0.00  0.00    +0.000 S 
ATOM     12  O   UNL     1       7.772   6.864  18.425  0.00  0.00    +0.000 OA
ATOM     13  O   UNL     1       8.706   4.540  18.682  0.00  0.00    +0.000 OA
ENDROOT
BRANCH   8  14
ATOM     14  C   UNL     1       3.394   3.803  18.150  0.00  0.00    +0.000 C 
BRANCH  14  15
ATOM     15  C   UNL     1       2.337   4.569  18.951  0.00  0.00    +0.000 C 
ATOM     16  O   UNL     1       1.145   4.278  18.874  0.00  0.00    +0.000 OA
ATOM     17  N   UNL     1       2.808   5.570  19.782  0.00  0.00    +0.000 N 
ATOM     18  H   UNL     1       3.761   5.897  19.682  0.00  0.00    +0.000 HD
BRANCH  17  19
ATOM     19  C   UNL     1       1.871   6.467  20.435  0.00  0.00    +0.000 C 
BRANCH  19  20
ATOM     20  C   UNL     1       1.668   7.781  19.721  0.00  0.00    +0.000 A 
ATOM     21  C   UNL     1       2.251   7.953  18.451  0.00  0.00    +0.000 A 
ATOM     22  C   UNL     1       2.186   9.179  17.784  0.00  0.00    +0.000 A 
ATOM     23  C   UNL     1       1.527  10.255  18.367  0.00  0.00    +0.000 A 
ATOM     24  C   UNL     1       0.925  10.101  19.616  0.00  0.00    +0.000 A 
ATOM     25  C   UNL     1       0.996   8.873  20.290  0.00  0.00    +0.000 A 
ATOM     26 CL   UNL     1       0.250   8.767  21.845  0.00  0.00    +0.000 Cl
ENDBRANCH  19  20
ENDBRANCH  17  19
ENDBRANCH  14  15
ENDBRANCH   8  14
TORSDOF 4
ENDMDL
MODEL 8
REMARK VINA RESULT:      -7.7      2.559      3.322
REMARK  Name = 
REMARK  5 active torsions:
REMARK  status: ('A' for Active; 'I' for Inactive)
REMARK    1  A    between atoms: C_1  and  C_2
REMARK    2  A    between atoms: N_8  and  C_9
REMARK    3  A    between atoms: C_9  and  C_10
REMARK    4  A    between atoms: N_12  and  C_13
REMARK    5  A    between atoms: C_13  and  C_14
REMARK                            x       y       z     vdW  Elec       q    Type
REMARK                         _______ _______ _______ _____ _____    ______ ____
ROOT
ATOM      1  C   UNL     1       5.428   5.787  15.594  0.00  0.00    +0.000 C 
ATOM      2  C   UNL     1       4.534   5.153  16.623  0.00  0.00    +0.000 A 
ATOM      3  C   UNL     1       4.392   3.766  16.670  0.00  0.00    +0.000 A 
ATOM      4  C   UNL     1       3.565   3.195  17.627  0.00  0.00    +0.000 A 
ATOM      5  C   UNL     1       2.881   4.017  18.537  0.00  0.00    +0.000 A 
ATOM      6  C   UNL     1       2.988   5.411  18.539  0.00  0.00    +0.000 A 
ATOM      7  C   UNL     1       3.833   5.957  17.549  0.00  0.00    +0.000 A 
ATOM      8  N   UNL     1       2.282   6.193  19.485  0.00  0.00    +0.000 N 
ATOM      9  C   UNL     1       1.447   5.588  20.400  0.00  0.00    +0.000 C 
ATOM     10  N   UNL     1       1.166   4.357  20.622  0.00  0.00    +0.000 NA
ATOM     11  S   UNL     1       1.852   3.216  19.725  0.00  0.00    +0.000 S 
ATOM     12  O   UNL     1       2.756   2.451  20.563  0.00  0.00    +0.000 OA
ATOM     13  O   UNL     1       0.820   2.544  18.956  0.00  0.00    +0.000 OA
ENDROOT
BRANCH   8  14
ATOM     14  C   UNL     1       2.442   7.664  19.401  0.00  0.00    +0.000 C 
BRANCH  14  15
ATOM     15  C   UNL     1       1.338   8.482  20.077  0.00  0.00    +0.000 C 
ATOM     16  O   UNL     1       0.884   8.157  21.173  0.00  0.00    +0.000 OA
ATOM     17  N   UNL     1       0.916   9.614  19.402  0.00  0.00    +0.000 N 
ATOM     18  H   UNL     1       1.179   9.746  18.433  0.00  0.00    +0.000 HD
BRANCH  17  19
ATOM     19  C   UNL     1      -0.247  10.344  19.873  0.00  0.00    +0.000 C 
BRANCH  19  20
ATOM     20  C   UNL     1      -1.328  10.528  18.835  0.00  0.00    +0.000 A 
ATOM     21  C   UNL     1      -1.258   9.770  17.651  0.00  0.00    +0.000 A 
ATOM     22  C   UNL     1      -2.168   9.968  16.609  0.00  0.00    +0.000 A 
ATOM     23  C   UNL     1      -3.174  10.919  16.735  0.00  0.00    +0.000 A 
ATOM     24  C   UNL     1      -3.274  11.668  17.908  0.00  0.00    +0.000 A 
ATOM     25  C   UNL     1      -2.356  11.476  18.950  0.00  0.00    +0.000 A 
ATOM     26 CL   UNL     1      -2.526  12.459  20.361  0.00  0.00    +0.000 Cl
ENDBRANCH  19  20
ENDBRANCH  17  19
ENDBRANCH  14  15
ENDBRANCH   8  14
TORSDOF 4
ENDMDL
MODEL 9
REMARK VINA RESULT:      -7.7      4.835      8.005
REMARK  Name = 
REMARK  5 active torsions:
REMARK  status: ('A' for Active; 'I' for Inactive)
REMARK    1  A    between atoms: C_1  and  C_2
REMARK    2  A    between atoms: N_8  and  C_9
REMARK    3  A    between atoms: C_9  and  C_10
REMARK    4  A    between atoms: N_12  and  C_13
REMARK    5  A    between atoms: C_13  and  C_14
REMARK                            x       y       z     vdW  Elec       q    Type
REMARK                         _______ _______ _______ _____ _____    ______ ____
ROOT
ATOM      1  C   UNL     1       2.578   8.410  17.737  0.00  0.00    +0.000 C 
ATOM      2  C   UNL     1       2.578   6.949  18.090  0.00  0.00    +0.000 A 
ATOM      3  C   UNL     1       1.388   6.222  18.072  0.00  0.00    +0.000 A 
ATOM      4  C   UNL     1       1.404   4.874  18.399  0.00  0.00    +0.000 A 
ATOM      5  C   UNL     1       2.617   4.254  18.742  0.00  0.00    +0.000 A 
ATOM      6  C   UNL     1       3.840   4.931  18.773  0.00  0.00    +0.000 A 
ATOM      7  C   UNL     1       3.784   6.302  18.441  0.00  0.00    +0.000 A 
ATOM      8  N   UNL     1       5.035   4.257  19.119  0.00  0.00    +0.000 N 
ATOM      9  C   UNL     1       5.004   2.923  19.466  0.00  0.00    +0.000 C 
ATOM     10  N   UNL     1       4.045   2.073  19.521  0.00  0.00    +0.000 NA
ATOM     11  S   UNL     1       2.556   2.537  19.140  0.00  0.00    +0.000 S 
ATOM     12  O   UNL     1       2.165   1.871  17.912  0.00  0.00    +0.000 OA
ATOM     13  O   UNL     1       1.720   2.441  20.324  0.00  0.00    +0.000 OA
ENDROOT
BRANCH   8  14
ATOM     14  C   UNL     1       6.282   5.058  19.143  0.00  0.00    +0.000 C 
BRANCH  14  15
ATOM     15  C   UNL     1       7.187   4.896  17.918  0.00  0.00    +0.000 C 
ATOM     16  O   UNL     1       8.253   4.289  17.990  0.00  0.00    +0.000 OA
ATOM     17  N   UNL     1       6.716   5.438  16.735  0.00  0.00    +0.000 N 
ATOM     18  H   UNL     1       5.932   6.079  16.755  0.00  0.00    +0.000 HD
BRANCH  17  19
ATOM     19  C   UNL     1       7.582   5.496  15.572  0.00  0.00    +0.000 C 
BRANCH  19  20
ATOM     20  C   UNL     1       7.009   4.846  14.336  0.00  0.00    +0.000 A 
ATOM     21  C   UNL     1       5.898   3.993  14.479  0.00  0.00    +0.000 A 
ATOM     22  C   UNL     1       5.385   3.282  13.391  0.00  0.00    +0.000 A 
ATOM     23  C   UNL     1       5.965   3.418  12.134  0.00  0.00    +0.000 A 
ATOM     24  C   UNL     1       7.055   4.273  11.966  0.00  0.00    +0.000 A 
ATOM     25  C   UNL     1       7.575   4.981  13.059  0.00  0.00    +0.000 A 
ATOM     26 CL   UNL     1       8.943   5.998  12.778  0.00  0.00    +0.000 Cl
ENDBRANCH  19  20
ENDBRANCH  17  19
ENDBRANCH  14  15
ENDBRANCH   8  14
TORSDOF 4
ENDMDL
