MODEL 1
REMARK VINA RESULT:      -7.8      0.000      0.000
REMARK  Name = 
REMARK  4 active torsions:
REMARK  status: ('A' for Active; 'I' for Inactive)
REMARK    1  A    between atoms: C_1  and  C_2
REMARK    2  A    between atoms: C_2  and  C_3
REMARK    3  A    between atoms: C_3  and  N_4
REMARK    4  A    between atoms: C_11  and  O_12
REMARK                            x       y       z     vdW  Elec       q    Type
REMARK                         _______ _______ _______ _____ _____    ______ ____
ROOT
ATOM      1  N   UNL     1       5.585   4.737  16.097  0.00  0.00    +0.000 NA
ATOM      2  C   UNL     1       7.054   4.659  16.297  0.00  0.00    +0.000 C 
ATOM      3  C   UNL     1       7.438   5.100  17.703  0.00  0.00    +0.000 C 
ATOM      4  O   UNL     1       6.842   4.250  18.653  0.00  0.00    +0.000 OA
ATOM      5  C   UNL     1       5.432   4.347  18.562  0.00  0.00    +0.000 C 
ATOM      6  C   UNL     1       4.835   3.465  19.679  0.00  0.00    +0.000 C 
ATOM      7  C   UNL     1       3.334   3.310  19.594  0.00  0.00    +0.000 A 
ATOM      8  C   UNL     1       2.573   2.817  20.689  0.00  0.00    +0.000 A 
ATOM      9  C   UNL     1       1.178   2.719  20.588  0.00  0.00    +0.000 A 
ATOM     10  C   UNL     1       0.522   3.100  19.418  0.00  0.00    +0.000 A 
ATOM     11  C   UNL     1       1.260   3.570  18.336  0.00  0.00    +0.000 A 
ATOM     12  C   UNL     1       2.658   3.653  18.407  0.00  0.00    +0.000 A 
ATOM     13  C   UNL     1       3.382   4.129  17.186  0.00  0.00    +0.000 C 
ATOM     14  C   UNL     1       4.914   3.918  17.165  0.00  0.00    +0.000 C 
ENDROOT
BRANCH   8  15
ATOM     15  O   UNL     1       3.147   2.441  21.852  0.00  0.00    +0.000 OA
ATOM     16  H   UNL     1       3.260   1.522  22.119  0.00  0.00    +0.000 HD
ENDBRANCH   8  15
BRANCH   1  17
ATOM     17  C   UNL     1       5.347   4.379  14.662  0.00  0.00    +0.000 C 
BRANCH  17  19
ATOM     18  C   UNL     1       6.252   3.475  12.396  0.00  0.00    +0.000 C 
ATOM     19  C   UNL     1       6.566   4.097  13.756  0.00  0.00    +0.000 C 
ENDBRANCH  17  19
ENDBRANCH   1  17
TORSDOF 3
ENDMDL
MODEL 2
REMARK VINA RESULT:      -7.5      1.191      1.206
REMARK  Name = 
REMARK  4 active torsions:
REMARK  status: ('A' for Active; 'I' for Inactive)
REMARK    1  A    between atoms: C_1  and  C_2
REMARK    2  A    between atoms: C_2  and  C_3
REMARK    3  A    between atoms: C_3  and  N_4
REMARK    4  A    between atoms: C_11  and  O_12
REMARK                            x       y       z     vdW  Elec       q    Type
REMARK                         _______ _______ _______ _____ _____    ______ ____
ROOT
ATOM      1  N   UNL     1       5.677   4.754  15.857  0.00  0.00    +0.000 NA
ATOM      2  C   UNL     1       6.939   5.481  16.148  0.00  0.00    +0.000 C 
ATOM      3  C   UNL     1       6.684   6.674  17.059  0.00  0.00    +0.000 C 
ATOM      4  O   UNL     1       6.160   6.236  18.290  0.00  0.00    +0.000 OA
ATOM      5  C   UNL     1       4.911   5.605  18.079  0.00  0.00    +0.000 C 
ATOM      6  C   UNL     1       4.346   5.224  19.465  0.00  0.00    +0.000 C 
ATOM      7  C   UNL     1       3.102   4.368  19.400  0.00  0.00    +0.000 A 
ATOM      8  C   UNL     1       2.263   4.187  20.533  0.00  0.00    +0.000 A 
ATOM      9  C   UNL     1       1.098   3.414  20.428  0.00  0.00    +0.000 A 
ATOM     10  C   UNL     1       0.749   2.814  19.218  0.00  0.00    +0.000 A 
ATOM     11  C   UNL     1       1.573   2.974  18.108  0.00  0.00    +0.000 A 
ATOM     12  C   UNL     1       2.756   3.722  18.197  0.00  0.00    +0.000 A 
ATOM     13  C   UNL     1       3.608   3.812  16.970  0.00  0.00    +0.000 C 
ATOM     14  C   UNL     1       5.040   4.362  17.161  0.00  0.00    +0.000 C 
ENDROOT
BRANCH   8  15
ATOM     15  O   UNL     1       2.539   4.748  21.729  0.00  0.00    +0.000 OA
ATOM     16  H   UNL     1       2.213   4.405  22.568  0.00  0.00    +0.000 HD
ENDBRANCH   8  15
BRANCH   1  17
ATOM     17  C   UNL     1       6.041   3.676  14.883  0.00  0.00    +0.000 C 
BRANCH  17  19
ATOM     18  C   UNL     1       5.851   3.258  12.322  0.00  0.00    +0.000 C 
ATOM     19  C   UNL     1       6.466   4.080  13.454  0.00  0.00    +0.000 C 
ENDBRANCH  17  19
ENDBRANCH   1  17
TORSDOF 3
ENDMDL
MODEL 3
REMARK VINA RESULT:      -7.4      2.121      3.333
REMARK  Name = 
REMARK  4 active torsions:
REMARK  status: ('A' for Active; 'I' for Inactive)
REMARK    1  A    between atoms: C_1  and  C_2
REMARK    2  A    between atoms: C_2  and  C_3
REMARK    3  A    between atoms: C_3  and  N_4
REMARK    4  A    between atoms: C_11  and  O_12
REMARK                            x       y       z     vdW  Elec       q    Type
REMARK                         _______ _______ _______ _____ _____    ______ ____
ROOT
ATOM      1  N   UNL     1       6.216   5.798  17.229  0.00  0.00    +0.000 NA
ATOM      2  C   UNL     1       6.617   5.477  15.836  0.00  0.00    +0.000 C 
ATOM      3  C   UNL     1       6.471   3.988  15.555  0.00  0.00    +0.000 C 
ATOM      4  O   UNL     1       5.127   3.599  15.703  0.00  0.00    +0.000 OA
ATOM      5  C   UNL     1       4.715   3.809  17.041  0.00  0.00    +0.000 C 
ATOM      6  C   UNL     1       3.266   3.287  17.165  0.00  0.00    +0.000 C 
ATOM      7  C   UNL     1       2.614   3.614  18.489  0.00  0.00    +0.000 A 
ATOM      8  C   UNL     1       1.427   2.958  18.917  0.00  0.00    +0.000 A 
ATOM      9  C   UNL     1       0.868   3.261  20.166  0.00  0.00    +0.000 A 
ATOM     10  C   UNL     1       1.464   4.207  21.001  0.00  0.00    +0.000 A 
ATOM     11  C   UNL     1       2.617   4.864  20.584  0.00  0.00    +0.000 A 
ATOM     12  C   UNL     1       3.179   4.595  19.328  0.00  0.00    +0.000 A 
ATOM     13  C   UNL     1       4.395   5.374  18.936  0.00  0.00    +0.000 C 
ATOM     14  C   UNL     1       4.814   5.301  17.449  0.00  0.00    +0.000 C 
ENDROOT
BRANCH   8  15
ATOM     15  O   UNL     1       0.809   2.027  18.161  0.00  0.00    +0.000 OA
ATOM     16  H   UNL     1       1.074   1.101  18.132  0.00  0.00    +0.000 HD
ENDBRANCH   8  15
BRANCH   1  17
ATOM     17  C   UNL     1       6.497   7.259  17.410  0.00  0.00    +0.000 C 
BRANCH  17  19
ATOM     18  C   UNL     1       8.142   9.196  17.964  0.00  0.00    +0.000 C 
ATOM     19  C   UNL     1       7.897   7.690  17.897  0.00  0.00    +0.000 C 
ENDBRANCH  17  19
ENDBRANCH   1  17
TORSDOF 3
ENDMDL
MODEL 4
REMARK VINA RESULT:      -7.1      2.000      6.243
REMARK  Name = 
REMARK  4 active torsions:
REMARK  status: ('A' for Active; 'I' for Inactive)
REMARK    1  A    between atoms: C_1  and  C_2
REMARK    2  A    between atoms: C_2  and  C_3
REMARK    3  A    between atoms: C_3  and  N_4
REMARK    4  A    between atoms: C_11  and  O_12
REMARK                            x       y       z     vdW  Elec       q    Type
REMARK                         _______ _______ _______ _____ _____    ______ ____
ROOT
ATOM      1  N   UNL     1       4.398   4.331  18.020  0.00  0.00    +0.000 NA
ATOM      2  C   UNL     1       4.794   5.183  19.170  0.00  0.00    +0.000 C 
ATOM      3  C   UNL     1       6.309   5.234  19.315  0.00  0.00    +0.000 C 
ATOM      4  O   UNL     1       6.884   5.797  18.160  0.00  0.00    +0.000 OA
ATOM      5  C   UNL     1       6.604   4.977  17.040  0.00  0.00    +0.000 C 
ATOM      6  C   UNL     1       7.329   5.594  15.823  0.00  0.00    +0.000 C 
ATOM      7  C   UNL     1       6.971   4.941  14.508  0.00  0.00    +0.000 A 
ATOM      8  C   UNL     1       7.756   5.142  13.340  0.00  0.00    +0.000 A 
ATOM      9  C   UNL     1       7.416   4.493  12.144  0.00  0.00    +0.000 A 
ATOM     10  C   UNL     1       6.309   3.647  12.085  0.00  0.00    +0.000 A 
ATOM     11  C   UNL     1       5.527   3.455  13.221  0.00  0.00    +0.000 A 
ATOM     12  C   UNL     1       5.834   4.114  14.420  0.00  0.00    +0.000 A 
ATOM     13  C   UNL     1       4.920   3.888  15.583  0.00  0.00    +0.000 C 
ATOM     14  C   UNL     1       5.081   4.849  16.785  0.00  0.00    +0.000 C 
ENDROOT
BRANCH   8  15
ATOM     15  O   UNL     1       8.845   5.939  13.334  0.00  0.00    +0.000 OA
ATOM     16  H   UNL     1       8.983   6.660  13.959  0.00  0.00    +0.000 HD
ENDBRANCH   8  15
BRANCH   1  17
ATOM     17  C   UNL     1       2.900   4.281  18.046  0.00  0.00    +0.000 C 
BRANCH  17  19
ATOM     18  C   UNL     1       1.074   2.605  18.834  0.00  0.00    +0.000 C 
ATOM     19  C   UNL     1       2.201   2.918  17.852  0.00  0.00    +0.000 C 
ENDBRANCH  17  19
ENDBRANCH   1  17
TORSDOF 3
ENDMDL
MODEL 5
REMARK VINA RESULT:      -6.7      2.222      3.939
REMARK  Name = 
REMARK  4 active torsions:
REMARK  status: ('A' for Active; 'I' for Inactive)
REMARK    1  A    between atoms: C_1  and  C_2
REMARK    2  A    between atoms: C_2  and  C_3
REMARK    3  A    between atoms: C_3  and  N_4
REMARK    4  A    between atoms: C_11  and  O_12
REMARK                            x       y       z     vdW  Elec       q    Type
REMARK                         _______ _______ _______ _____ _____    ______ ____
ROOT
ATOM      1  N   UNL     1       6.028   4.044  12.692  0.00  0.00    +0.000 NA
ATOM      2  C   UNL     1       7.352   4.338  12.086  0.00  0.00    +0.000 C 
ATOM      3  C   UNL     1       7.988   5.560  12.732  0.00  0.00    +0.000 C 
ATOM      4  O   UNL     1       8.199   5.325  14.104  0.00  0.00    +0.000 OA
ATOM      5  C   UNL     1       6.956   5.118  14.749  0.00  0.00    +0.000 C 
ATOM      6  C   UNL     1       7.241   4.952  16.258  0.00  0.00    +0.000 C 
ATOM      7  C   UNL     1       6.031   4.531  17.062  0.00  0.00    +0.000 A 
ATOM      8  C   UNL     1       6.006   4.637  18.479  0.00  0.00    +0.000 A 
ATOM      9  C   UNL     1       4.855   4.271  19.190  0.00  0.00    +0.000 A 
ATOM     10  C   UNL     1       3.726   3.798  18.521  0.00  0.00    +0.000 A 
ATOM     11  C   UNL     1       3.748   3.678  17.135  0.00  0.00    +0.000 A 
ATOM     12  C   UNL     1       4.897   4.014  16.405  0.00  0.00    +0.000 A 
ATOM     13  C   UNL     1       4.854   3.816  14.923  0.00  0.00    +0.000 C 
ATOM     14  C   UNL     1       6.207   3.888  14.176  0.00  0.00    +0.000 C 
ENDROOT
BRANCH   8  15
ATOM     15  O   UNL     1       7.061   5.097  19.184  0.00  0.00    +0.000 OA
ATOM     16  H   UNL     1       7.364   6.011  19.156  0.00  0.00    +0.000 HD
ENDBRANCH   8  15
BRANCH   1  17
ATOM     17  C   UNL     1       5.467   2.894  11.911  0.00  0.00    +0.000 C 
BRANCH  17  19
ATOM     18  C   UNL     1       3.702   3.914  10.295  0.00  0.00    +0.000 C 
ATOM     19  C   UNL     1       3.994   2.959  11.451  0.00  0.00    +0.000 C 
ENDBRANCH  17  19
ENDBRANCH   1  17
TORSDOF 3
ENDMDL
MODEL 6
REMARK VINA RESULT:      -6.5      2.216      3.901
REMARK  Name = 
REMARK  4 active torsions:
REMARK  status: ('A' for Active; 'I' for Inactive)
REMARK    1  A    between atoms: C_1  and  C_2
REMARK    2  A    between atoms: C_2  and  C_3
REMARK    3  A    between atoms: C_3  and  N_4
REMARK    4  A    between atoms: C_11  and  O_12
REMARK                            x       y       z     vdW  Elec       q    Type
REMARK                         _______ _______ _______ _____ _____    ______ ____
ROOT
ATOM      1  N   UNL     1       6.064   3.942  12.760  0.00  0.00    +0.000 NA
ATOM      2  C   UNL     1       7.381   4.261  12.153  0.00  0.00    +0.000 C 
ATOM      3  C   UNL     1       7.974   5.521  12.767  0.00  0.00    +0.000 C 
ATOM      4  O   UNL     1       8.184   5.332  14.146  0.00  0.00    +0.000 OA
ATOM      5  C   UNL     1       6.944   5.104  14.790  0.00  0.00    +0.000 C 
ATOM      6  C   UNL     1       7.224   4.991  16.305  0.00  0.00    +0.000 C 
ATOM      7  C   UNL     1       6.024   4.554  17.114  0.00  0.00    +0.000 A 
ATOM      8  C   UNL     1       5.986   4.701  18.527  0.00  0.00    +0.000 A 
ATOM      9  C   UNL     1       4.843   4.318  19.243  0.00  0.00    +0.000 A 
ATOM     10  C   UNL     1       3.734   3.791  18.582  0.00  0.00    +0.000 A 
ATOM     11  C   UNL     1       3.768   3.631  17.199  0.00  0.00    +0.000 A 
ATOM     12  C   UNL     1       4.910   3.983  16.467  0.00  0.00    +0.000 A 
ATOM     13  C   UNL     1       4.883   3.742  14.990  0.00  0.00    +0.000 C 
ATOM     14  C   UNL     1       6.238   3.835  14.249  0.00  0.00    +0.000 C 
ENDROOT
BRANCH   8  15
ATOM     15  O   UNL     1       7.022   5.214  19.225  0.00  0.00    +0.000 OA
ATOM     16  H   UNL     1       7.199   6.158  19.300  0.00  0.00    +0.000 HD
ENDBRANCH   8  15
BRANCH   1  17
ATOM     17  C   UNL     1       5.544   2.754  12.010  0.00  0.00    +0.000 C 
BRANCH  17  19
ATOM     18  C   UNL     1       6.174   0.368  11.185  0.00  0.00    +0.000 C 
ATOM     19  C   UNL     1       6.550   1.847  11.268  0.00  0.00    +0.000 C 
ENDBRANCH  17  19
ENDBRANCH   1  17
TORSDOF 3
ENDMDL
MODEL 7
REMARK VINA RESULT:      -6.5      2.857      6.248
REMARK  Name = 
REMARK  4 active torsions:
REMARK  status: ('A' for Active; 'I' for Inactive)
REMARK    1  A    between atoms: C_1  and  C_2
REMARK    2  A    between atoms: C_2  and  C_3
REMARK    3  A    between atoms: C_3  and  N_4
REMARK    4  A    between atoms: C_11  and  O_12
REMARK                            x       y       z     vdW  Elec       q    Type
REMARK                         _______ _______ _______ _____ _____    ______ ____
ROOT
ATOM      1  N   UNL     1       1.623   5.014  20.007  0.00  0.00    +0.000 NA
ATOM      2  C   UNL     1       1.250   3.783  20.749  0.00  0.00    +0.000 C 
ATOM      3  C   UNL     1       1.091   2.601  19.801  0.00  0.00    +0.000 C 
ATOM      4  O   UNL     1       2.310   2.342  19.147  0.00  0.00    +0.000 OA
ATOM      5  C   UNL     1       2.675   3.458  18.357  0.00  0.00    +0.000 C 
ATOM      6  C   UNL     1       3.968   3.086  17.599  0.00  0.00    +0.000 C 
ATOM      7  C   UNL     1       4.593   4.245  16.857  0.00  0.00    +0.000 A 
ATOM      8  C   UNL     1       5.583   4.042  15.858  0.00  0.00    +0.000 A 
ATOM      9  C   UNL     1       6.117   5.137  15.164  0.00  0.00    +0.000 A 
ATOM     10  C   UNL     1       5.686   6.434  15.444  0.00  0.00    +0.000 A 
ATOM     11  C   UNL     1       4.727   6.643  16.431  0.00  0.00    +0.000 A 
ATOM     12  C   UNL     1       4.199   5.564  17.155  0.00  0.00    +0.000 A 
ATOM     13  C   UNL     1       3.203   5.877  18.227  0.00  0.00    +0.000 C 
ATOM     14  C   UNL     1       2.870   4.734  19.215  0.00  0.00    +0.000 C 
ENDROOT
BRANCH   8  15
ATOM     15  O   UNL     1       6.035   2.812  15.533  0.00  0.00    +0.000 OA
ATOM     16  H   UNL     1       5.591   2.229  14.907  0.00  0.00    +0.000 HD
ENDBRANCH   8  15
BRANCH   1  17
ATOM     17  C   UNL     1       1.650   6.113  21.025  0.00  0.00    +0.000 C 
BRANCH  17  19
ATOM     18  C   UNL     1       0.862   8.555  21.453  0.00  0.00    +0.000 C 
ATOM     19  C   UNL     1       1.596   7.577  20.537  0.00  0.00    +0.000 C 
ENDBRANCH  17  19
ENDBRANCH   1  17
TORSDOF 3
ENDMDL
MODEL 8
REMARK VINA RESULT:      -6.3      4.171      5.973
REMARK  Name = 
REMARK  4 active torsions:
REMARK  status: ('A' for Active; 'I' for Inactive)
REMARK    1  A    between atoms: C_1  and  C_2
REMARK    2  A    between atoms: C_2  and  C_3
REMARK    3  A    between atoms: C_3  and  N_4
REMARK    4  A    between atoms: C_11  and  O_12
REMARK                            x       y       z     vdW  Elec       q    Type
REMARK                         _______ _______ _______ _____ _____    ______ ____
ROOT
ATOM      1  N   UNL     1       3.300   4.034  19.470  0.00  0.00    +0.000 NA
ATOM      2  C   UNL     1       4.268   3.538  18.459  0.00  0.00    +0.000 C 
ATOM      3  C   UNL     1       3.899   4.024  17.064  0.00  0.00    +0.000 C 
ATOM      4  O   UNL     1       3.931   5.430  17.020  0.00  0.00    +0.000 OA
ATOM      5  C   UNL     1       2.965   5.958  17.910  0.00  0.00    +0.000 C 
ATOM      6  C   UNL     1       2.986   7.495  17.756  0.00  0.00    +0.000 C 
ATOM      7  C   UNL     1       2.143   8.219  18.780  0.00  0.00    +0.000 A 
ATOM      8  C   UNL     1       1.778   9.583  18.614  0.00  0.00    +0.000 A 
ATOM      9  C   UNL     1       0.965  10.215  19.566  0.00  0.00    +0.000 A 
ATOM     10  C   UNL     1       0.508   9.518  20.684  0.00  0.00    +0.000 A 
ATOM     11  C   UNL     1       0.872   8.186  20.862  0.00  0.00    +0.000 A 
ATOM     12  C   UNL     1       1.704   7.542  19.936  0.00  0.00    +0.000 A 
ATOM     13  C   UNL     1       2.084   6.123  20.221  0.00  0.00    +0.000 C 
ATOM     14  C   UNL     1       3.237   5.533  19.376  0.00  0.00    +0.000 C 
ENDROOT
BRANCH   8  15
ATOM     15  O   UNL     1       2.179  10.309  17.549  0.00  0.00    +0.000 OA
ATOM     16  H   UNL     1       1.863  10.159  16.651  0.00  0.00    +0.000 HD
ENDBRANCH   8  15
BRANCH   1  17
ATOM     17  C   UNL     1       3.710   3.412  20.770  0.00  0.00    +0.000 C 
BRANCH  17  19
ATOM     18  C   UNL     1       1.219   2.820  21.230  0.00  0.00    +0.000 C 
ATOM     19  C   UNL     1       2.690   2.534  21.526  0.00  0.00    +0.000 C 
ENDBRANCH  17  19
ENDBRANCH   1  17
TORSDOF 3
ENDMDL
MODEL 9
REMARK VINA RESULT:      -6.3      3.602      4.451
REMARK  Name = 
REMARK  4 active torsions:
REMARK  status: ('A' for Active; 'I' for Inactive)
REMARK    1  A    between atoms: C_1  and  C_2
REMARK    2  A    between atoms: C_2  and  C_3
REMARK    3  A    between atoms: C_3  and  N_4
REMARK    4  A    between atoms: C_11  and  O_12
REMARK                            x       y       z     vdW  Elec       q    Type
REMARK                         _______ _______ _______ _____ _____    ______ ____
ROOT
ATOM      1  N   UNL     1       4.193   4.054  17.962  0.00  0.00    +0.000 NA
ATOM      2  C   UNL     1       4.035   2.783  18.712  0.00  0.00    +0.000 C 
ATOM      3  C   UNL     1       4.040   3.031  20.214  0.00  0.00    +0.000 C 
ATOM      4  O   UNL     1       2.961   3.863  20.569  0.00  0.00    +0.000 OA
ATOM      5  C   UNL     1       3.106   5.124  19.942  0.00  0.00    +0.000 C 
ATOM      6  C   UNL     1       1.946   6.019  20.432  0.00  0.00    +0.000 C 
ATOM      7  C   UNL     1       1.849   7.341  19.705  0.00  0.00    +0.000 A 
ATOM      8  C   UNL     1       1.072   8.416  20.216  0.00  0.00    +0.000 A 
ATOM      9  C   UNL     1       1.032   9.640  19.534  0.00  0.00    +0.000 A 
ATOM     10  C   UNL     1       1.749   9.818  18.351  0.00  0.00    +0.000 A 
ATOM     11  C   UNL     1       2.502   8.766  17.836  0.00  0.00    +0.000 A 
ATOM     12  C   UNL     1       2.535   7.526  18.488  0.00  0.00    +0.000 A 
ATOM     13  C   UNL     1       3.333   6.433  17.849  0.00  0.00    +0.000 C 
ATOM     14  C   UNL     1       3.111   5.003  18.396  0.00  0.00    +0.000 C 
ENDROOT
BRANCH   8  15
ATOM     15  O   UNL     1       0.365   8.311  21.360  0.00  0.00    +0.000 OA
ATOM     16  H   UNL     1       0.727   7.963  22.182  0.00  0.00    +0.000 HD
ENDBRANCH   8  15
BRANCH   1  17
ATOM     17  C   UNL     1       4.273   3.669  16.516  0.00  0.00    +0.000 C 
BRANCH  17  19
ATOM     18  C   UNL     1       5.655   5.315  15.050  0.00  0.00    +0.000 C 
ATOM     19  C   UNL     1       5.579   3.956  15.743  0.00  0.00    +0.000 C 
ENDBRANCH  17  19
ENDBRANCH   1  17
TORSDOF 3
ENDMDL
