MODEL 1
REMARK VINA RESULT:      -6.8      0.000      0.000
REMARK  Name = 
REMARK  4 active torsions:
REMARK  status: ('A' for Active; 'I' for Inactive)
REMARK    1  A    between atoms: N_1  and  C_2
REMARK    2  A    between atoms: C_2  and  C_3
REMARK    3  A    between atoms: C_6  and  C_7
REMARK    4  A    between atoms: C_10  and  N_11
REMARK                            x       y       z     vdW  Elec       q    Type
REMARK                         _______ _______ _______ _____ _____    ______ ____
ROOT
ATOM      1  C   UNL     1       3.189   6.859  18.336  0.00  0.00    +0.000 A 
ATOM      2  C   UNL     1       2.828   7.927  17.507  0.00  0.00    +0.000 A 
ATOM      3  C   UNL     1       1.929   8.911  17.946  0.00  0.00    +0.000 A 
ATOM      4  C   UNL     1       1.366   8.870  19.225  0.00  0.00    +0.000 A 
ATOM      5  C   UNL     1       1.712   7.776  20.033  0.00  0.00    +0.000 A 
ATOM      6  C   UNL     1       2.600   6.782  19.602  0.00  0.00    +0.000 A 
ENDROOT
BRANCH   4   7
ATOM      7  N   UNL     1       0.477   9.824  19.700  0.00  0.00    +0.000 N 
ATOM      8  C   UNL     1       0.698  11.267  19.499  0.00  0.00    +0.000 C 
ATOM      9  C   UNL     1       1.198  11.945  20.782  0.00  0.00    +0.000 C 
ATOM     10  O   UNL     1       0.326  11.680  21.893  0.00  0.00    +0.000 OA
ATOM     11  C   UNL     1       0.259  10.265  22.134  0.00  0.00    +0.000 C 
ATOM     12  C   UNL     1      -0.298   9.505  20.917  0.00  0.00    +0.000 C 
ENDBRANCH   4   7
BRANCH   1  16
ATOM     13  C   UNL     1       6.291   5.493  18.728  0.00  0.00    +0.000 C 
ATOM     14  N   UNL     1       5.564   4.624  19.354  0.00  0.00    +0.000 NA
ATOM     15  O   UNL     1       4.247   4.736  18.858  0.00  0.00    +0.000 OA
ATOM     16  C   UNL     1       4.184   5.805  17.895  0.00  0.00    +0.000 C 
ATOM     17  C   UNL     1       5.593   6.324  17.719  0.00  0.00    +0.000 C 
BRANCH  13  18
ATOM     18  C   UNL     1       7.773   5.618  18.968  0.00  0.00    +0.000 C 
BRANCH  18  19
ATOM     19  N   UNL     1       8.057   5.435  20.391  0.00  0.00    +0.000 NA
ATOM     20  H   UNL     1       7.381   5.973  20.933  0.00  0.00    +0.000 HD
ATOM     21  H   UNL     1       8.967   5.850  20.600  0.00  0.00    +0.000 HD
ENDBRANCH  18  19
ENDBRANCH  13  18
ENDBRANCH   1  16
TORSDOF 4
ENDMDL
MODEL 2
REMARK VINA RESULT:      -6.8      4.764      5.982
REMARK  Name = 
REMARK  4 active torsions:
REMARK  status: ('A' for Active; 'I' for Inactive)
REMARK    1  A    between atoms: N_1  and  C_2
REMARK    2  A    between atoms: C_2  and  C_3
REMARK    3  A    between atoms: C_6  and  C_7
REMARK    4  A    between atoms: C_10  and  N_11
REMARK                            x       y       z     vdW  Elec       q    Type
REMARK                         _______ _______ _______ _____ _____    ______ ____
ROOT
ATOM      1  C   UNL     1       5.705   4.528  17.076  0.00  0.00    +0.000 A 
ATOM      2  C   UNL     1       5.794   5.085  18.358  0.00  0.00    +0.000 A 
ATOM      3  C   UNL     1       4.679   5.123  19.207  0.00  0.00    +0.000 A 
ATOM      4  C   UNL     1       3.441   4.603  18.815  0.00  0.00    +0.000 A 
ATOM      5  C   UNL     1       3.359   4.079  17.516  0.00  0.00    +0.000 A 
ATOM      6  C   UNL     1       4.463   4.046  16.654  0.00  0.00    +0.000 A 
ENDROOT
BRANCH   4   7
ATOM      7  N   UNL     1       2.315   4.618  19.626  0.00  0.00    +0.000 N 
ATOM      8  C   UNL     1       2.406   4.741  21.091  0.00  0.00    +0.000 C 
ATOM      9  C   UNL     1       2.170   3.394  21.787  0.00  0.00    +0.000 C 
ATOM     10  O   UNL     1       0.932   2.795  21.370  0.00  0.00    +0.000 OA
ATOM     11  C   UNL     1       0.952   2.567  19.952  0.00  0.00    +0.000 C 
ATOM     12  C   UNL     1       1.120   3.879  19.165  0.00  0.00    +0.000 C 
ENDBRANCH   4   7
BRANCH   1  16
ATOM     13  C   UNL     1       6.872   4.524  13.870  0.00  0.00    +0.000 C 
ATOM     14  N   UNL     1       7.162   5.733  14.230  0.00  0.00    +0.000 NA
ATOM     15  O   UNL     1       7.237   5.749  15.640  0.00  0.00    +0.000 OA
ATOM     16  C   UNL     1       6.905   4.446  16.156  0.00  0.00    +0.000 C 
ATOM     17  C   UNL     1       6.705   3.538  14.963  0.00  0.00    +0.000 C 
BRANCH  13  18
ATOM     18  C   UNL     1       6.762   4.126  12.422  0.00  0.00    +0.000 C 
BRANCH  18  19
ATOM     19  N   UNL     1       6.099   2.826  12.317  0.00  0.00    +0.000 NA
ATOM     20  H   UNL     1       6.384   2.248  13.108  0.00  0.00    +0.000 HD
ATOM     21  H   UNL     1       6.449   2.345  11.487  0.00  0.00    +0.000 HD
ENDBRANCH  18  19
ENDBRANCH  13  18
ENDBRANCH   1  16
TORSDOF 4
ENDMDL
MODEL 3
REMARK VINA RESULT:      -6.8      1.674      6.923
REMARK  Name = 
REMARK  4 active torsions:
REMARK  status: ('A' for Active; 'I' for Inactive)
REMARK    1  A    between atoms: N_1  and  C_2
REMARK    2  A    between atoms: C_2  and  C_3
REMARK    3  A    between atoms: C_6  and  C_7
REMARK    4  A    between atoms: C_10  and  N_11
REMARK                            x       y       z     vdW  Elec       q    Type
REMARK                         _______ _______ _______ _____ _____    ______ ____
ROOT
ATOM      1  C   UNL     1       1.496   8.957  19.075  0.00  0.00    +0.000 A 
ATOM      2  C   UNL     1       2.136   8.977  17.831  0.00  0.00    +0.000 A 
ATOM      3  C   UNL     1       2.977   7.926  17.435  0.00  0.00    +0.000 A 
ATOM      4  C   UNL     1       3.203   6.818  18.258  0.00  0.00    +0.000 A 
ATOM      5  C   UNL     1       2.581   6.829  19.516  0.00  0.00    +0.000 A 
ATOM      6  C   UNL     1       1.748   7.878  19.927  0.00  0.00    +0.000 A 
ENDROOT
BRANCH   4   7
ATOM      7  N   UNL     1       4.023   5.757  17.903  0.00  0.00    +0.000 N 
ATOM      8  C   UNL     1       3.611   4.355  18.084  0.00  0.00    +0.000 C 
ATOM      9  C   UNL     1       4.298   3.715  19.298  0.00  0.00    +0.000 C 
ATOM     10  O   UNL     1       5.727   3.855  19.228  0.00  0.00    +0.000 OA
ATOM     11  C   UNL     1       6.081   5.246  19.196  0.00  0.00    +0.000 C 
ATOM     12  C   UNL     1       5.486   5.959  17.969  0.00  0.00    +0.000 C 
ENDBRANCH   4   7
BRANCH   1  16
ATOM     13  C   UNL     1      -0.030  10.583  21.657  0.00  0.00    +0.000 C 
ATOM     14  N   UNL     1       0.914  11.421  21.369  0.00  0.00    +0.000 NA
ATOM     15  O   UNL     1       1.301  11.181  20.033  0.00  0.00    +0.000 OA
ATOM     16  C   UNL     1       0.557  10.064  19.509  0.00  0.00    +0.000 C 
ATOM     17  C   UNL     1      -0.430   9.651  20.577  0.00  0.00    +0.000 C 
BRANCH  13  18
ATOM     18  C   UNL     1      -0.723  10.588  22.995  0.00  0.00    +0.000 C 
BRANCH  18  19
ATOM     19  N   UNL     1      -0.036   9.674  23.907  0.00  0.00    +0.000 NA
ATOM     20  H   UNL     1      -0.513   9.692  24.809  0.00  0.00    +0.000 HD
ATOM     21  H   UNL     1       0.903  10.035  24.088  0.00  0.00    +0.000 HD
ENDBRANCH  18  19
ENDBRANCH  13  18
ENDBRANCH   1  16
TORSDOF 4
ENDMDL
MODEL 4
REMARK VINA RESULT:      -6.6      1.279      1.775
REMARK  Name = 
REMARK  4 active torsions:
REMARK  status: ('A' for Active; 'I' for Inactive)
REMARK    1  A    between atoms: N_1  and  C_2
REMARK    2  A    between atoms: C_2  and  C_3
REMARK    3  A    between atoms: C_6  and  C_7
REMARK    4  A    between atoms: C_10  and  N_11
REMARK                            x       y       z     vdW  Elec       q    Type
REMARK                         _______ _______ _______ _____ _____    ______ ____
ROOT
ATOM      1  C   UNL     1       2.798   7.093  18.575  0.00  0.00    +0.000 A 
ATOM      2  C   UNL     1       2.528   8.113  17.656  0.00  0.00    +0.000 A 
ATOM      3  C   UNL     1       1.744   9.219  18.015  0.00  0.00    +0.000 A 
ATOM      4  C   UNL     1       1.208   9.352  19.300  0.00  0.00    +0.000 A 
ATOM      5  C   UNL     1       1.460   8.305  20.200  0.00  0.00    +0.000 A 
ATOM      6  C   UNL     1       2.232   7.190  19.850  0.00  0.00    +0.000 A 
ENDROOT
BRANCH   4   7
ATOM      7  N   UNL     1       0.431  10.431  19.696  0.00  0.00    +0.000 N 
ATOM      8  C   UNL     1      -1.000  10.530  19.361  0.00  0.00    +0.000 C 
ATOM      9  C   UNL     1      -1.245  11.525  18.219  0.00  0.00    +0.000 C 
ATOM     10  O   UNL     1      -0.665  12.809  18.504  0.00  0.00    +0.000 OA
ATOM     11  C   UNL     1       0.754  12.676  18.683  0.00  0.00    +0.000 C 
ATOM     12  C   UNL     1       1.096  11.742  19.857  0.00  0.00    +0.000 C 
ENDBRANCH   4   7
BRANCH   1  16
ATOM     13  C   UNL     1       5.863   5.610  18.801  0.00  0.00    +0.000 C 
ATOM     14  N   UNL     1       5.200   4.930  19.681  0.00  0.00    +0.000 NA
ATOM     15  O   UNL     1       3.830   5.038  19.357  0.00  0.00    +0.000 OA
ATOM     16  C   UNL     1       3.671   5.907  18.219  0.00  0.00    +0.000 C 
ATOM     17  C   UNL     1       5.059   6.282  17.753  0.00  0.00    +0.000 C 
BRANCH  13  18
ATOM     18  C   UNL     1       7.368   5.674  18.807  0.00  0.00    +0.000 C 
BRANCH  18  19
ATOM     19  N   UNL     1       7.862   5.484  20.170  0.00  0.00    +0.000 NA
ATOM     20  H   UNL     1       7.137   5.775  20.826  0.00  0.00    +0.000 HD
ATOM     21  H   UNL     1       8.645   6.122  20.328  0.00  0.00    +0.000 HD
ENDBRANCH  18  19
ENDBRANCH  13  18
ENDBRANCH   1  16
TORSDOF 4
ENDMDL
MODEL 5
REMARK VINA RESULT:      -6.6      1.673      7.058
REMARK  Name = 
REMARK  4 active torsions:
REMARK  status: ('A' for Active; 'I' for Inactive)
REMARK    1  A    between atoms: N_1  and  C_2
REMARK    2  A    between atoms: C_2  and  C_3
REMARK    3  A    between atoms: C_6  and  C_7
REMARK    4  A    between atoms: C_10  and  N_11
REMARK                            x       y       z     vdW  Elec       q    Type
REMARK                         _______ _______ _______ _____ _____    ______ ____
ROOT
ATOM      1  C   UNL     1       1.495   8.971  19.010  0.00  0.00    +0.000 A 
ATOM      2  C   UNL     1       1.659   7.890  19.884  0.00  0.00    +0.000 A 
ATOM      3  C   UNL     1       2.486   6.808  19.547  0.00  0.00    +0.000 A 
ATOM      4  C   UNL     1       3.181   6.767  18.334  0.00  0.00    +0.000 A 
ATOM      5  C   UNL     1       2.980   7.842  17.454  0.00  0.00    +0.000 A 
ATOM      6  C   UNL     1       2.149   8.923  17.775  0.00  0.00    +0.000 A 
ENDROOT
BRANCH   4   7
ATOM      7  N   UNL     1       4.011   5.718  17.964  0.00  0.00    +0.000 N 
ATOM      8  C   UNL     1       3.635   4.310  18.178  0.00  0.00    +0.000 C 
ATOM      9  C   UNL     1       4.378   3.703  19.375  0.00  0.00    +0.000 C 
ATOM     10  O   UNL     1       5.800   3.871  19.254  0.00  0.00    +0.000 OA
ATOM     11  C   UNL     1       6.123   5.269  19.191  0.00  0.00    +0.000 C 
ATOM     12  C   UNL     1       5.470   5.952  17.976  0.00  0.00    +0.000 C 
ENDBRANCH   4   7
BRANCH   1  16
ATOM     13  C   UNL     1       0.013  10.809  21.473  0.00  0.00    +0.000 C 
ATOM     14  N   UNL     1       1.033  11.556  21.195  0.00  0.00    +0.000 NA
ATOM     15  O   UNL     1       1.448  11.237  19.884  0.00  0.00    +0.000 OA
ATOM     16  C   UNL     1       0.635  10.166  19.368  0.00  0.00    +0.000 C 
ATOM     17  C   UNL     1      -0.421   9.873  20.410  0.00  0.00    +0.000 C 
BRANCH  13  18
ATOM     18  C   UNL     1      -0.725  10.918  22.781  0.00  0.00    +0.000 C 
BRANCH  18  19
ATOM     19  N   UNL     1      -0.786   9.606  23.423  0.00  0.00    +0.000 NA
ATOM     20  H   UNL     1       0.078   9.454  23.943  0.00  0.00    +0.000 HD
ATOM     21  H   UNL     1      -0.799   8.886  22.698  0.00  0.00    +0.000 HD
ENDBRANCH  18  19
ENDBRANCH  13  18
ENDBRANCH   1  16
TORSDOF 4
ENDMDL
MODEL 6
REMARK VINA RESULT:      -6.6      1.325      2.121
REMARK  Name = 
REMARK  4 active torsions:
REMARK  status: ('A' for Active; 'I' for Inactive)
REMARK    1  A    between atoms: N_1  and  C_2
REMARK    2  A    between atoms: C_2  and  C_3
REMARK    3  A    between atoms: C_6  and  C_7
REMARK    4  A    between atoms: C_10  and  N_11
REMARK                            x       y       z     vdW  Elec       q    Type
REMARK                         _______ _______ _______ _____ _____    ______ ____
ROOT
ATOM      1  C   UNL     1       2.748   7.220  18.506  0.00  0.00    +0.000 A 
ATOM      2  C   UNL     1       2.230   7.284  19.804  0.00  0.00    +0.000 A 
ATOM      3  C   UNL     1       1.440   8.368  20.214  0.00  0.00    +0.000 A 
ATOM      4  C   UNL     1       1.133   9.421  19.346  0.00  0.00    +0.000 A 
ATOM      5  C   UNL     1       1.687   9.359  18.058  0.00  0.00    +0.000 A 
ATOM      6  C   UNL     1       2.486   8.287  17.641  0.00  0.00    +0.000 A 
ENDROOT
BRANCH   4   7
ATOM      7  N   UNL     1       0.352  10.508  19.710  0.00  0.00    +0.000 N 
ATOM      8  C   UNL     1      -1.071  10.608  19.342  0.00  0.00    +0.000 C 
ATOM      9  C   UNL     1      -1.287  11.588  18.181  0.00  0.00    +0.000 C 
ATOM     10  O   UNL     1      -0.708  12.873  18.460  0.00  0.00    +0.000 OA
ATOM     11  C   UNL     1       0.706  12.737  18.672  0.00  0.00    +0.000 C 
ATOM     12  C   UNL     1       1.019  11.818  19.867  0.00  0.00    +0.000 C 
ENDBRANCH   4   7
BRANCH   1  16
ATOM     13  C   UNL     1       5.734   5.573  18.623  0.00  0.00    +0.000 C 
ATOM     14  N   UNL     1       5.016   4.827  19.401  0.00  0.00    +0.000 NA
ATOM     15  O   UNL     1       3.663   5.040  19.061  0.00  0.00    +0.000 OA
ATOM     16  C   UNL     1       3.575   6.043  18.032  0.00  0.00    +0.000 C 
ATOM     17  C   UNL     1       4.992   6.402  17.645  0.00  0.00    +0.000 C 
BRANCH  13  18
ATOM     18  C   UNL     1       7.239   5.562  18.671  0.00  0.00    +0.000 C 
BRANCH  18  19
ATOM     19  N   UNL     1       7.687   5.500  20.062  0.00  0.00    +0.000 NA
ATOM     20  H   UNL     1       7.178   6.199  20.602  0.00  0.00    +0.000 HD
ATOM     21  H   UNL     1       8.668   5.783  20.104  0.00  0.00    +0.000 HD
ENDBRANCH  18  19
ENDBRANCH  13  18
ENDBRANCH   1  16
TORSDOF 4
ENDMDL
MODEL 7
REMARK VINA RESULT:      -6.6      1.034      1.532
REMARK  Name = 
REMARK  4 active torsions:
REMARK  status: ('A' for Active; 'I' for Inactive)
REMARK    1  A    between atoms: N_1  and  C_2
REMARK    2  A    between atoms: C_2  and  C_3
REMARK    3  A    between atoms: C_6  and  C_7
REMARK    4  A    between atoms: C_10  and  N_11
REMARK                            x       y       z     vdW  Elec       q    Type
REMARK                         _______ _______ _______ _____ _____    ______ ____
ROOT
ATOM      1  C   UNL     1       2.850   6.861  18.699  0.00  0.00    +0.000 A 
ATOM      2  C   UNL     1       2.230   7.074  19.935  0.00  0.00    +0.000 A 
ATOM      3  C   UNL     1       1.504   8.248  20.186  0.00  0.00    +0.000 A 
ATOM      4  C   UNL     1       1.364   9.245  19.216  0.00  0.00    +0.000 A 
ATOM      5  C   UNL     1       2.018   9.032  17.993  0.00  0.00    +0.000 A 
ATOM      6  C   UNL     1       2.756   7.869  17.734  0.00  0.00    +0.000 A 
ENDROOT
BRANCH   4   7
ATOM      7  N   UNL     1       0.652  10.418  19.422  0.00  0.00    +0.000 N 
ATOM      8  C   UNL     1       1.268  11.746  19.260  0.00  0.00    +0.000 C 
ATOM      9  C   UNL     1       1.583  12.391  20.617  0.00  0.00    +0.000 C 
ATOM     10  O   UNL     1       0.423  12.431  21.464  0.00  0.00    +0.000 OA
ATOM     11  C   UNL     1      -0.054  11.097  21.704  0.00  0.00    +0.000 C 
ATOM     12  C   UNL     1      -0.459  10.392  20.397  0.00  0.00    +0.000 C 
ENDBRANCH   4   7
BRANCH   1  16
ATOM     13  C   UNL     1       5.843   5.413  17.934  0.00  0.00    +0.000 C 
ATOM     14  N   UNL     1       5.749   5.123  19.192  0.00  0.00    +0.000 NA
ATOM     15  O   UNL     1       4.382   5.173  19.538  0.00  0.00    +0.000 OA
ATOM     16  C   UNL     1       3.610   5.586  18.394  0.00  0.00    +0.000 C 
ATOM     17  C   UNL     1       4.571   5.705  17.233  0.00  0.00    +0.000 C 
BRANCH  13  18
ATOM     18  C   UNL     1       7.163   5.404  17.208  0.00  0.00    +0.000 C 
BRANCH  18  19
ATOM     19  N   UNL     1       7.941   4.236  17.616  0.00  0.00    +0.000 NA
ATOM     20  H   UNL     1       7.305   3.534  17.994  0.00  0.00    +0.000 HD
ATOM     21  H   UNL     1       8.548   4.502  18.395  0.00  0.00    +0.000 HD
ENDBRANCH  18  19
ENDBRANCH  13  18
ENDBRANCH   1  16
TORSDOF 4
ENDMDL
MODEL 8
REMARK VINA RESULT:      -6.5      1.726      6.975
REMARK  Name = 
REMARK  4 active torsions:
REMARK  status: ('A' for Active; 'I' for Inactive)
REMARK    1  A    between atoms: N_1  and  C_2
REMARK    2  A    between atoms: C_2  and  C_3
REMARK    3  A    between atoms: C_6  and  C_7
REMARK    4  A    between atoms: C_10  and  N_11
REMARK                            x       y       z     vdW  Elec       q    Type
REMARK                         _______ _______ _______ _____ _____    ______ ____
ROOT
ATOM      1  C   UNL     1       1.526   8.884  19.105  0.00  0.00    +0.000 A 
ATOM      2  C   UNL     1       2.197   8.883  17.877  0.00  0.00    +0.000 A 
ATOM      3  C   UNL     1       3.051   7.828  17.522  0.00  0.00    +0.000 A 
ATOM      4  C   UNL     1       3.261   6.737  18.372  0.00  0.00    +0.000 A 
ATOM      5  C   UNL     1       2.607   6.769  19.613  0.00  0.00    +0.000 A 
ATOM      6  C   UNL     1       1.760   7.822  19.983  0.00  0.00    +0.000 A 
ENDROOT
BRANCH   4   7
ATOM      7  N   UNL     1       4.093   5.672  18.057  0.00  0.00    +0.000 N 
ATOM      8  C   UNL     1       4.819   4.915  19.091  0.00  0.00    +0.000 C 
ATOM      9  C   UNL     1       6.304   5.301  19.136  0.00  0.00    +0.000 C 
ATOM     10  O   UNL     1       6.919   5.179  17.843  0.00  0.00    +0.000 OA
ATOM     11  C   UNL     1       6.261   6.045  16.905  0.00  0.00    +0.000 C 
ATOM     12  C   UNL     1       4.773   5.688  16.745  0.00  0.00    +0.000 C 
ENDBRANCH   4   7
BRANCH   1  16
ATOM     13  C   UNL     1      -0.034  10.583  21.620  0.00  0.00    +0.000 C 
ATOM     14  N   UNL     1       0.903  11.420  21.308  0.00  0.00    +0.000 NA
ATOM     15  O   UNL     1       1.301  11.137  19.984  0.00  0.00    +0.000 OA
ATOM     16  C   UNL     1       0.573   9.995  19.494  0.00  0.00    +0.000 C 
ATOM     17  C   UNL     1      -0.416   9.609  20.571  0.00  0.00    +0.000 C 
BRANCH  13  18
ATOM     18  C   UNL     1      -0.735  10.626  22.952  0.00  0.00    +0.000 C 
BRANCH  18  19
ATOM     19  N   UNL     1      -0.186   9.594  23.831  0.00  0.00    +0.000 NA
ATOM     20  H   UNL     1      -0.795   9.497  24.643  0.00  0.00    +0.000 HD
ATOM     21  H   UNL     1       0.710   9.918  24.199  0.00  0.00    +0.000 HD
ENDBRANCH  18  19
ENDBRANCH  13  18
ENDBRANCH   1  16
TORSDOF 4
ENDMDL
MODEL 9
REMARK VINA RESULT:      -6.5      1.817      2.406
REMARK  Name = 
REMARK  4 active torsions:
REMARK  status: ('A' for Active; 'I' for Inactive)
REMARK    1  A    between atoms: N_1  and  C_2
REMARK    2  A    between atoms: C_2  and  C_3
REMARK    3  A    between atoms: C_6  and  C_7
REMARK    4  A    between atoms: C_10  and  N_11
REMARK                            x       y       z     vdW  Elec       q    Type
REMARK                         _______ _______ _______ _____ _____    ______ ____
ROOT
ATOM      1  C   UNL     1       2.737   7.051  18.607  0.00  0.00    +0.000 A 
ATOM      2  C   UNL     1       2.179   7.214  19.881  0.00  0.00    +0.000 A 
ATOM      3  C   UNL     1       1.443   8.364  20.204  0.00  0.00    +0.000 A 
ATOM      4  C   UNL     1       1.232   9.386  19.273  0.00  0.00    +0.000 A 
ATOM      5  C   UNL     1       1.825   9.223  18.012  0.00  0.00    +0.000 A 
ATOM      6  C   UNL     1       2.571   8.084  17.680  0.00  0.00    +0.000 A 
ENDROOT
BRANCH   4   7
ATOM      7  N   UNL     1       0.508  10.536  19.551  0.00  0.00    +0.000 N 
ATOM      8  C   UNL     1       1.076  11.882  19.366  0.00  0.00    +0.000 C 
ATOM      9  C   UNL     1       1.476  12.515  20.705  0.00  0.00    +0.000 C 
ATOM     10  O   UNL     1       0.383  12.513  21.638  0.00  0.00    +0.000 OA
ATOM     11  C   UNL     1      -0.040  11.163  21.891  0.00  0.00    +0.000 C 
ATOM     12  C   UNL     1      -0.525  10.467  20.607  0.00  0.00    +0.000 C 
ENDBRANCH   4   7
BRANCH   1  16
ATOM     13  C   UNL     1       3.430   3.782  19.293  0.00  0.00    +0.000 C 
ATOM     14  N   UNL     1       2.614   3.651  18.296  0.00  0.00    +0.000 NA
ATOM     15  O   UNL     1       2.640   4.859  17.566  0.00  0.00    +0.000 OA
ATOM     16  C   UNL     1       3.505   5.803  18.225  0.00  0.00    +0.000 C 
ATOM     17  C   UNL     1       4.131   5.082  19.398  0.00  0.00    +0.000 C 
BRANCH  13  18
ATOM     18  C   UNL     1       3.694   2.659  20.261  0.00  0.00    +0.000 C 
BRANCH  18  19
ATOM     19  N   UNL     1       5.007   2.075  19.990  0.00  0.00    +0.000 NA
ATOM     20  H   UNL     1       5.217   1.389  20.716  0.00  0.00    +0.000 HD
ATOM     21  H   UNL     1       5.717   2.803  20.089  0.00  0.00    +0.000 HD
ENDBRANCH  18  19
ENDBRANCH  13  18
ENDBRANCH   1  16
TORSDOF 4
ENDMDL
