MODEL 1
REMARK VINA RESULT:      -7.2      0.000      0.000
REMARK  Name = 
REMARK  7 active torsions:
REMARK  status: ('A' for Active; 'I' for Inactive)
REMARK    1  A    between atoms: C_1  and  N_2
REMARK    2  A    between atoms: N_2  and  C_3
REMARK    3  A    between atoms: N_2  and  C_14
REMARK    4  A    between atoms: C_3  and  C_4
REMARK    5  A    between atoms: C_14  and  C_15
REMARK    6  A    between atoms: C_14  and  C_18
REMARK    7  A    between atoms: C_15  and  O_17
REMARK                            x       y       z     vdW  Elec       q    Type
REMARK                         _______ _______ _______ _____ _____    ______ ____
ROOT
ATOM      1  C   UNL     1       5.163   3.451  18.602  0.00  0.00    +0.000 C 
ATOM      2  N   UNL     1       4.969   4.761  17.982  0.00  0.00    +0.000 NA
ENDROOT
BRANCH   2   3
ATOM      3  C   UNL     1       4.426   5.730  18.953  0.00  0.00    +0.000 C 
BRANCH   3   4
ATOM      4  C   UNL     1       3.130   6.489  18.537  0.00  0.00    +0.000 C 
ATOM      5  C   UNL     1       2.308   7.088  19.682  0.00  0.00    +0.000 C 
ATOM      6  O   UNL     1       1.809   6.103  20.596  0.00  0.00    +0.000 OA
ATOM      7  C   UNL     1       1.556   4.894  20.002  0.00  0.00    +0.000 A 
ATOM      8  C   UNL     1       1.199   3.850  20.852  0.00  0.00    +0.000 A 
ATOM      9  C   UNL     1       1.098   2.552  20.348  0.00  0.00    +0.000 A 
ATOM     10  C   UNL     1       1.306   2.306  18.988  0.00  0.00    +0.000 A 
ATOM     11  C   UNL     1       1.614   3.358  18.125  0.00  0.00    +0.000 A 
ATOM     12  C   UNL     1       1.768   4.641  18.641  0.00  0.00    +0.000 A 
ATOM     13  O   UNL     1       2.281   5.591  17.789  0.00  0.00    +0.000 OA
ENDBRANCH   3   4
ENDBRANCH   2   3
BRANCH   2  14
ATOM     14  C   UNL     1       6.192   5.329  17.329  0.00  0.00    +0.000 C 
BRANCH  14  15
ATOM     15  C   UNL     1       6.264   4.897  15.866  0.00  0.00    +0.000 A 
ATOM     16  C   UNL     1       7.310   5.237  14.937  0.00  0.00    +0.000 A 
ATOM     17  C   UNL     1       7.111   4.707  13.682  0.00  0.00    +0.000 A 
ATOM     18  S   UNL     1       5.636   3.855  13.575  0.00  0.00    +0.000 S 
ATOM     19  C   UNL     1       5.264   4.200  15.204  0.00  0.00    +0.000 A 
ENDBRANCH  14  15
BRANCH  14  20
ATOM     20  C   UNL     1       7.474   5.071  18.156  0.00  0.00    +0.000 C 
ATOM     21  O   UNL     1       7.770   5.705  19.165  0.00  0.00    +0.000 OA
BRANCH  20  22
ATOM     22  O   UNL     1       8.237   4.027  17.746  0.00  0.00    +0.000 OA
ATOM     23  H   UNL     1       7.817   3.501  17.036  0.00  0.00    +0.000 HD
ENDBRANCH  20  22
ENDBRANCH  14  20
ENDBRANCH   2  14
TORSDOF 6
ENDMDL
MODEL 2
REMARK VINA RESULT:      -6.8      1.151      1.369
REMARK  Name = 
REMARK  7 active torsions:
REMARK  status: ('A' for Active; 'I' for Inactive)
REMARK    1  A    between atoms: C_1  and  N_2
REMARK    2  A    between atoms: N_2  and  C_3
REMARK    3  A    between atoms: N_2  and  C_14
REMARK    4  A    between atoms: C_3  and  C_4
REMARK    5  A    between atoms: C_14  and  C_15
REMARK    6  A    between atoms: C_14  and  C_18
REMARK    7  A    between atoms: C_15  and  O_17
REMARK                            x       y       z     vdW  Elec       q    Type
REMARK                         _______ _______ _______ _____ _____    ______ ____
ROOT
ATOM      1  C   UNL     1       5.024   3.335  17.004  0.00  0.00    +0.000 C 
ATOM      2  N   UNL     1       4.739   4.713  16.607  0.00  0.00    +0.000 NA
ENDROOT
BRANCH   2   3
ATOM      3  C   UNL     1       4.338   5.527  17.771  0.00  0.00    +0.000 C 
BRANCH   3   4
ATOM      4  C   UNL     1       2.925   6.183  17.713  0.00  0.00    +0.000 C 
ATOM      5  C   UNL     1       2.561   7.094  18.890  0.00  0.00    +0.000 C 
ATOM      6  O   UNL     1       2.533   6.409  20.149  0.00  0.00    +0.000 OA
ATOM      7  C   UNL     1       2.169   5.091  20.039  0.00  0.00    +0.000 A 
ATOM      8  C   UNL     1       2.251   4.329  21.201  0.00  0.00    +0.000 A 
ATOM      9  C   UNL     1       2.068   2.945  21.134  0.00  0.00    +0.000 A 
ATOM     10  C   UNL     1       1.756   2.334  19.917  0.00  0.00    +0.000 A 
ATOM     11  C   UNL     1       1.623   3.103  18.760  0.00  0.00    +0.000 A 
ATOM     12  C   UNL     1       1.860   4.473  18.821  0.00  0.00    +0.000 A 
ATOM     13  O   UNL     1       1.928   5.141  17.621  0.00  0.00    +0.000 OA
ENDBRANCH   3   4
ENDBRANCH   2   3
BRANCH   2  14
ATOM     14  C   UNL     1       5.855   5.394  15.875  0.00  0.00    +0.000 C 
BRANCH  14  15
ATOM     15  C   UNL     1       6.082   4.734  14.517  0.00  0.00    +0.000 A 
ATOM     16  C   UNL     1       7.254   4.880  13.692  0.00  0.00    +0.000 A 
ATOM     17  C   UNL     1       7.179   4.166  12.517  0.00  0.00    +0.000 A 
ATOM     18  S   UNL     1       5.681   3.369  12.348  0.00  0.00    +0.000 S 
ATOM     19  C   UNL     1       5.131   3.981  13.842  0.00  0.00    +0.000 A 
ENDBRANCH  14  15
BRANCH  14  20
ATOM     20  C   UNL     1       7.122   5.553  16.749  0.00  0.00    +0.000 C 
ATOM     21  O   UNL     1       7.740   4.607  17.229  0.00  0.00    +0.000 OA
BRANCH  20  22
ATOM     22  O   UNL     1       7.577   6.823  16.897  0.00  0.00    +0.000 OA
ATOM     23  H   UNL     1       8.459   6.868  17.317  0.00  0.00    +0.000 HD
ENDBRANCH  20  22
ENDBRANCH  14  20
ENDBRANCH   2  14
TORSDOF 6
ENDMDL
MODEL 3
REMARK VINA RESULT:      -6.6      1.069      1.311
REMARK  Name = 
REMARK  7 active torsions:
REMARK  status: ('A' for Active; 'I' for Inactive)
REMARK    1  A    between atoms: C_1  and  N_2
REMARK    2  A    between atoms: N_2  and  C_3
REMARK    3  A    between atoms: N_2  and  C_14
REMARK    4  A    between atoms: C_3  and  C_4
REMARK    5  A    between atoms: C_14  and  C_15
REMARK    6  A    between atoms: C_14  and  C_18
REMARK    7  A    between atoms: C_15  and  O_17
REMARK                            x       y       z     vdW  Elec       q    Type
REMARK                         _______ _______ _______ _____ _____    ______ ____
ROOT
ATOM      1  C   UNL     1       4.903   3.415  17.122  0.00  0.00    +0.000 C 
ATOM      2  N   UNL     1       4.710   4.824  16.783  0.00  0.00    +0.000 NA
ENDROOT
BRANCH   2   3
ATOM      3  C   UNL     1       4.293   5.600  17.967  0.00  0.00    +0.000 C 
BRANCH   3   4
ATOM      4  C   UNL     1       2.895   6.287  17.899  0.00  0.00    +0.000 C 
ATOM      5  C   UNL     1       2.491   7.107  19.127  0.00  0.00    +0.000 C 
ATOM      6  O   UNL     1       2.392   6.325  20.324  0.00  0.00    +0.000 OA
ATOM      7  C   UNL     1       2.012   5.028  20.092  0.00  0.00    +0.000 A 
ATOM      8  C   UNL     1       2.028   4.173  21.190  0.00  0.00    +0.000 A 
ATOM      9  C   UNL     1       1.825   2.804  21.004  0.00  0.00    +0.000 A 
ATOM     10  C   UNL     1       1.561   2.298  19.727  0.00  0.00    +0.000 A 
ATOM     11  C   UNL     1       1.495   3.159  18.632  0.00  0.00    +0.000 A 
ATOM     12  C   UNL     1       1.752   4.515  18.814  0.00  0.00    +0.000 A 
ATOM     13  O   UNL     1       1.887   5.276  17.677  0.00  0.00    +0.000 OA
ENDBRANCH   3   4
ENDBRANCH   2   3
BRANCH   2  14
ATOM     14  C   UNL     1       5.896   5.479  16.142  0.00  0.00    +0.000 C 
BRANCH  14  15
ATOM     15  C   UNL     1       6.142   4.891  14.754  0.00  0.00    +0.000 A 
ATOM     16  C   UNL     1       5.262   3.995  14.049  0.00  0.00    +0.000 A 
ATOM     17  C   UNL     1       5.744   3.627  12.813  0.00  0.00    +0.000 A 
ATOM     18  S   UNL     1       7.286   4.290  12.505  0.00  0.00    +0.000 S 
ATOM     19  C   UNL     1       7.310   5.063  14.026  0.00  0.00    +0.000 A 
ENDBRANCH  14  15
BRANCH  14  20
ATOM     20  C   UNL     1       7.130   5.505  17.075  0.00  0.00    +0.000 C 
ATOM     21  O   UNL     1       7.477   6.493  17.715  0.00  0.00    +0.000 OA
BRANCH  20  22
ATOM     22  O   UNL     1       7.783   4.324  17.217  0.00  0.00    +0.000 OA
ATOM     23  H   UNL     1       8.267   4.053  16.412  0.00  0.00    +0.000 HD
ENDBRANCH  20  22
ENDBRANCH  14  20
ENDBRANCH   2  14
TORSDOF 6
ENDMDL
MODEL 4
REMARK VINA RESULT:      -6.6      0.853      1.061
REMARK  Name = 
REMARK  7 active torsions:
REMARK  status: ('A' for Active; 'I' for Inactive)
REMARK    1  A    between atoms: C_1  and  N_2
REMARK    2  A    between atoms: N_2  and  C_3
REMARK    3  A    between atoms: N_2  and  C_14
REMARK    4  A    between atoms: C_3  and  C_4
REMARK    5  A    between atoms: C_14  and  C_15
REMARK    6  A    between atoms: C_14  and  C_18
REMARK    7  A    between atoms: C_15  and  O_17
REMARK                            x       y       z     vdW  Elec       q    Type
REMARK                         _______ _______ _______ _____ _____    ______ ____
ROOT
ATOM      1  C   UNL     1       5.781   4.059  18.407  0.00  0.00    +0.000 C 
ATOM      2  N   UNL     1       4.987   5.141  17.826  0.00  0.00    +0.000 NA
ENDROOT
BRANCH   2   3
ATOM      3  C   UNL     1       4.361   5.962  18.880  0.00  0.00    +0.000 C 
BRANCH   3   4
ATOM      4  C   UNL     1       2.973   6.589  18.549  0.00  0.00    +0.000 C 
ATOM      5  C   UNL     1       2.178   7.127  19.743  0.00  0.00    +0.000 C 
ATOM      6  O   UNL     1       1.840   6.115  20.700  0.00  0.00    +0.000 OA
ATOM      7  C   UNL     1       1.663   4.877  20.138  0.00  0.00    +0.000 A 
ATOM      8  C   UNL     1       1.467   3.819  21.021  0.00  0.00    +0.000 A 
ATOM      9  C   UNL     1       1.454   2.509  20.539  0.00  0.00    +0.000 A 
ATOM     10  C   UNL     1       1.591   2.261  19.170  0.00  0.00    +0.000 A 
ATOM     11  C   UNL     1       1.737   3.322  18.277  0.00  0.00    +0.000 A 
ATOM     12  C   UNL     1       1.803   4.622  18.768  0.00  0.00    +0.000 A 
ATOM     13  O   UNL     1       2.163   5.602  17.872  0.00  0.00    +0.000 OA
ENDBRANCH   3   4
ENDBRANCH   2   3
BRANCH   2  14
ATOM     14  C   UNL     1       5.739   6.024  16.877  0.00  0.00    +0.000 C 
BRANCH  14  15
ATOM     15  C   UNL     1       6.042   5.275  15.581  0.00  0.00    +0.000 A 
ATOM     16  C   UNL     1       7.271   5.347  14.833  0.00  0.00    +0.000 A 
ATOM     17  C   UNL     1       7.260   4.563  13.701  0.00  0.00    +0.000 A 
ATOM     18  S   UNL     1       5.758   3.786  13.477  0.00  0.00    +0.000 S 
ATOM     19  C   UNL     1       5.122   4.501  14.889  0.00  0.00    +0.000 A 
ENDBRANCH  14  15
BRANCH  14  20
ATOM     20  C   UNL     1       6.957   6.704  17.545  0.00  0.00    +0.000 C 
ATOM     21  O   UNL     1       7.770   6.107  18.245  0.00  0.00    +0.000 OA
BRANCH  20  22
ATOM     22  O   UNL     1       7.135   8.016  17.244  0.00  0.00    +0.000 OA
ATOM     23  H   UNL     1       8.057   8.232  17.002  0.00  0.00    +0.000 HD
ENDBRANCH  20  22
ENDBRANCH  14  20
ENDBRANCH   2  14
TORSDOF 6
ENDMDL
MODEL 5
REMARK VINA RESULT:      -6.6      2.000      2.673
REMARK  Name = 
REMARK  7 active torsions:
REMARK  status: ('A' for Active; 'I' for Inactive)
REMARK    1  A    between atoms: C_1  and  N_2
REMARK    2  A    between atoms: N_2  and  C_3
REMARK    3  A    between atoms: N_2  and  C_14
REMARK    4  A    between atoms: C_3  and  C_4
REMARK    5  A    between atoms: C_14  and  C_15
REMARK    6  A    between atoms: C_14  and  C_18
REMARK    7  A    between atoms: C_15  and  O_17
REMARK                            x       y       z     vdW  Elec       q    Type
REMARK                         _______ _______ _______ _____ _____    ______ ____
ROOT
ATOM      1  C   UNL     1       4.996   3.204  19.474  0.00  0.00    +0.000 C 
ATOM      2  N   UNL     1       4.868   4.231  18.441  0.00  0.00    +0.000 NA
ENDROOT
BRANCH   2   3
ATOM      3  C   UNL     1       4.586   5.550  19.039  0.00  0.00    +0.000 C 
BRANCH   3   4
ATOM      4  C   UNL     1       3.357   6.327  18.476  0.00  0.00    +0.000 C 
ATOM      5  C   UNL     1       2.473   7.025  19.514  0.00  0.00    +0.000 C 
ATOM      6  O   UNL     1       1.866   6.118  20.443  0.00  0.00    +0.000 OA
ATOM      7  C   UNL     1       1.612   4.883  19.905  0.00  0.00    +0.000 A 
ATOM      8  C   UNL     1       1.149   3.908  20.785  0.00  0.00    +0.000 A 
ATOM      9  C   UNL     1       1.035   2.585  20.353  0.00  0.00    +0.000 A 
ATOM     10  C   UNL     1       1.338   2.247  19.031  0.00  0.00    +0.000 A 
ATOM     11  C   UNL     1       1.753   3.230  18.134  0.00  0.00    +0.000 A 
ATOM     12  C   UNL     1       1.918   4.537  18.582  0.00  0.00    +0.000 A 
ATOM     13  O   UNL     1       2.532   5.413  17.719  0.00  0.00    +0.000 OA
ENDBRANCH   3   4
ENDBRANCH   2   3
BRANCH   2  14
ATOM     14  C   UNL     1       6.043   4.336  17.517  0.00  0.00    +0.000 C 
BRANCH  14  15
ATOM     15  C   UNL     1       6.821   5.622  17.788  0.00  0.00    +0.000 A 
ATOM     16  C   UNL     1       7.746   5.835  18.871  0.00  0.00    +0.000 A 
ATOM     17  C   UNL     1       8.301   7.096  18.866  0.00  0.00    +0.000 A 
ATOM     18  S   UNL     1       7.671   8.066  17.611  0.00  0.00    +0.000 S 
ATOM     19  C   UNL     1       6.655   6.803  17.079  0.00  0.00    +0.000 A 
ENDBRANCH  14  15
BRANCH  14  20
ATOM     20  C   UNL     1       5.652   4.102  16.038  0.00  0.00    +0.000 C 
ATOM     21  O   UNL     1       6.455   3.781  15.166  0.00  0.00    +0.000 OA
BRANCH  20  22
ATOM     22  O   UNL     1       4.327   4.192  15.760  0.00  0.00    +0.000 OA
ATOM     23  H   UNL     1       4.147   4.485  14.845  0.00  0.00    +0.000 HD
ENDBRANCH  20  22
ENDBRANCH  14  20
ENDBRANCH   2  14
TORSDOF 6
ENDMDL
MODEL 6
REMARK VINA RESULT:      -6.5      2.191      2.831
REMARK  Name = 
REMARK  7 active torsions:
REMARK  status: ('A' for Active; 'I' for Inactive)
REMARK    1  A    between atoms: C_1  and  N_2
REMARK    2  A    between atoms: N_2  and  C_3
REMARK    3  A    between atoms: N_2  and  C_14
REMARK    4  A    between atoms: C_3  and  C_4
REMARK    5  A    between atoms: C_14  and  C_15
REMARK    6  A    between atoms: C_14  and  C_18
REMARK    7  A    between atoms: C_15  and  O_17
REMARK                            x       y       z     vdW  Elec       q    Type
REMARK                         _______ _______ _______ _____ _____    ______ ____
ROOT
ATOM      1  C   UNL     1       4.279   2.733  16.955  0.00  0.00    +0.000 C 
ATOM      2  N   UNL     1       4.685   4.104  16.648  0.00  0.00    +0.000 NA
ENDROOT
BRANCH   2   3
ATOM      3  C   UNL     1       4.347   5.017  17.757  0.00  0.00    +0.000 C 
BRANCH   3   4
ATOM      4  C   UNL     1       3.039   5.851  17.605  0.00  0.00    +0.000 C 
ATOM      5  C   UNL     1       2.811   6.937  18.661  0.00  0.00    +0.000 C 
ATOM      6  O   UNL     1       2.694   6.419  19.992  0.00  0.00    +0.000 OA
ATOM      7  C   UNL     1       2.149   5.161  20.035  0.00  0.00    +0.000 A 
ATOM      8  C   UNL     1       2.130   4.539  21.280  0.00  0.00    +0.000 A 
ATOM      9  C   UNL     1       1.756   3.197  21.377  0.00  0.00    +0.000 A 
ATOM     10  C   UNL     1       1.356   2.494  20.237  0.00  0.00    +0.000 A 
ATOM     11  C   UNL     1       1.325   3.129  18.996  0.00  0.00    +0.000 A 
ATOM     12  C   UNL     1       1.752   4.450  18.896  0.00  0.00    +0.000 A 
ATOM     13  O   UNL     1       1.906   4.954  17.626  0.00  0.00    +0.000 OA
ENDBRANCH   3   4
ENDBRANCH   2   3
BRANCH   2  14
ATOM     14  C   UNL     1       6.131   4.260  16.287  0.00  0.00    +0.000 C 
BRANCH  14  15
ATOM     15  C   UNL     1       6.836   5.164  17.294  0.00  0.00    +0.000 A 
ATOM     16  C   UNL     1       7.108   6.568  17.122  0.00  0.00    +0.000 A 
ATOM     17  C   UNL     1       7.760   7.128  18.199  0.00  0.00    +0.000 A 
ATOM     18  S   UNL     1       8.121   5.970  19.398  0.00  0.00    +0.000 S 
ATOM     19  C   UNL     1       7.411   4.723  18.478  0.00  0.00    +0.000 A 
ENDBRANCH  14  15
BRANCH  14  20
ATOM     20  C   UNL     1       6.329   4.647  14.802  0.00  0.00    +0.000 C 
ATOM     21  O   UNL     1       7.350   5.171  14.368  0.00  0.00    +0.000 OA
BRANCH  20  22
ATOM     22  O   UNL     1       5.321   4.296  13.964  0.00  0.00    +0.000 OA
ATOM     23  H   UNL     1       4.892   3.452  14.212  0.00  0.00    +0.000 HD
ENDBRANCH  20  22
ENDBRANCH  14  20
ENDBRANCH   2  14
TORSDOF 6
ENDMDL
MODEL 7
REMARK VINA RESULT:      -6.5      2.432      5.781
REMARK  Name = 
REMARK  7 active torsions:
REMARK  status: ('A' for Active; 'I' for Inactive)
REMARK    1  A    between atoms: C_1  and  N_2
REMARK    2  A    between atoms: N_2  and  C_3
REMARK    3  A    between atoms: N_2  and  C_14
REMARK    4  A    between atoms: C_3  and  C_4
REMARK    5  A    between atoms: C_14  and  C_15
REMARK    6  A    between atoms: C_14  and  C_18
REMARK    7  A    between atoms: C_15  and  O_17
REMARK                            x       y       z     vdW  Elec       q    Type
REMARK                         _______ _______ _______ _____ _____    ______ ____
ROOT
ATOM      1  C   UNL     1       4.525   1.872  20.357  0.00  0.00    +0.000 C 
ATOM      2  N   UNL     1       4.181   3.254  20.022  0.00  0.00    +0.000 NA
ENDROOT
BRANCH   2   3
ATOM      3  C   UNL     1       4.891   3.694  18.805  0.00  0.00    +0.000 C 
BRANCH   3   4
ATOM      4  C   UNL     1       6.181   4.543  19.014  0.00  0.00    +0.000 C 
ATOM      5  C   UNL     1       5.989   6.063  19.018  0.00  0.00    +0.000 C 
ATOM      6  O   UNL     1       5.482   6.573  17.778  0.00  0.00    +0.000 OA
ATOM      7  C   UNL     1       5.876   5.838  16.690  0.00  0.00    +0.000 A 
ATOM      8  C   UNL     1       5.312   6.192  15.468  0.00  0.00    +0.000 A 
ATOM      9  C   UNL     1       5.525   5.385  14.348  0.00  0.00    +0.000 A 
ATOM     10  C   UNL     1       6.340   4.254  14.440  0.00  0.00    +0.000 A 
ATOM     11  C   UNL     1       6.948   3.924  15.652  0.00  0.00    +0.000 A 
ATOM     12  C   UNL     1       6.688   4.700  16.778  0.00  0.00    +0.000 A 
ATOM     13  O   UNL     1       7.135   4.209  17.982  0.00  0.00    +0.000 OA
ENDBRANCH   3   4
ENDBRANCH   2   3
BRANCH   2  14
ATOM     14  C   UNL     1       2.713   3.512  19.873  0.00  0.00    +0.000 C 
BRANCH  14  15
ATOM     15  C   UNL     1       2.469   4.939  19.390  0.00  0.00    +0.000 A 
ATOM     16  C   UNL     1       2.264   5.344  18.023  0.00  0.00    +0.000 A 
ATOM     17  C   UNL     1       2.068   6.700  17.885  0.00  0.00    +0.000 A 
ATOM     18  S   UNL     1       2.199   7.519  19.376  0.00  0.00    +0.000 S 
ATOM     19  C   UNL     1       2.520   6.062  20.203  0.00  0.00    +0.000 A 
ENDBRANCH  14  15
BRANCH  14  20
ATOM     20  C   UNL     1       1.911   3.096  21.129  0.00  0.00    +0.000 C 
ATOM     21  O   UNL     1       2.359   3.156  22.271  0.00  0.00    +0.000 OA
BRANCH  20  22
ATOM     22  O   UNL     1       0.624   2.726  20.909  0.00  0.00    +0.000 OA
ATOM     23  H   UNL     1       0.202   2.322  21.693  0.00  0.00    +0.000 HD
ENDBRANCH  20  22
ENDBRANCH  14  20
ENDBRANCH   2  14
TORSDOF 6
ENDMDL
MODEL 8
REMARK VINA RESULT:      -6.4      2.525      4.131
REMARK  Name = 
REMARK  7 active torsions:
REMARK  status: ('A' for Active; 'I' for Inactive)
REMARK    1  A    between atoms: C_1  and  N_2
REMARK    2  A    between atoms: N_2  and  C_3
REMARK    3  A    between atoms: N_2  and  C_14
REMARK    4  A    between atoms: C_3  and  C_4
REMARK    5  A    between atoms: C_14  and  C_15
REMARK    6  A    between atoms: C_14  and  C_18
REMARK    7  A    between atoms: C_15  and  O_17
REMARK                            x       y       z     vdW  Elec       q    Type
REMARK                         _______ _______ _______ _____ _____    ______ ____
ROOT
ATOM      1  C   UNL     1       5.672   3.923  15.898  0.00  0.00    +0.000 C 
ATOM      2  N   UNL     1       4.803   4.496  16.926  0.00  0.00    +0.000 NA
ENDROOT
BRANCH   2   3
ATOM      3  C   UNL     1       4.695   3.594  18.089  0.00  0.00    +0.000 C 
BRANCH   3   4
ATOM      4  C   UNL     1       4.038   2.203  17.839  0.00  0.00    +0.000 C 
ATOM      5  C   UNL     1       2.722   2.215  17.056  0.00  0.00    +0.000 C 
ATOM      6  O   UNL     1       1.675   2.936  17.718  0.00  0.00    +0.000 OA
ATOM      7  C   UNL     1       1.770   2.892  19.085  0.00  0.00    +0.000 A 
ATOM      8  C   UNL     1       0.868   3.682  19.793  0.00  0.00    +0.000 A 
ATOM      9  C   UNL     1       1.013   3.828  21.175  0.00  0.00    +0.000 A 
ATOM     10  C   UNL     1       2.029   3.148  21.852  0.00  0.00    +0.000 A 
ATOM     11  C   UNL     1       2.903   2.316  21.152  0.00  0.00    +0.000 A 
ATOM     12  C   UNL     1       2.789   2.216  19.769  0.00  0.00    +0.000 A 
ATOM     13  O   UNL     1       3.803   1.560  19.112  0.00  0.00    +0.000 OA
ENDBRANCH   3   4
ENDBRANCH   2   3
BRANCH   2  14
ATOM     14  C   UNL     1       5.199   5.867  17.383  0.00  0.00    +0.000 C 
BRANCH  14  15
ATOM     15  C   UNL     1       4.019   6.565  18.056  0.00  0.00    +0.000 A 
ATOM     16  C   UNL     1       3.402   6.172  19.296  0.00  0.00    +0.000 A 
ATOM     17  C   UNL     1       2.356   6.989  19.661  0.00  0.00    +0.000 A 
ATOM     18  S   UNL     1       2.048   8.193  18.493  0.00  0.00    +0.000 S 
ATOM     19  C   UNL     1       3.310   7.619  17.499  0.00  0.00    +0.000 A 
ENDBRANCH  14  15
BRANCH  14  20
ATOM     20  C   UNL     1       5.897   6.680  16.267  0.00  0.00    +0.000 C 
ATOM     21  O   UNL     1       5.405   6.875  15.159  0.00  0.00    +0.000 OA
BRANCH  20  22
ATOM     22  O   UNL     1       7.079   7.253  16.611  0.00  0.00    +0.000 OA
ATOM     23  H   UNL     1       6.986   8.186  16.889  0.00  0.00    +0.000 HD
ENDBRANCH  20  22
ENDBRANCH  14  20
ENDBRANCH   2  14
TORSDOF 6
ENDMDL
MODEL 9
REMARK VINA RESULT:      -6.4      2.128      6.134
REMARK  Name = 
REMARK  7 active torsions:
REMARK  status: ('A' for Active; 'I' for Inactive)
REMARK    1  A    between atoms: C_1  and  N_2
REMARK    2  A    between atoms: N_2  and  C_3
REMARK    3  A    between atoms: N_2  and  C_14
REMARK    4  A    between atoms: C_3  and  C_4
REMARK    5  A    between atoms: C_14  and  C_15
REMARK    6  A    between atoms: C_14  and  C_18
REMARK    7  A    between atoms: C_15  and  O_17
REMARK                            x       y       z     vdW  Elec       q    Type
REMARK                         _______ _______ _______ _____ _____    ______ ____
ROOT
ATOM      1  C   UNL     1       2.293   7.827  18.192  0.00  0.00    +0.000 C 
ATOM      2  N   UNL     1       2.830   6.536  18.621  0.00  0.00    +0.000 NA
ENDROOT
BRANCH   2   3
ATOM      3  C   UNL     1       4.297   6.496  18.464  0.00  0.00    +0.000 C 
BRANCH   3   4
ATOM      4  C   UNL     1       5.035   5.275  19.093  0.00  0.00    +0.000 C 
ATOM      5  C   UNL     1       6.538   5.453  19.334  0.00  0.00    +0.000 C 
ATOM      6  O   UNL     1       7.282   5.678  18.130  0.00  0.00    +0.000 OA
ATOM      7  C   UNL     1       6.735   5.063  17.034  0.00  0.00    +0.000 A 
ATOM      8  C   UNL     1       7.325   5.348  15.806  0.00  0.00    +0.000 A 
ATOM      9  C   UNL     1       6.721   4.904  14.628  0.00  0.00    +0.000 A 
ATOM     10  C   UNL     1       5.555   4.135  14.681  0.00  0.00    +0.000 A 
ATOM     11  C   UNL     1       4.988   3.805  15.912  0.00  0.00    +0.000 A 
ATOM     12  C   UNL     1       5.563   4.297  17.081  0.00  0.00    +0.000 A 
ATOM     13  O   UNL     1       4.846   4.123  18.241  0.00  0.00    +0.000 OA
ENDBRANCH   3   4
ENDBRANCH   2   3
BRANCH   2  14
ATOM     14  C   UNL     1       2.459   6.140  20.017  0.00  0.00    +0.000 C 
BRANCH  14  15
ATOM     15  C   UNL     1       1.905   4.718  20.038  0.00  0.00    +0.000 A 
ATOM     16  C   UNL     1       1.873   3.841  21.180  0.00  0.00    +0.000 A 
ATOM     17  C   UNL     1       1.314   2.613  20.903  0.00  0.00    +0.000 A 
ATOM     18  S   UNL     1       0.885   2.463  19.259  0.00  0.00    +0.000 S 
ATOM     19  C   UNL     1       1.450   4.036  18.918  0.00  0.00    +0.000 A 
ENDBRANCH  14  15
BRANCH  14  20
ATOM     20  C   UNL     1       1.575   7.201  20.715  0.00  0.00    +0.000 C 
ATOM     21  O   UNL     1       0.364   7.080  20.872  0.00  0.00    +0.000 OA
BRANCH  20  22
ATOM     22  O   UNL     1       2.237   8.268  21.233  0.00  0.00    +0.000 OA
ATOM     23  H   UNL     1       2.179   8.318  22.208  0.00  0.00    +0.000 HD
ENDBRANCH  20  22
ENDBRANCH  14  20
ENDBRANCH   2  14
TORSDOF 6
ENDMDL
