MODEL 1
REMARK VINA RESULT:      -7.2      0.000      0.000
REMARK  Name = 
REMARK  7 active torsions:
REMARK  status: ('A' for Active; 'I' for Inactive)
REMARK    1  A    between atoms: C_1  and  C_2
REMARK    2  A    between atoms: C_5  and  C_6
REMARK    3  A    between atoms: C_9  and  C_10
REMARK    4  A    between atoms: N_12  and  C_13
REMARK    5  A    between atoms: C_13  and  C_14
REMARK    6  A    between atoms: C_14  and  C_15
REMARK    7  A    between atoms: C_15  and  N_16
REMARK                            x       y       z     vdW  Elec       q    Type
REMARK                         _______ _______ _______ _____ _____    ______ ____
ROOT
ATOM      1  C   UNL     1       3.804   6.921  17.914  0.00  0.00    +0.000 C 
ATOM      2  O   UNL     1       3.304   7.966  17.496  0.00  0.00    +0.000 OA
ATOM      3  N   UNL     1       3.302   6.277  19.033  0.00  0.00    +0.000 N 
ATOM      4  H   UNL     1       3.734   5.400  19.304  0.00  0.00    +0.000 HD
ENDROOT
BRANCH   1   8
ATOM      5  C   UNL     1       6.246   5.304  15.769  0.00  0.00    +0.000 A 
ATOM      6  C   UNL     1       7.030   5.084  16.884  0.00  0.00    +0.000 A 
ATOM      7  S   UNL     1       6.275   5.745  18.271  0.00  0.00    +0.000 S 
ATOM      8  C   UNL     1       4.956   6.259  17.297  0.00  0.00    +0.000 A 
ATOM      9  N   UNL     1       5.057   5.994  16.004  0.00  0.00    +0.000 NA
BRANCH   5  14
ATOM     10  C   UNL     1       6.370   2.717  11.581  0.00  0.00    +0.000 C 
ATOM     11  C   UNL     1       6.718   3.704  12.622  0.00  0.00    +0.000 A 
ATOM     12  N   UNL     1       7.576   4.706  12.404  0.00  0.00    +0.000 NA
ATOM     13  O   UNL     1       7.521   5.436  13.593  0.00  0.00    +0.000 OA
ATOM     14  C   UNL     1       6.632   4.794  14.415  0.00  0.00    +0.000 A 
ATOM     15  N   UNL     1       6.134   3.703  13.862  0.00  0.00    +0.000 NA
ENDBRANCH   5  14
ENDBRANCH   1   8
BRANCH   3  16
ATOM     16  C   UNL     1       2.183   6.813  19.789  0.00  0.00    +0.000 C 
BRANCH  16  17
ATOM     17  C   UNL     1       1.739   5.859  20.894  0.00  0.00    +0.000 C 
BRANCH  17  18
ATOM     18  C   UNL     1       1.266   4.497  20.357  0.00  0.00    +0.000 C 
BRANCH  18  19
ATOM     19  N   UNL     1       2.269   3.764  19.562  0.00  0.00    +0.000 NA
ATOM     20  C   UNL     1       3.121   2.915  20.414  0.00  0.00    +0.000 C 
ATOM     21  C   UNL     1       4.181   2.175  19.600  0.00  0.00    +0.000 C 
ATOM     22  C   UNL     1       3.548   1.344  18.494  0.00  0.00    +0.000 C 
ATOM     23  C   UNL     1       2.628   2.213  17.648  0.00  0.00    +0.000 C 
ATOM     24  C   UNL     1       1.611   2.963  18.516  0.00  0.00    +0.000 C 
ENDBRANCH  18  19
ENDBRANCH  17  18
ENDBRANCH  16  17
ENDBRANCH   3  16
TORSDOF 6
ENDMDL
MODEL 2
REMARK VINA RESULT:      -7.0      5.115      8.669
REMARK  Name = 
REMARK  7 active torsions:
REMARK  status: ('A' for Active; 'I' for Inactive)
REMARK    1  A    between atoms: C_1  and  C_2
REMARK    2  A    between atoms: C_5  and  C_6
REMARK    3  A    between atoms: C_9  and  C_10
REMARK    4  A    between atoms: N_12  and  C_13
REMARK    5  A    between atoms: C_13  and  C_14
REMARK    6  A    between atoms: C_14  and  C_15
REMARK    7  A    between atoms: C_15  and  N_16
REMARK                            x       y       z     vdW  Elec       q    Type
REMARK                         _______ _______ _______ _____ _____    ______ ____
ROOT
ATOM      1  C   UNL     1       6.982   6.380  16.844  0.00  0.00    +0.000 C 
ATOM      2  O   UNL     1       7.789   6.280  15.920  0.00  0.00    +0.000 OA
ATOM      3  N   UNL     1       6.970   7.489  17.675  0.00  0.00    +0.000 N 
ATOM      4  H   UNL     1       6.256   7.529  18.395  0.00  0.00    +0.000 HD
ENDROOT
BRANCH   1   8
ATOM      5  C   UNL     1       4.675   4.016  18.347  0.00  0.00    +0.000 A 
ATOM      6  C   UNL     1       4.350   3.576  17.079  0.00  0.00    +0.000 A 
ATOM      7  S   UNL     1       5.219   4.475  15.909  0.00  0.00    +0.000 S 
ATOM      8  C   UNL     1       5.973   5.368  17.167  0.00  0.00    +0.000 A 
ATOM      9  N   UNL     1       5.599   5.058  18.399  0.00  0.00    +0.000 NA
BRANCH   5  14
ATOM     10  C   UNL     1       1.577   2.646  21.923  0.00  0.00    +0.000 C 
ATOM     11  C   UNL     1       2.808   2.784  21.121  0.00  0.00    +0.000 A 
ATOM     12  N   UNL     1       3.885   2.016  21.320  0.00  0.00    +0.000 NA
ATOM     13  O   UNL     1       4.748   2.406  20.293  0.00  0.00    +0.000 OA
ATOM     14  C   UNL     1       4.102   3.380  19.577  0.00  0.00    +0.000 A 
ATOM     15  N   UNL     1       2.911   3.662  20.073  0.00  0.00    +0.000 NA
ENDBRANCH   5  14
ENDBRANCH   1   8
BRANCH   3  16
ATOM     16  C   UNL     1       7.923   8.574  17.520  0.00  0.00    +0.000 C 
BRANCH  16  17
ATOM     17  C   UNL     1       8.659   8.872  18.824  0.00  0.00    +0.000 C 
BRANCH  17  18
ATOM     18  C   UNL     1       8.800  10.378  19.103  0.00  0.00    +0.000 C 
BRANCH  18  19
ATOM     19  N   UNL     1      10.133  10.938  18.812  0.00  0.00    +0.000 NA
ATOM     20  C   UNL     1      10.063  12.007  17.800  0.00  0.00    +0.000 C 
ATOM     21  C   UNL     1      11.445  12.571  17.473  0.00  0.00    +0.000 C 
ATOM     22  C   UNL     1      12.145  13.078  18.724  0.00  0.00    +0.000 C 
ATOM     23  C   UNL     1      12.168  11.988  19.788  0.00  0.00    +0.000 C 
ATOM     24  C   UNL     1      10.765  11.429  20.049  0.00  0.00    +0.000 C 
ENDBRANCH  18  19
ENDBRANCH  17  18
ENDBRANCH  16  17
ENDBRANCH   3  16
TORSDOF 6
ENDMDL
MODEL 3
REMARK VINA RESULT:      -7.0      0.532      1.111
REMARK  Name = 
REMARK  7 active torsions:
REMARK  status: ('A' for Active; 'I' for Inactive)
REMARK    1  A    between atoms: C_1  and  C_2
REMARK    2  A    between atoms: C_5  and  C_6
REMARK    3  A    between atoms: C_9  and  C_10
REMARK    4  A    between atoms: N_12  and  C_13
REMARK    5  A    between atoms: C_13  and  C_14
REMARK    6  A    between atoms: C_14  and  C_15
REMARK    7  A    between atoms: C_15  and  N_16
REMARK                            x       y       z     vdW  Elec       q    Type
REMARK                         _______ _______ _______ _____ _____    ______ ____
ROOT
ATOM      1  C   UNL     1       3.852   7.000  17.999  0.00  0.00    +0.000 C 
ATOM      2  O   UNL     1       3.382   8.069  17.608  0.00  0.00    +0.000 OA
ATOM      3  N   UNL     1       3.331   6.342  19.102  0.00  0.00    +0.000 N 
ATOM      4  H   UNL     1       3.738   5.447  19.350  0.00  0.00    +0.000 HD
ENDROOT
BRANCH   1   8
ATOM      5  C   UNL     1       6.237   5.341  15.824  0.00  0.00    +0.000 A 
ATOM      6  C   UNL     1       7.040   5.122  16.926  0.00  0.00    +0.000 A 
ATOM      7  S   UNL     1       6.318   5.803  18.320  0.00  0.00    +0.000 S 
ATOM      8  C   UNL     1       4.986   6.321  17.367  0.00  0.00    +0.000 A 
ATOM      9  N   UNL     1       5.060   6.045  16.074  0.00  0.00    +0.000 NA
BRANCH   5  14
ATOM     10  C   UNL     1       6.233   2.748  11.637  0.00  0.00    +0.000 C 
ATOM     11  C   UNL     1       6.624   3.723  12.674  0.00  0.00    +0.000 A 
ATOM     12  N   UNL     1       7.517   4.693  12.447  0.00  0.00    +0.000 NA
ATOM     13  O   UNL     1       7.498   5.426  13.636  0.00  0.00    +0.000 OA
ATOM     14  C   UNL     1       6.593   4.817  14.467  0.00  0.00    +0.000 A 
ATOM     15  N   UNL     1       6.052   3.744  13.919  0.00  0.00    +0.000 NA
ENDBRANCH   5  14
ENDBRANCH   1   8
BRANCH   3  16
ATOM     16  C   UNL     1       2.226   6.890  19.870  0.00  0.00    +0.000 C 
BRANCH  16  17
ATOM     17  C   UNL     1       1.536   5.819  20.711  0.00  0.00    +0.000 C 
BRANCH  17  18
ATOM     18  C   UNL     1       2.486   4.686  21.137  0.00  0.00    +0.000 C 
BRANCH  18  19
ATOM     19  N   UNL     1       2.367   3.449  20.343  0.00  0.00    +0.000 NA
ATOM     20  C   UNL     1       1.240   3.518  19.395  0.00  0.00    +0.000 C 
ATOM     21  C   UNL     1       1.095   2.228  18.590  0.00  0.00    +0.000 C 
ATOM     22  C   UNL     1       2.382   1.890  17.853  0.00  0.00    +0.000 C 
ATOM     23  C   UNL     1       3.553   1.870  18.826  0.00  0.00    +0.000 C 
ATOM     24  C   UNL     1       3.629   3.169  19.636  0.00  0.00    +0.000 C 
ENDBRANCH  18  19
ENDBRANCH  17  18
ENDBRANCH  16  17
ENDBRANCH   3  16
TORSDOF 6
ENDMDL
MODEL 4
REMARK VINA RESULT:      -7.0      2.788      4.731
REMARK  Name = 
REMARK  7 active torsions:
REMARK  status: ('A' for Active; 'I' for Inactive)
REMARK    1  A    between atoms: C_1  and  C_2
REMARK    2  A    between atoms: C_5  and  C_6
REMARK    3  A    between atoms: C_9  and  C_10
REMARK    4  A    between atoms: N_12  and  C_13
REMARK    5  A    between atoms: C_13  and  C_14
REMARK    6  A    between atoms: C_14  and  C_15
REMARK    7  A    between atoms: C_15  and  N_16
REMARK                            x       y       z     vdW  Elec       q    Type
REMARK                         _______ _______ _______ _____ _____    ______ ____
ROOT
ATOM      1  C   UNL     1       4.090   4.367  19.506  0.00  0.00    +0.000 C 
ATOM      2  O   UNL     1       3.750   3.210  19.757  0.00  0.00    +0.000 OA
ATOM      3  N   UNL     1       3.436   5.450  20.070  0.00  0.00    +0.000 N 
ATOM      4  H   UNL     1       3.788   6.377  19.853  0.00  0.00    +0.000 HD
ENDROOT
BRANCH   1   8
ATOM      5  C   UNL     1       6.398   4.913  16.759  0.00  0.00    +0.000 A 
ATOM      6  C   UNL     1       7.304   5.425  17.666  0.00  0.00    +0.000 A 
ATOM      7  S   UNL     1       6.626   5.419  19.237  0.00  0.00    +0.000 S 
ATOM      8  C   UNL     1       5.189   4.722  18.605  0.00  0.00    +0.000 A 
ATOM      9  N   UNL     1       5.173   4.520  17.297  0.00  0.00    +0.000 NA
BRANCH   5  14
ATOM     10  C   UNL     1       6.377   3.415  12.067  0.00  0.00    +0.000 C 
ATOM     11  C   UNL     1       6.756   4.128  13.302  0.00  0.00    +0.000 A 
ATOM     12  N   UNL     1       7.595   5.170  13.301  0.00  0.00    +0.000 NA
ATOM     13  O   UNL     1       7.582   5.591  14.632  0.00  0.00    +0.000 OA
ATOM     14  C   UNL     1       6.733   4.752  15.308  0.00  0.00    +0.000 A 
ATOM     15  N   UNL     1       6.224   3.817  14.526  0.00  0.00    +0.000 NA
ENDBRANCH   5  14
ENDBRANCH   1   8
BRANCH   3  16
ATOM     16  C   UNL     1       2.300   5.282  20.960  0.00  0.00    +0.000 C 
BRANCH  16  17
ATOM     17  C   UNL     1       1.181   6.271  20.642  0.00  0.00    +0.000 C 
BRANCH  17  18
ATOM     18  C   UNL     1       1.629   7.739  20.747  0.00  0.00    +0.000 C 
BRANCH  18  19
ATOM     19  N   UNL     1       0.561   8.684  21.125  0.00  0.00    +0.000 NA
ATOM     20  C   UNL     1       0.676   9.094  22.537  0.00  0.00    +0.000 C 
ATOM     21  C   UNL     1      -0.444  10.051  22.942  0.00  0.00    +0.000 C 
ATOM     22  C   UNL     1      -0.478  11.276  22.040  0.00  0.00    +0.000 C 
ATOM     23  C   UNL     1      -0.543  10.847  20.580  0.00  0.00    +0.000 C 
ATOM     24  C   UNL     1       0.576   9.858  20.236  0.00  0.00    +0.000 C 
ENDBRANCH  18  19
ENDBRANCH  17  18
ENDBRANCH  16  17
ENDBRANCH   3  16
TORSDOF 6
ENDMDL
MODEL 5
REMARK VINA RESULT:      -6.9      2.152      3.936
REMARK  Name = 
REMARK  7 active torsions:
REMARK  status: ('A' for Active; 'I' for Inactive)
REMARK    1  A    between atoms: C_1  and  C_2
REMARK    2  A    between atoms: C_5  and  C_6
REMARK    3  A    between atoms: C_9  and  C_10
REMARK    4  A    between atoms: N_12  and  C_13
REMARK    5  A    between atoms: C_13  and  C_14
REMARK    6  A    between atoms: C_14  and  C_15
REMARK    7  A    between atoms: C_15  and  N_16
REMARK                            x       y       z     vdW  Elec       q    Type
REMARK                         _______ _______ _______ _____ _____    ______ ____
ROOT
ATOM      1  C   UNL     1       4.704   3.895  19.368  0.00  0.00    +0.000 C 
ATOM      2  O   UNL     1       4.813   2.760  19.835  0.00  0.00    +0.000 OA
ATOM      3  N   UNL     1       3.659   4.729  19.734  0.00  0.00    +0.000 N 
ATOM      4  H   UNL     1       3.647   5.665  19.344  0.00  0.00    +0.000 HD
ENDROOT
BRANCH   1   8
ATOM      5  C   UNL     1       6.669   4.886  16.482  0.00  0.00    +0.000 A 
ATOM      6  C   UNL     1       7.456   5.649  17.321  0.00  0.00    +0.000 A 
ATOM      7  S   UNL     1       6.875   5.539  18.928  0.00  0.00    +0.000 S 
ATOM      8  C   UNL     1       5.634   4.476  18.397  0.00  0.00    +0.000 A 
ATOM      9  N   UNL     1       5.610   4.221  17.099  0.00  0.00    +0.000 NA
BRANCH   5  14
ATOM     10  C   UNL     1       6.525   3.479  11.765  0.00  0.00    +0.000 C 
ATOM     11  C   UNL     1       6.937   4.168  13.003  0.00  0.00    +0.000 A 
ATOM     12  N   UNL     1       7.778   5.208  13.000  0.00  0.00    +0.000 NA
ATOM     13  O   UNL     1       7.800   5.603  14.339  0.00  0.00    +0.000 OA
ATOM     14  C   UNL     1       6.967   4.752  15.020  0.00  0.00    +0.000 A 
ATOM     15  N   UNL     1       6.436   3.834  14.234  0.00  0.00    +0.000 NA
ENDBRANCH   5  14
ENDBRANCH   1   8
BRANCH   3  16
ATOM     16  C   UNL     1       2.626   4.301  20.660  0.00  0.00    +0.000 C 
BRANCH  16  17
ATOM     17  C   UNL     1       1.410   5.223  20.615  0.00  0.00    +0.000 C 
BRANCH  17  18
ATOM     18  C   UNL     1       1.754   6.687  20.938  0.00  0.00    +0.000 C 
BRANCH  18  19
ATOM     19  N   UNL     1       1.321   7.663  19.920  0.00  0.00    +0.000 NA
ATOM     20  C   UNL     1       1.087   8.994  20.509  0.00  0.00    +0.000 C 
ATOM     21  C   UNL     1       0.611  10.002  19.464  0.00  0.00    +0.000 C 
ATOM     22  C   UNL     1       1.592  10.104  18.307  0.00  0.00    +0.000 C 
ATOM     23  C   UNL     1       1.872   8.720  17.735  0.00  0.00    +0.000 C 
ATOM     24  C   UNL     1       2.307   7.739  18.829  0.00  0.00    +0.000 C 
ENDBRANCH  18  19
ENDBRANCH  17  18
ENDBRANCH  16  17
ENDBRANCH   3  16
TORSDOF 6
ENDMDL
MODEL 6
REMARK VINA RESULT:      -6.9      5.720      8.236
REMARK  Name = 
REMARK  7 active torsions:
REMARK  status: ('A' for Active; 'I' for Inactive)
REMARK    1  A    between atoms: C_1  and  C_2
REMARK    2  A    between atoms: C_5  and  C_6
REMARK    3  A    between atoms: C_9  and  C_10
REMARK    4  A    between atoms: N_12  and  C_13
REMARK    5  A    between atoms: C_13  and  C_14
REMARK    6  A    between atoms: C_14  and  C_15
REMARK    7  A    between atoms: C_15  and  N_16
REMARK                            x       y       z     vdW  Elec       q    Type
REMARK                         _______ _______ _______ _____ _____    ______ ____
ROOT
ATOM      1  C   UNL     1       7.792   7.119  18.153  0.00  0.00    +0.000 C 
ATOM      2  O   UNL     1       8.296   6.662  19.180  0.00  0.00    +0.000 OA
ATOM      3  N   UNL     1       7.972   8.443  17.787  0.00  0.00    +0.000 N 
ATOM      4  H   UNL     1       7.563   8.748  16.911  0.00  0.00    +0.000 HD
ENDROOT
BRANCH   1   8
ATOM      5  C   UNL     1       6.352   5.194  15.434  0.00  0.00    +0.000 A 
ATOM      6  C   UNL     1       5.135   5.249  16.084  0.00  0.00    +0.000 A 
ATOM      7  S   UNL     1       5.300   6.093  17.564  0.00  0.00    +0.000 S 
ATOM      8  C   UNL     1       6.966   6.340  17.228  0.00  0.00    +0.000 A 
ATOM      9  N   UNL     1       7.411   5.810  16.099  0.00  0.00    +0.000 NA
BRANCH   5  14
ATOM     10  C   UNL     1       5.590   2.428  11.431  0.00  0.00    +0.000 C 
ATOM     11  C   UNL     1       6.212   3.382  12.370  0.00  0.00    +0.000 A 
ATOM     12  N   UNL     1       7.214   4.192  12.012  0.00  0.00    +0.000 NA
ATOM     13  O   UNL     1       7.411   4.976  13.150  0.00  0.00    +0.000 OA
ATOM     14  C   UNL     1       6.504   4.554  14.088  0.00  0.00    +0.000 A 
ATOM     15  N   UNL     1       5.762   3.551  13.653  0.00  0.00    +0.000 NA
ENDBRANCH   5  14
ENDBRANCH   1   8
BRANCH   3  16
ATOM     16  C   UNL     1       8.736   9.368  18.607  0.00  0.00    +0.000 C 
BRANCH  16  17
ATOM     17  C   UNL     1       8.679  10.791  18.057  0.00  0.00    +0.000 C 
BRANCH  17  18
ATOM     18  C   UNL     1      10.069  11.432  17.905  0.00  0.00    +0.000 C 
BRANCH  18  19
ATOM     19  N   UNL     1      10.054  12.866  17.563  0.00  0.00    +0.000 NA
ATOM     20  C   UNL     1       9.483  13.678  18.654  0.00  0.00    +0.000 C 
ATOM     21  C   UNL     1       9.438  15.162  18.294  0.00  0.00    +0.000 C 
ATOM     22  C   UNL     1      10.817  15.681  17.919  0.00  0.00    +0.000 C 
ATOM     23  C   UNL     1      11.425  14.809  16.828  0.00  0.00    +0.000 C 
ATOM     24  C   UNL     1      11.410  13.328  17.222  0.00  0.00    +0.000 C 
ENDBRANCH  18  19
ENDBRANCH  17  18
ENDBRANCH  16  17
ENDBRANCH   3  16
TORSDOF 6
ENDMDL
MODEL 7
REMARK VINA RESULT:      -6.8      2.491      4.500
REMARK  Name = 
REMARK  7 active torsions:
REMARK  status: ('A' for Active; 'I' for Inactive)
REMARK    1  A    between atoms: C_1  and  C_2
REMARK    2  A    between atoms: C_5  and  C_6
REMARK    3  A    between atoms: C_9  and  C_10
REMARK    4  A    between atoms: N_12  and  C_13
REMARK    5  A    between atoms: C_13  and  C_14
REMARK    6  A    between atoms: C_14  and  C_15
REMARK    7  A    between atoms: C_15  and  N_16
REMARK                            x       y       z     vdW  Elec       q    Type
REMARK                         _______ _______ _______ _____ _____    ______ ____
ROOT
ATOM      1  C   UNL     1       3.969   4.148  19.235  0.00  0.00    +0.000 C 
ATOM      2  O   UNL     1       3.466   3.027  19.157  0.00  0.00    +0.000 OA
ATOM      3  N   UNL     1       3.472   5.103  20.107  0.00  0.00    +0.000 N 
ATOM      4  H   UNL     1       3.955   5.994  20.151  0.00  0.00    +0.000 HD
ENDROOT
BRANCH   1   8
ATOM      5  C   UNL     1       6.451   4.912  16.699  0.00  0.00    +0.000 A 
ATOM      6  C   UNL     1       7.259   5.430  17.692  0.00  0.00    +0.000 A 
ATOM      7  S   UNL     1       6.463   5.328  19.205  0.00  0.00    +0.000 S 
ATOM      8  C   UNL     1       5.116   4.590  18.437  0.00  0.00    +0.000 A 
ATOM      9  N   UNL     1       5.210   4.441  17.125  0.00  0.00    +0.000 NA
BRANCH   5  14
ATOM     10  C   UNL     1       6.764   3.726  11.930  0.00  0.00    +0.000 C 
ATOM     11  C   UNL     1       7.071   4.335  13.238  0.00  0.00    +0.000 A 
ATOM     12  N   UNL     1       7.960   5.323  13.380  0.00  0.00    +0.000 NA
ATOM     13  O   UNL     1       7.852   5.657  14.732  0.00  0.00    +0.000 OA
ATOM     14  C   UNL     1       6.904   4.827  15.274  0.00  0.00    +0.000 A 
ATOM     15  N   UNL     1       6.417   3.976  14.389  0.00  0.00    +0.000 NA
ENDBRANCH   5  14
ENDBRANCH   1   8
BRANCH   3  16
ATOM     16  C   UNL     1       2.318   4.846  20.949  0.00  0.00    +0.000 C 
BRANCH  16  17
ATOM     17  C   UNL     1       1.278   5.959  20.840  0.00  0.00    +0.000 C 
BRANCH  17  18
ATOM     18  C   UNL     1       1.824   7.224  20.155  0.00  0.00    +0.000 C 
BRANCH  18  19
ATOM     19  N   UNL     1       1.396   8.493  20.773  0.00  0.00    +0.000 NA
ATOM     20  C   UNL     1       1.057   9.505  19.755  0.00  0.00    +0.000 C 
ATOM     21  C   UNL     1       0.640  10.831  20.389  0.00  0.00    +0.000 C 
ATOM     22  C   UNL     1      -0.523  10.643  21.350  0.00  0.00    +0.000 C 
ATOM     23  C   UNL     1      -0.190   9.560  22.368  0.00  0.00    +0.000 C 
ATOM     24  C   UNL     1       0.259   8.265  21.682  0.00  0.00    +0.000 C 
ENDBRANCH  18  19
ENDBRANCH  17  18
ENDBRANCH  16  17
ENDBRANCH   3  16
TORSDOF 6
ENDMDL
MODEL 8
REMARK VINA RESULT:      -6.8      1.791      3.244
REMARK  Name = 
REMARK  7 active torsions:
REMARK  status: ('A' for Active; 'I' for Inactive)
REMARK    1  A    between atoms: C_1  and  C_2
REMARK    2  A    between atoms: C_5  and  C_6
REMARK    3  A    between atoms: C_9  and  C_10
REMARK    4  A    between atoms: N_12  and  C_13
REMARK    5  A    between atoms: C_13  and  C_14
REMARK    6  A    between atoms: C_14  and  C_15
REMARK    7  A    between atoms: C_15  and  N_16
REMARK                            x       y       z     vdW  Elec       q    Type
REMARK                         _______ _______ _______ _____ _____    ______ ____
ROOT
ATOM      1  C   UNL     1       5.395   4.094  18.801  0.00  0.00    +0.000 C 
ATOM      2  O   UNL     1       5.681   4.716  19.825  0.00  0.00    +0.000 OA
ATOM      3  N   UNL     1       4.517   3.023  18.830  0.00  0.00    +0.000 N 
ATOM      4  H   UNL     1       4.292   2.576  17.947  0.00  0.00    +0.000 HD
ENDROOT
BRANCH   1   8
ATOM      5  C   UNL     1       6.240   4.355  15.281  0.00  0.00    +0.000 A 
ATOM      6  C   UNL     1       7.279   5.196  15.627  0.00  0.00    +0.000 A 
ATOM      7  S   UNL     1       7.294   5.442  17.321  0.00  0.00    +0.000 S 
ATOM      8  C   UNL     1       5.935   4.403  17.475  0.00  0.00    +0.000 A 
ATOM      9  N   UNL     1       5.456   3.909  16.344  0.00  0.00    +0.000 NA
BRANCH   5  14
ATOM     10  C   UNL     1       4.063   3.160  11.029  0.00  0.00    +0.000 C 
ATOM     11  C   UNL     1       5.110   3.399  12.041  0.00  0.00    +0.000 A 
ATOM     12  N   UNL     1       6.411   3.441  11.733  0.00  0.00    +0.000 NA
ATOM     13  O   UNL     1       7.013   3.792  12.943  0.00  0.00    +0.000 OA
ATOM     14  C   UNL     1       6.008   3.923  13.866  0.00  0.00    +0.000 A 
ATOM     15  N   UNL     1       4.819   3.661  13.354  0.00  0.00    +0.000 NA
ENDBRANCH   5  14
ENDBRANCH   1   8
BRANCH   3  16
ATOM     16  C   UNL     1       3.914   2.558  20.066  0.00  0.00    +0.000 C 
BRANCH  16  17
ATOM     17  C   UNL     1       2.413   2.322  19.911  0.00  0.00    +0.000 C 
BRANCH  17  18
ATOM     18  C   UNL     1       1.714   3.424  19.096  0.00  0.00    +0.000 C 
BRANCH  18  19
ATOM     19  N   UNL     1       2.229   4.786  19.330  0.00  0.00    +0.000 NA
ATOM     20  C   UNL     1       2.223   5.589  18.093  0.00  0.00    +0.000 C 
ATOM     21  C   UNL     1       2.781   6.992  18.324  0.00  0.00    +0.000 C 
ATOM     22  C   UNL     1       2.020   7.716  19.423  0.00  0.00    +0.000 C 
ATOM     23  C   UNL     1       1.983   6.861  20.683  0.00  0.00    +0.000 C 
ATOM     24  C   UNL     1       1.453   5.453  20.390  0.00  0.00    +0.000 C 
ENDBRANCH  18  19
ENDBRANCH  17  18
ENDBRANCH  16  17
ENDBRANCH   3  16
TORSDOF 6
ENDMDL
MODEL 9
REMARK VINA RESULT:      -6.8      4.954      8.687
REMARK  Name = 
REMARK  7 active torsions:
REMARK  status: ('A' for Active; 'I' for Inactive)
REMARK    1  A    between atoms: C_1  and  C_2
REMARK    2  A    between atoms: C_5  and  C_6
REMARK    3  A    between atoms: C_9  and  C_10
REMARK    4  A    between atoms: N_12  and  C_13
REMARK    5  A    between atoms: C_13  and  C_14
REMARK    6  A    between atoms: C_14  and  C_15
REMARK    7  A    between atoms: C_15  and  N_16
REMARK                            x       y       z     vdW  Elec       q    Type
REMARK                         _______ _______ _______ _____ _____    ______ ____
ROOT
ATOM      1  C   UNL     1       6.973   6.340  17.093  0.00  0.00    +0.000 C 
ATOM      2  O   UNL     1       7.655   6.387  16.068  0.00  0.00    +0.000 OA
ATOM      3  N   UNL     1       7.331   7.045  18.231  0.00  0.00    +0.000 N 
ATOM      4  H   UNL     1       6.707   6.994  19.030  0.00  0.00    +0.000 HD
ENDROOT
BRANCH   1   8
ATOM      5  C   UNL     1       3.919   4.665  18.113  0.00  0.00    +0.000 A 
ATOM      6  C   UNL     1       3.922   3.996  16.905  0.00  0.00    +0.000 A 
ATOM      7  S   UNL     1       5.257   4.499  15.960  0.00  0.00    +0.000 S 
ATOM      8  C   UNL     1       5.744   5.554  17.226  0.00  0.00    +0.000 A 
ATOM      9  N   UNL     1       4.961   5.574  18.293  0.00  0.00    +0.000 NA
BRANCH   5  14
ATOM     10  C   UNL     1       1.374   2.563  21.767  0.00  0.00    +0.000 C 
ATOM     11  C   UNL     1       1.777   3.520  20.719  0.00  0.00    +0.000 A 
ATOM     12  N   UNL     1       1.232   4.737  20.610  0.00  0.00    +0.000 NA
ATOM     13  O   UNL     1       1.970   5.324  19.580  0.00  0.00    +0.000 OA
ATOM     14  C   UNL     1       2.890   4.394  19.166  0.00  0.00    +0.000 A 
ATOM     15  N   UNL     1       2.784   3.256  19.828  0.00  0.00    +0.000 NA
ENDBRANCH   5  14
ENDBRANCH   1   8
BRANCH   3  16
ATOM     16  C   UNL     1       8.539   7.849  18.287  0.00  0.00    +0.000 C 
BRANCH  16  17
ATOM     17  C   UNL     1       8.238   9.334  18.106  0.00  0.00    +0.000 C 
BRANCH  17  18
ATOM     18  C   UNL     1       8.878  10.214  19.194  0.00  0.00    +0.000 C 
BRANCH  18  19
ATOM     19  N   UNL     1      10.112  10.908  18.780  0.00  0.00    +0.000 NA
ATOM     20  C   UNL     1       9.838  11.945  17.769  0.00  0.00    +0.000 C 
ATOM     21  C   UNL     1      11.117  12.648  17.315  0.00  0.00    +0.000 C 
ATOM     22  C   UNL     1      11.865  13.249  18.495  0.00  0.00    +0.000 C 
ATOM     23  C   UNL     1      12.100  12.186  19.561  0.00  0.00    +0.000 C 
ATOM     24  C   UNL     1      10.794  11.485  19.951  0.00  0.00    +0.000 C 
ENDBRANCH  18  19
ENDBRANCH  17  18
ENDBRANCH  16  17
ENDBRANCH   3  16
TORSDOF 6
ENDMDL
