MODEL 1
REMARK VINA RESULT:      -5.1      0.000      0.000
REMARK  Name = 
REMARK  8 active torsions:
REMARK  status: ('A' for Active; 'I' for Inactive)
REMARK    1  A    between atoms: C_1  and  C_2
REMARK    2  A    between atoms: C_4  and  C_5
REMARK    3  A    between atoms: N_6  and  C_7
REMARK    4  A    between atoms: C_7  and  C_8
REMARK    5  A    between atoms: C_8  and  S_9
REMARK    6  A    between atoms: S_9  and  C_10
REMARK    7  A    between atoms: C_10  and  C_11
REMARK    8  A    between atoms: C_11  and  O_13
REMARK                            x       y       z     vdW  Elec       q    Type
REMARK                         _______ _______ _______ _____ _____    ______ ____
ROOT
ATOM      1  C   UNL     1       2.308   4.536  17.935  0.00  0.00    +0.000 C 
ENDROOT
BRANCH   1   7
ATOM      2  C   UNL     1       6.719   4.796  15.976  0.00  0.00    +0.000 C 
ATOM      3  C   UNL     1       5.455   5.270  16.587  0.00  0.00    +0.000 A 
ATOM      4  C   UNL     1       5.106   6.592  16.940  0.00  0.00    +0.000 A 
ATOM      5  C   UNL     1       3.839   6.507  17.477  0.00  0.00    +0.000 A 
ATOM      6  C   UNL     1       2.961   7.564  18.032  0.00  0.00    +0.000 C 
ATOM      7  N   UNL     1       3.504   5.178  17.414  0.00  0.00    +0.000 N 
ATOM      8  N   UNL     1       4.468   4.411  16.870  0.00  0.00    +0.000 NA
ENDBRANCH   1   7
BRANCH   1   9
ATOM      9  C   UNL     1       2.230   3.052  17.591  0.00  0.00    +0.000 C 
BRANCH   9  10
ATOM     10  S   UNL     1       2.004   2.115  19.161  0.00  0.00    +0.000 S 
BRANCH  10  11
ATOM     11  C   UNL     1       3.136   3.038  20.262  0.00  0.00    +0.000 C 
BRANCH  11  12
ATOM     12  C   UNL     1       4.539   2.464  20.254  0.00  0.00    +0.000 C 
ATOM     13  O   UNL     1       4.959   1.700  21.106  0.00  0.00    +0.000 OA
BRANCH  12  14
ATOM     14  O   UNL     1       5.281   2.826  19.180  0.00  0.00    +0.000 OA
ATOM     15  H   UNL     1       4.767   2.725  18.351  0.00  0.00    +0.000 HD
ENDBRANCH  12  14
ENDBRANCH  11  12
ENDBRANCH  10  11
ENDBRANCH   9  10
ENDBRANCH   1   9
TORSDOF 6
ENDMDL
MODEL 2
REMARK VINA RESULT:      -5.1      2.256      2.819
REMARK  Name = 
REMARK  8 active torsions:
REMARK  status: ('A' for Active; 'I' for Inactive)
REMARK    1  A    between atoms: C_1  and  C_2
REMARK    2  A    between atoms: C_4  and  C_5
REMARK    3  A    between atoms: N_6  and  C_7
REMARK    4  A    between atoms: C_7  and  C_8
REMARK    5  A    between atoms: C_8  and  S_9
REMARK    6  A    between atoms: S_9  and  C_10
REMARK    7  A    between atoms: C_10  and  C_11
REMARK    8  A    between atoms: C_11  and  O_13
REMARK                            x       y       z     vdW  Elec       q    Type
REMARK                         _______ _______ _______ _____ _____    ______ ____
ROOT
ATOM      1  C   UNL     1       4.094   4.303  17.788  0.00  0.00    +0.000 C 
ENDROOT
BRANCH   1   7
ATOM      2  C   UNL     1       6.290   3.888  13.503  0.00  0.00    +0.000 C 
ATOM      3  C   UNL     1       6.130   4.204  14.942  0.00  0.00    +0.000 A 
ATOM      4  C   UNL     1       7.116   4.659  15.844  0.00  0.00    +0.000 A 
ATOM      5  C   UNL     1       6.472   4.794  17.055  0.00  0.00    +0.000 A 
ATOM      6  C   UNL     1       6.993   5.225  18.374  0.00  0.00    +0.000 C 
ATOM      7  N   UNL     1       5.171   4.427  16.821  0.00  0.00    +0.000 N 
ATOM      8  N   UNL     1       4.940   4.073  15.542  0.00  0.00    +0.000 NA
ENDBRANCH   1   7
BRANCH   1   9
ATOM      9  C   UNL     1       3.021   3.304  17.362  0.00  0.00    +0.000 C 
BRANCH   9  10
ATOM     10  S   UNL     1       2.850   2.047  18.697  0.00  0.00    +0.000 S 
BRANCH  10  11
ATOM     11  C   UNL     1       2.788   3.134  20.167  0.00  0.00    +0.000 C 
BRANCH  11  12
ATOM     12  C   UNL     1       1.565   2.872  21.023  0.00  0.00    +0.000 C 
ATOM     13  O   UNL     1       1.622   2.531  22.193  0.00  0.00    +0.000 OA
BRANCH  12  14
ATOM     14  O   UNL     1       0.388   3.104  20.395  0.00  0.00    +0.000 OA
ATOM     15  H   UNL     1       0.451   2.883  19.442  0.00  0.00    +0.000 HD
ENDBRANCH  12  14
ENDBRANCH  11  12
ENDBRANCH  10  11
ENDBRANCH   9  10
ENDBRANCH   1   9
TORSDOF 6
ENDMDL
MODEL 3
REMARK VINA RESULT:      -5.0      2.585      3.061
REMARK  Name = 
REMARK  8 active torsions:
REMARK  status: ('A' for Active; 'I' for Inactive)
REMARK    1  A    between atoms: C_1  and  C_2
REMARK    2  A    between atoms: C_4  and  C_5
REMARK    3  A    between atoms: N_6  and  C_7
REMARK    4  A    between atoms: C_7  and  C_8
REMARK    5  A    between atoms: C_8  and  S_9
REMARK    6  A    between atoms: S_9  and  C_10
REMARK    7  A    between atoms: C_10  and  C_11
REMARK    8  A    between atoms: C_11  and  O_13
REMARK                            x       y       z     vdW  Elec       q    Type
REMARK                         _______ _______ _______ _____ _____    ______ ____
ROOT
ATOM      1  C   UNL     1       4.459   3.660  17.289  0.00  0.00    +0.000 C 
ENDROOT
BRANCH   1   7
ATOM      2  C   UNL     1       8.162   5.773  19.565  0.00  0.00    +0.000 C 
ATOM      3  C   UNL     1       7.211   5.474  18.469  0.00  0.00    +0.000 A 
ATOM      4  C   UNL     1       7.122   6.097  17.205  0.00  0.00    +0.000 A 
ATOM      5  C   UNL     1       6.079   5.472  16.559  0.00  0.00    +0.000 A 
ATOM      6  C   UNL     1       5.509   5.705  15.210  0.00  0.00    +0.000 C 
ATOM      7  N   UNL     1       5.613   4.531  17.442  0.00  0.00    +0.000 N 
ATOM      8  N   UNL     1       6.293   4.510  18.605  0.00  0.00    +0.000 NA
ENDBRANCH   1   7
BRANCH   1   9
ATOM      9  C   UNL     1       3.735   3.393  18.605  0.00  0.00    +0.000 C 
BRANCH   9  10
ATOM     10  S   UNL     1       2.492   4.729  18.853  0.00  0.00    +0.000 S 
BRANCH  10  11
ATOM     11  C   UNL     1       2.312   4.679  20.672  0.00  0.00    +0.000 C 
BRANCH  11  12
ATOM     12  C   UNL     1       1.525   3.471  21.138  0.00  0.00    +0.000 C 
ATOM     13  O   UNL     1       1.814   2.818  22.127  0.00  0.00    +0.000 OA
BRANCH  12  14
ATOM     14  O   UNL     1       0.426   3.203  20.392  0.00  0.00    +0.000 OA
ATOM     15  H   UNL     1       0.411   3.755  19.582  0.00  0.00    +0.000 HD
ENDBRANCH  12  14
ENDBRANCH  11  12
ENDBRANCH  10  11
ENDBRANCH   9  10
ENDBRANCH   1   9
TORSDOF 6
ENDMDL
MODEL 4
REMARK VINA RESULT:      -5.0      3.035      4.863
REMARK  Name = 
REMARK  8 active torsions:
REMARK  status: ('A' for Active; 'I' for Inactive)
REMARK    1  A    between atoms: C_1  and  C_2
REMARK    2  A    between atoms: C_4  and  C_5
REMARK    3  A    between atoms: N_6  and  C_7
REMARK    4  A    between atoms: C_7  and  C_8
REMARK    5  A    between atoms: C_8  and  S_9
REMARK    6  A    between atoms: S_9  and  C_10
REMARK    7  A    between atoms: C_10  and  C_11
REMARK    8  A    between atoms: C_11  and  O_13
REMARK                            x       y       z     vdW  Elec       q    Type
REMARK                         _______ _______ _______ _____ _____    ______ ____
ROOT
ATOM      1  C   UNL     1       4.611   5.046  18.861  0.00  0.00    +0.000 C 
ENDROOT
BRANCH   1   7
ATOM      2  C   UNL     1       1.434   2.623  21.579  0.00  0.00    +0.000 C 
ATOM      3  C   UNL     1       2.032   3.768  20.853  0.00  0.00    +0.000 A 
ATOM      4  C   UNL     1       1.499   5.065  20.693  0.00  0.00    +0.000 A 
ATOM      5  C   UNL     1       2.424   5.752  19.936  0.00  0.00    +0.000 A 
ATOM      6  C   UNL     1       2.408   7.148  19.438  0.00  0.00    +0.000 C 
ATOM      7  N   UNL     1       3.434   4.856  19.692  0.00  0.00    +0.000 N 
ATOM      8  N   UNL     1       3.219   3.648  20.248  0.00  0.00    +0.000 NA
ENDBRANCH   1   7
BRANCH   1   9
ATOM      9  C   UNL     1       4.308   4.952  17.368  0.00  0.00    +0.000 C 
BRANCH   9  10
ATOM     10  S   UNL     1       4.918   6.493  16.564  0.00  0.00    +0.000 S 
BRANCH  10  11
ATOM     11  C   UNL     1       6.681   6.442  17.049  0.00  0.00    +0.000 C 
BRANCH  11  12
ATOM     12  C   UNL     1       7.425   5.298  16.389  0.00  0.00    +0.000 C 
ATOM     13  O   UNL     1       7.902   4.360  17.005  0.00  0.00    +0.000 OA
BRANCH  12  14
ATOM     14  O   UNL     1       7.469   5.372  15.037  0.00  0.00    +0.000 OA
ATOM     15  H   UNL     1       6.962   6.146  14.713  0.00  0.00    +0.000 HD
ENDBRANCH  12  14
ENDBRANCH  11  12
ENDBRANCH  10  11
ENDBRANCH   9  10
ENDBRANCH   1   9
TORSDOF 6
ENDMDL
MODEL 5
REMARK VINA RESULT:      -5.0      2.359      3.036
REMARK  Name = 
REMARK  8 active torsions:
REMARK  status: ('A' for Active; 'I' for Inactive)
REMARK    1  A    between atoms: C_1  and  C_2
REMARK    2  A    between atoms: C_4  and  C_5
REMARK    3  A    between atoms: N_6  and  C_7
REMARK    4  A    between atoms: C_7  and  C_8
REMARK    5  A    between atoms: C_8  and  S_9
REMARK    6  A    between atoms: S_9  and  C_10
REMARK    7  A    between atoms: C_10  and  C_11
REMARK    8  A    between atoms: C_11  and  O_13
REMARK                            x       y       z     vdW  Elec       q    Type
REMARK                         _______ _______ _______ _____ _____    ______ ____
ROOT
ATOM      1  C   UNL     1       4.082   3.274  17.372  0.00  0.00    +0.000 C 
ENDROOT
BRANCH   1   7
ATOM      2  C   UNL     1       7.727   5.685  19.436  0.00  0.00    +0.000 C 
ATOM      3  C   UNL     1       6.935   5.048  18.358  0.00  0.00    +0.000 A 
ATOM      4  C   UNL     1       7.210   5.033  16.974  0.00  0.00    +0.000 A 
ATOM      5  C   UNL     1       6.177   4.325  16.400  0.00  0.00    +0.000 A 
ATOM      6  C   UNL     1       5.916   3.992  14.979  0.00  0.00    +0.000 C 
ATOM      7  N   UNL     1       5.362   3.959  17.441  0.00  0.00    +0.000 N 
ATOM      8  N   UNL     1       5.809   4.381  18.640  0.00  0.00    +0.000 NA
ENDBRANCH   1   7
BRANCH   1   9
ATOM      9  C   UNL     1       3.747   2.506  18.647  0.00  0.00    +0.000 C 
BRANCH   9  10
ATOM     10  S   UNL     1       1.922   2.576  18.891  0.00  0.00    +0.000 S 
BRANCH  10  11
ATOM     11  C   UNL     1       1.698   4.365  19.193  0.00  0.00    +0.000 C 
BRANCH  11  12
ATOM     12  C   UNL     1       2.506   4.853  20.378  0.00  0.00    +0.000 C 
ATOM     13  O   UNL     1       2.324   4.470  21.522  0.00  0.00    +0.000 OA
BRANCH  12  14
ATOM     14  O   UNL     1       3.499   5.717  20.055  0.00  0.00    +0.000 OA
ATOM     15  H   UNL     1       3.142   6.617  19.903  0.00  0.00    +0.000 HD
ENDBRANCH  12  14
ENDBRANCH  11  12
ENDBRANCH  10  11
ENDBRANCH   9  10
ENDBRANCH   1   9
TORSDOF 6
ENDMDL
MODEL 6
REMARK VINA RESULT:      -5.0      2.258      2.642
REMARK  Name = 
REMARK  8 active torsions:
REMARK  status: ('A' for Active; 'I' for Inactive)
REMARK    1  A    between atoms: C_1  and  C_2
REMARK    2  A    between atoms: C_4  and  C_5
REMARK    3  A    between atoms: N_6  and  C_7
REMARK    4  A    between atoms: C_7  and  C_8
REMARK    5  A    between atoms: C_8  and  S_9
REMARK    6  A    between atoms: S_9  and  C_10
REMARK    7  A    between atoms: C_10  and  C_11
REMARK    8  A    between atoms: C_11  and  O_13
REMARK                            x       y       z     vdW  Elec       q    Type
REMARK                         _______ _______ _______ _____ _____    ______ ____
ROOT
ATOM      1  C   UNL     1       5.242   4.118  18.309  0.00  0.00    +0.000 C 
ENDROOT
BRANCH   1   7
ATOM      2  C   UNL     1       6.312   3.925  13.601  0.00  0.00    +0.000 C 
ATOM      3  C   UNL     1       5.829   4.497  14.879  0.00  0.00    +0.000 A 
ATOM      4  C   UNL     1       5.368   5.809  15.122  0.00  0.00    +0.000 A 
ATOM      5  C   UNL     1       5.046   5.845  16.461  0.00  0.00    +0.000 A 
ATOM      6  C   UNL     1       4.523   6.955  17.292  0.00  0.00    +0.000 C 
ATOM      7  N   UNL     1       5.319   4.587  16.936  0.00  0.00    +0.000 N 
ATOM      8  N   UNL     1       5.788   3.751  15.989  0.00  0.00    +0.000 NA
ENDBRANCH   1   7
BRANCH   1   9
ATOM      9  C   UNL     1       4.104   3.128  18.539  0.00  0.00    +0.000 C 
BRANCH   9  10
ATOM     10  S   UNL     1       2.573   4.091  18.888  0.00  0.00    +0.000 S 
BRANCH  10  11
ATOM     11  C   UNL     1       2.534   3.999  20.714  0.00  0.00    +0.000 C 
BRANCH  11  12
ATOM     12  C   UNL     1       1.423   3.101  21.220  0.00  0.00    +0.000 C 
ATOM     13  O   UNL     1       1.452   2.536  22.301  0.00  0.00    +0.000 OA
BRANCH  12  14
ATOM     14  O   UNL     1       0.355   3.019  20.391  0.00  0.00    +0.000 OA
ATOM     15  H   UNL     1       0.429   2.239  19.802  0.00  0.00    +0.000 HD
ENDBRANCH  12  14
ENDBRANCH  11  12
ENDBRANCH  10  11
ENDBRANCH   9  10
ENDBRANCH   1   9
TORSDOF 6
ENDMDL
MODEL 7
REMARK VINA RESULT:      -5.0      2.602      3.360
REMARK  Name = 
REMARK  8 active torsions:
REMARK  status: ('A' for Active; 'I' for Inactive)
REMARK    1  A    between atoms: C_1  and  C_2
REMARK    2  A    between atoms: C_4  and  C_5
REMARK    3  A    between atoms: N_6  and  C_7
REMARK    4  A    between atoms: C_7  and  C_8
REMARK    5  A    between atoms: C_8  and  S_9
REMARK    6  A    between atoms: S_9  and  C_10
REMARK    7  A    between atoms: C_10  and  C_11
REMARK    8  A    between atoms: C_11  and  O_13
REMARK                            x       y       z     vdW  Elec       q    Type
REMARK                         _______ _______ _______ _____ _____    ______ ____
ROOT
ATOM      1  C   UNL     1       5.105   4.308  18.797  0.00  0.00    +0.000 C 
ENDROOT
BRANCH   1   7
ATOM      2  C   UNL     1       5.936   3.982  14.048  0.00  0.00    +0.000 C 
ATOM      3  C   UNL     1       6.125   4.420  15.451  0.00  0.00    +0.000 A 
ATOM      4  C   UNL     1       7.148   5.242  15.970  0.00  0.00    +0.000 A 
ATOM      5  C   UNL     1       6.888   5.345  17.319  0.00  0.00    +0.000 A 
ATOM      6  C   UNL     1       7.623   6.067  18.385  0.00  0.00    +0.000 C 
ATOM      7  N   UNL     1       5.753   4.604  17.531  0.00  0.00    +0.000 N 
ATOM      8  N   UNL     1       5.269   4.041  16.406  0.00  0.00    +0.000 NA
ENDBRANCH   1   7
BRANCH   1   9
ATOM      9  C   UNL     1       4.188   5.430  19.275  0.00  0.00    +0.000 C 
BRANCH   9  10
ATOM     10  S   UNL     1       2.761   4.664  20.154  0.00  0.00    +0.000 S 
BRANCH  10  11
ATOM     11  C   UNL     1       1.933   3.816  18.762  0.00  0.00    +0.000 C 
BRANCH  11  12
ATOM     12  C   UNL     1       0.803   2.919  19.227  0.00  0.00    +0.000 C 
ATOM     13  O   UNL     1       0.249   2.105  18.507  0.00  0.00    +0.000 OA
BRANCH  12  14
ATOM     14  O   UNL     1       0.491   3.054  20.538  0.00  0.00    +0.000 OA
ATOM     15  H   UNL     1       1.000   2.418  21.085  0.00  0.00    +0.000 HD
ENDBRANCH  12  14
ENDBRANCH  11  12
ENDBRANCH  10  11
ENDBRANCH   9  10
ENDBRANCH   1   9
TORSDOF 6
ENDMDL
MODEL 8
REMARK VINA RESULT:      -5.0      2.270      2.900
REMARK  Name = 
REMARK  8 active torsions:
REMARK  status: ('A' for Active; 'I' for Inactive)
REMARK    1  A    between atoms: C_1  and  C_2
REMARK    2  A    between atoms: C_4  and  C_5
REMARK    3  A    between atoms: N_6  and  C_7
REMARK    4  A    between atoms: C_7  and  C_8
REMARK    5  A    between atoms: C_8  and  S_9
REMARK    6  A    between atoms: S_9  and  C_10
REMARK    7  A    between atoms: C_10  and  C_11
REMARK    8  A    between atoms: C_11  and  O_13
REMARK                            x       y       z     vdW  Elec       q    Type
REMARK                         _______ _______ _______ _____ _____    ______ ____
ROOT
ATOM      1  C   UNL     1       5.276   4.404  19.040  0.00  0.00    +0.000 C 
ENDROOT
BRANCH   1   7
ATOM      2  C   UNL     1       6.048   3.911  14.295  0.00  0.00    +0.000 C 
ATOM      3  C   UNL     1       6.235   4.422  15.674  0.00  0.00    +0.000 A 
ATOM      4  C   UNL     1       7.219   5.320  16.138  0.00  0.00    +0.000 A 
ATOM      5  C   UNL     1       6.975   5.470  17.486  0.00  0.00    +0.000 A 
ATOM      6  C   UNL     1       7.686   6.278  18.505  0.00  0.00    +0.000 C 
ATOM      7  N   UNL     1       5.885   4.678  17.750  0.00  0.00    +0.000 N 
ATOM      8  N   UNL     1       5.416   4.039  16.661  0.00  0.00    +0.000 NA
ENDBRANCH   1   7
BRANCH   1   9
ATOM      9  C   UNL     1       4.185   5.406  19.410  0.00  0.00    +0.000 C 
BRANCH   9  10
ATOM     10  S   UNL     1       2.555   4.569  19.223  0.00  0.00    +0.000 S 
BRANCH  10  11
ATOM     11  C   UNL     1       2.038   4.461  20.974  0.00  0.00    +0.000 C 
BRANCH  11  12
ATOM     12  C   UNL     1       2.209   3.065  21.538  0.00  0.00    +0.000 C 
ATOM     13  O   UNL     1       1.428   2.555  22.323  0.00  0.00    +0.000 OA
BRANCH  12  14
ATOM     14  O   UNL     1       3.281   2.397  21.050  0.00  0.00    +0.000 OA
ATOM     15  H   UNL     1       4.082   2.962  21.066  0.00  0.00    +0.000 HD
ENDBRANCH  12  14
ENDBRANCH  11  12
ENDBRANCH  10  11
ENDBRANCH   9  10
ENDBRANCH   1   9
TORSDOF 6
ENDMDL
MODEL 9
REMARK VINA RESULT:      -5.0      3.496      5.230
REMARK  Name = 
REMARK  8 active torsions:
REMARK  status: ('A' for Active; 'I' for Inactive)
REMARK    1  A    between atoms: C_1  and  C_2
REMARK    2  A    between atoms: C_4  and  C_5
REMARK    3  A    between atoms: N_6  and  C_7
REMARK    4  A    between atoms: C_7  and  C_8
REMARK    5  A    between atoms: C_8  and  S_9
REMARK    6  A    between atoms: S_9  and  C_10
REMARK    7  A    between atoms: C_10  and  C_11
REMARK    8  A    between atoms: C_11  and  O_13
REMARK                            x       y       z     vdW  Elec       q    Type
REMARK                         _______ _______ _______ _____ _____    ______ ____
ROOT
ATOM      1  C   UNL     1       4.233   3.882  18.095  0.00  0.00    +0.000 C 
ENDROOT
BRANCH   1   7
ATOM      2  C   UNL     1       1.810   2.524  22.049  0.00  0.00    +0.000 C 
ATOM      3  C   UNL     1       2.032   3.097  20.701  0.00  0.00    +0.000 A 
ATOM      4  C   UNL     1       1.065   3.605  19.806  0.00  0.00    +0.000 A 
ATOM      5  C   UNL     1       1.771   4.008  18.693  0.00  0.00    +0.000 A 
ATOM      6  C   UNL     1       1.296   4.608  17.423  0.00  0.00    +0.000 C 
ATOM      7  N   UNL     1       3.085   3.733  18.974  0.00  0.00    +0.000 N 
ATOM      8  N   UNL     1       3.266   3.187  20.192  0.00  0.00    +0.000 NA
ENDBRANCH   1   7
BRANCH   1   9
ATOM      9  C   UNL     1       5.498   4.311  18.832  0.00  0.00    +0.000 C 
BRANCH   9  10
ATOM     10  S   UNL     1       6.746   4.817  17.576  0.00  0.00    +0.000 S 
BRANCH  10  11
ATOM     11  C   UNL     1       5.854   4.395  16.036  0.00  0.00    +0.000 C 
BRANCH  11  12
ATOM     12  C   UNL     1       6.744   4.490  14.813  0.00  0.00    +0.000 C 
ATOM     13  O   UNL     1       7.649   5.299  14.699  0.00  0.00    +0.000 OA
BRANCH  12  14
ATOM     14  O   UNL     1       6.487   3.555  13.867  0.00  0.00    +0.000 OA
ATOM     15  H   UNL     1       5.522   3.447  13.735  0.00  0.00    +0.000 HD
ENDBRANCH  12  14
ENDBRANCH  11  12
ENDBRANCH  10  11
ENDBRANCH   9  10
ENDBRANCH   1   9
TORSDOF 6
ENDMDL
