MODEL 1
REMARK VINA RESULT:      -8.6      0.000      0.000
REMARK  Name = 
REMARK  5 active torsions:
REMARK  status: ('A' for Active; 'I' for Inactive)
REMARK    1  A    between atoms: C_1  and  C_2
REMARK    2  A    between atoms: C_5  and  S_6
REMARK    3  A    between atoms: S_6  and  N_9
REMARK    4  A    between atoms: C_10  and  C_11
REMARK    5  A    between atoms: C_23  and  C_24
REMARK                            x       y       z     vdW  Elec       q    Type
REMARK                         _______ _______ _______ _____ _____    ______ ____
ROOT
ATOM      1  N   UNL     1       3.530   5.697  17.930  0.00  0.00    +0.000 NA
ATOM      2  C   UNL     1       2.633   5.781  18.872  0.00  0.00    +0.000 C 
ATOM      3  N   UNL     1       2.110   4.732  19.616  0.00  0.00    +0.000 N 
ATOM      4  C   UNL     1       2.228   4.664  21.080  0.00  0.00    +0.000 C 
ATOM      5  C   UNL     1       2.602   3.226  21.471  0.00  0.00    +0.000 C 
ATOM      6  O   UNL     1       1.598   2.302  21.010  0.00  0.00    +0.000 OA
ATOM      7  C   UNL     1       1.485   2.353  19.574  0.00  0.00    +0.000 C 
ATOM      8  C   UNL     1       1.134   3.768  19.084  0.00  0.00    +0.000 C 
ENDROOT
BRANCH   2   9
ATOM      9  C   UNL     1       2.115   7.166  19.185  0.00  0.00    +0.000 A 
ATOM     10  C   UNL     1       1.662   7.469  20.476  0.00  0.00    +0.000 A 
ATOM     11  C   UNL     1       1.129   8.727  20.762  0.00  0.00    +0.000 A 
ATOM     12  C   UNL     1       1.051   9.692  19.761  0.00  0.00    +0.000 A 
ATOM     13  C   UNL     1       1.514   9.404  18.476  0.00  0.00    +0.000 A 
ATOM     14  C   UNL     1       2.045   8.142  18.186  0.00  0.00    +0.000 A 
ENDBRANCH   2   9
BRANCH   1  15
ATOM     15  S   UNL     1       4.144   4.252  17.520  0.00  0.00    +0.000 S 
ATOM     16  O   UNL     1       3.086   3.455  16.921  0.00  0.00    +0.000 OA
ATOM     17  O   UNL     1       4.934   3.738  18.625  0.00  0.00    +0.000 OA
BRANCH  15  22
ATOM     18  C   UNL     1       8.108   5.217  12.971  0.00  0.00    +0.000 C 
ATOM     19  C   UNL     1       7.142   4.931  14.084  0.00  0.00    +0.000 A 
ATOM     20  C   UNL     1       6.059   4.058  13.918  0.00  0.00    +0.000 A 
ATOM     21  C   UNL     1       5.153   3.837  14.964  0.00  0.00    +0.000 A 
ATOM     22  C   UNL     1       5.327   4.490  16.189  0.00  0.00    +0.000 A 
ATOM     23  C   UNL     1       6.428   5.350  16.389  0.00  0.00    +0.000 A 
ATOM     24  C   UNL     1       6.716   6.096  17.663  0.00  0.00    +0.000 C 
ATOM     25  C   UNL     1       7.319   5.562  15.322  0.00  0.00    +0.000 A 
ENDBRANCH  15  22
ENDBRANCH   1  15
TORSDOF 3
ENDMDL
MODEL 2
REMARK VINA RESULT:      -8.2      1.165      1.690
REMARK  Name = 
REMARK  5 active torsions:
REMARK  status: ('A' for Active; 'I' for Inactive)
REMARK    1  A    between atoms: C_1  and  C_2
REMARK    2  A    between atoms: C_5  and  S_6
REMARK    3  A    between atoms: S_6  and  N_9
REMARK    4  A    between atoms: C_10  and  C_11
REMARK    5  A    between atoms: C_23  and  C_24
REMARK                            x       y       z     vdW  Elec       q    Type
REMARK                         _______ _______ _______ _____ _____    ______ ____
ROOT
ATOM      1  N   UNL     1       4.369   6.151  19.156  0.00  0.00    +0.000 NA
ATOM      2  C   UNL     1       3.072   6.032  19.097  0.00  0.00    +0.000 C 
ATOM      3  N   UNL     1       2.352   4.857  18.936  0.00  0.00    +0.000 N 
ATOM      4  C   UNL     1       1.373   4.385  19.927  0.00  0.00    +0.000 C 
ATOM      5  C   UNL     1       1.570   2.874  20.123  0.00  0.00    +0.000 C 
ATOM      6  O   UNL     1       1.389   2.176  18.877  0.00  0.00    +0.000 OA
ATOM      7  C   UNL     1       2.354   2.623  17.904  0.00  0.00    +0.000 C 
ATOM      8  C   UNL     1       2.249   4.138  17.657  0.00  0.00    +0.000 C 
ENDROOT
BRANCH   2   9
ATOM      9  C   UNL     1       2.275   7.310  19.223  0.00  0.00    +0.000 A 
ATOM     10  C   UNL     1       2.083   8.129  18.102  0.00  0.00    +0.000 A 
ATOM     11  C   UNL     1       1.396   9.339  18.218  0.00  0.00    +0.000 A 
ATOM     12  C   UNL     1       0.893   9.736  19.454  0.00  0.00    +0.000 A 
ATOM     13  C   UNL     1       1.066   8.919  20.573  0.00  0.00    +0.000 A 
ATOM     14  C   UNL     1       1.756   7.707  20.460  0.00  0.00    +0.000 A 
ENDBRANCH   2   9
BRANCH   1  15
ATOM     15  S   UNL     1       5.310   4.835  19.028  0.00  0.00    +0.000 S 
ATOM     16  O   UNL     1       4.496   3.659  19.286  0.00  0.00    +0.000 OA
ATOM     17  O   UNL     1       6.549   5.062  19.751  0.00  0.00    +0.000 OA
BRANCH  15  22
ATOM     18  C   UNL     1       6.922   4.359  13.153  0.00  0.00    +0.000 C 
ATOM     19  C   UNL     1       6.543   4.430  14.603  0.00  0.00    +0.000 A 
ATOM     20  C   UNL     1       5.727   3.463  15.203  0.00  0.00    +0.000 A 
ATOM     21  C   UNL     1       5.361   3.574  16.552  0.00  0.00    +0.000 A 
ATOM     22  C   UNL     1       5.814   4.657  17.312  0.00  0.00    +0.000 A 
ATOM     23  C   UNL     1       6.661   5.628  16.736  0.00  0.00    +0.000 A 
ATOM     24  C   UNL     1       7.211   6.826  17.461  0.00  0.00    +0.000 C 
ATOM     25  C   UNL     1       7.008   5.499  15.380  0.00  0.00    +0.000 A 
ENDBRANCH  15  22
ENDBRANCH   1  15
TORSDOF 3
ENDMDL
MODEL 3
REMARK VINA RESULT:      -8.0      1.712      6.249
REMARK  Name = 
REMARK  5 active torsions:
REMARK  status: ('A' for Active; 'I' for Inactive)
REMARK    1  A    between atoms: C_1  and  C_2
REMARK    2  A    between atoms: C_5  and  S_6
REMARK    3  A    between atoms: S_6  and  N_9
REMARK    4  A    between atoms: C_10  and  C_11
REMARK    5  A    between atoms: C_23  and  C_24
REMARK                            x       y       z     vdW  Elec       q    Type
REMARK                         _______ _______ _______ _____ _____    ______ ____
ROOT
ATOM      1  N   UNL     1       3.736   6.047  17.856  0.00  0.00    +0.000 NA
ATOM      2  C   UNL     1       4.142   4.840  17.575  0.00  0.00    +0.000 C 
ATOM      3  N   UNL     1       3.728   3.662  18.181  0.00  0.00    +0.000 N 
ATOM      4  C   UNL     1       3.087   2.570  17.433  0.00  0.00    +0.000 C 
ATOM      5  C   UNL     1       1.898   2.050  18.255  0.00  0.00    +0.000 C 
ATOM      6  O   UNL     1       2.343   1.577  19.541  0.00  0.00    +0.000 OA
ATOM      7  C   UNL     1       2.960   2.646  20.286  0.00  0.00    +0.000 C 
ATOM      8  C   UNL     1       4.154   3.248  19.527  0.00  0.00    +0.000 C 
ENDROOT
BRANCH   2   9
ATOM      9  C   UNL     1       5.168   4.717  16.472  0.00  0.00    +0.000 A 
ATOM     10  C   UNL     1       6.523   4.944  16.747  0.00  0.00    +0.000 A 
ATOM     11  C   UNL     1       7.472   4.889  15.724  0.00  0.00    +0.000 A 
ATOM     12  C   UNL     1       7.073   4.601  14.422  0.00  0.00    +0.000 A 
ATOM     13  C   UNL     1       5.727   4.358  14.142  0.00  0.00    +0.000 A 
ATOM     14  C   UNL     1       4.774   4.416  15.164  0.00  0.00    +0.000 A 
ENDBRANCH   2   9
BRANCH   1  15
ATOM     15  S   UNL     1       2.638   6.280  19.028  0.00  0.00    +0.000 S 
ATOM     16  O   UNL     1       3.304   6.162  20.314  0.00  0.00    +0.000 OA
ATOM     17  O   UNL     1       1.447   5.504  18.728  0.00  0.00    +0.000 OA
BRANCH  15  22
ATOM     18  C   UNL     1       0.620  12.043  18.802  0.00  0.00    +0.000 C 
ATOM     19  C   UNL     1       1.162  10.644  18.848  0.00  0.00    +0.000 A 
ATOM     20  C   UNL     1       1.910  10.105  17.794  0.00  0.00    +0.000 A 
ATOM     21  C   UNL     1       2.373   8.783  17.850  0.00  0.00    +0.000 A 
ATOM     22  C   UNL     1       2.091   7.991  18.968  0.00  0.00    +0.000 A 
ATOM     23  C   UNL     1       1.365   8.522  20.055  0.00  0.00    +0.000 A 
ATOM     24  C   UNL     1       1.012   7.765  21.306  0.00  0.00    +0.000 C 
ATOM     25  C   UNL     1       0.904   9.848  19.972  0.00  0.00    +0.000 A 
ENDBRANCH  15  22
ENDBRANCH   1  15
TORSDOF 3
ENDMDL
MODEL 4
REMARK VINA RESULT:      -7.8      5.375      7.897
REMARK  Name = 
REMARK  5 active torsions:
REMARK  status: ('A' for Active; 'I' for Inactive)
REMARK    1  A    between atoms: C_1  and  C_2
REMARK    2  A    between atoms: C_5  and  S_6
REMARK    3  A    between atoms: S_6  and  N_9
REMARK    4  A    between atoms: C_10  and  C_11
REMARK    5  A    between atoms: C_23  and  C_24
REMARK                            x       y       z     vdW  Elec       q    Type
REMARK                         _______ _______ _______ _____ _____    ______ ____
ROOT
ATOM      1  N   UNL     1      -0.849  10.090  19.399  0.00  0.00    +0.000 NA
ATOM      2  C   UNL     1      -1.539  11.196  19.408  0.00  0.00    +0.000 C 
ATOM      3  N   UNL     1      -1.392  12.259  20.288  0.00  0.00    +0.000 N 
ATOM      4  C   UNL     1      -1.056  13.618  19.839  0.00  0.00    +0.000 C 
ATOM      5  C   UNL     1       0.006  14.195  20.787  0.00  0.00    +0.000 C 
ATOM      6  O   UNL     1      -0.489  14.227  22.139  0.00  0.00    +0.000 OA
ATOM      7  C   UNL     1      -0.808  12.896  22.592  0.00  0.00    +0.000 C 
ATOM      8  C   UNL     1      -1.853  12.225  21.685  0.00  0.00    +0.000 C 
ENDROOT
BRANCH   2   9
ATOM      9  C   UNL     1      -2.605  11.330  18.346  0.00  0.00    +0.000 A 
ATOM     10  C   UNL     1      -3.903  11.723  18.701  0.00  0.00    +0.000 A 
ATOM     11  C   UNL     1      -4.910  11.796  17.737  0.00  0.00    +0.000 A 
ATOM     12  C   UNL     1      -4.625  11.482  16.410  0.00  0.00    +0.000 A 
ATOM     13  C   UNL     1      -3.332  11.105  16.045  0.00  0.00    +0.000 A 
ATOM     14  C   UNL     1      -2.321  11.028  17.010  0.00  0.00    +0.000 A 
ENDBRANCH   2   9
BRANCH   1  15
ATOM     15  S   UNL     1       0.316   9.852  20.503  0.00  0.00    +0.000 S 
ATOM     16  O   UNL     1      -0.305   9.417  21.743  0.00  0.00    +0.000 OA
ATOM     17  O   UNL     1       1.233  10.978  20.480  0.00  0.00    +0.000 OA
BRANCH  15  22
ATOM     18  C   UNL     1       3.584   5.035  18.644  0.00  0.00    +0.000 C 
ATOM     19  C   UNL     1       2.809   6.219  19.142  0.00  0.00    +0.000 A 
ATOM     20  C   UNL     1       2.179   6.219  20.393  0.00  0.00    +0.000 A 
ATOM     21  C   UNL     1       1.432   7.326  20.818  0.00  0.00    +0.000 A 
ATOM     22  C   UNL     1       1.312   8.447  19.990  0.00  0.00    +0.000 A 
ATOM     23  C   UNL     1       1.963   8.482  18.738  0.00  0.00    +0.000 A 
ATOM     24  C   UNL     1       1.908   9.634  17.772  0.00  0.00    +0.000 C 
ATOM     25  C   UNL     1       2.700   7.356  18.331  0.00  0.00    +0.000 A 
ENDBRANCH  15  22
ENDBRANCH   1  15
TORSDOF 3
ENDMDL
MODEL 5
REMARK VINA RESULT:      -7.6      1.943      6.421
REMARK  Name = 
REMARK  5 active torsions:
REMARK  status: ('A' for Active; 'I' for Inactive)
REMARK    1  A    between atoms: C_1  and  C_2
REMARK    2  A    between atoms: C_5  and  S_6
REMARK    3  A    between atoms: S_6  and  N_9
REMARK    4  A    between atoms: C_10  and  C_11
REMARK    5  A    between atoms: C_23  and  C_24
REMARK                            x       y       z     vdW  Elec       q    Type
REMARK                         _______ _______ _______ _____ _____    ______ ____
ROOT
ATOM      1  N   UNL     1       3.430   6.129  19.044  0.00  0.00    +0.000 NA
ATOM      2  C   UNL     1       3.852   4.985  18.584  0.00  0.00    +0.000 C 
ATOM      3  N   UNL     1       3.306   3.735  18.838  0.00  0.00    +0.000 N 
ATOM      4  C   UNL     1       2.788   2.865  17.772  0.00  0.00    +0.000 C 
ATOM      5  C   UNL     1       1.457   2.260  18.243  0.00  0.00    +0.000 C 
ATOM      6  O   UNL     1       1.648   1.502  19.453  0.00  0.00    +0.000 OA
ATOM      7  C   UNL     1       2.143   2.351  20.507  0.00  0.00    +0.000 C 
ATOM      8  C   UNL     1       3.470   3.023  20.115  0.00  0.00    +0.000 C 
ENDROOT
BRANCH   2   9
ATOM      9  C   UNL     1       5.059   5.032  17.675  0.00  0.00    +0.000 A 
ATOM     10  C   UNL     1       4.915   5.429  16.339  0.00  0.00    +0.000 A 
ATOM     11  C   UNL     1       6.013   5.422  15.476  0.00  0.00    +0.000 A 
ATOM     12  C   UNL     1       7.262   5.022  15.944  0.00  0.00    +0.000 A 
ATOM     13  C   UNL     1       7.417   4.639  17.277  0.00  0.00    +0.000 A 
ATOM     14  C   UNL     1       6.319   4.642  18.144  0.00  0.00    +0.000 A 
ENDBRANCH   2   9
BRANCH   1  15
ATOM     15  S   UNL     1       2.143   6.181  20.030  0.00  0.00    +0.000 S 
ATOM     16  O   UNL     1       2.570   5.805  21.368  0.00  0.00    +0.000 OA
ATOM     17  O   UNL     1       1.022   5.515  19.388  0.00  0.00    +0.000 OA
BRANCH  15  22
ATOM     18  C   UNL     1       0.519  12.046  20.579  0.00  0.00    +0.000 C 
ATOM     19  C   UNL     1       0.874  10.592  20.464  0.00  0.00    +0.000 A 
ATOM     20  C   UNL     1       0.839   9.732  21.569  0.00  0.00    +0.000 A 
ATOM     21  C   UNL     1       1.210   8.387  21.440  0.00  0.00    +0.000 A 
ATOM     22  C   UNL     1       1.618   7.891  20.197  0.00  0.00    +0.000 A 
ATOM     23  C   UNL     1       1.632   8.732  19.064  0.00  0.00    +0.000 A 
ATOM     24  C   UNL     1       2.046   8.304  17.681  0.00  0.00    +0.000 C 
ATOM     25  C   UNL     1       1.264  10.079  19.220  0.00  0.00    +0.000 A 
ENDBRANCH  15  22
ENDBRANCH   1  15
TORSDOF 3
ENDMDL
MODEL 6
REMARK VINA RESULT:      -7.2      2.428      6.548
REMARK  Name = 
REMARK  5 active torsions:
REMARK  status: ('A' for Active; 'I' for Inactive)
REMARK    1  A    between atoms: C_1  and  C_2
REMARK    2  A    between atoms: C_5  and  S_6
REMARK    3  A    between atoms: S_6  and  N_9
REMARK    4  A    between atoms: C_10  and  C_11
REMARK    5  A    between atoms: C_23  and  C_24
REMARK                            x       y       z     vdW  Elec       q    Type
REMARK                         _______ _______ _______ _____ _____    ______ ____
ROOT
ATOM      1  N   UNL     1       3.517   6.430  19.573  0.00  0.00    +0.000 NA
ATOM      2  C   UNL     1       4.255   5.498  19.038  0.00  0.00    +0.000 C 
ATOM      3  N   UNL     1       3.875   4.192  18.764  0.00  0.00    +0.000 N 
ATOM      4  C   UNL     1       3.896   3.629  17.406  0.00  0.00    +0.000 C 
ATOM      5  C   UNL     1       2.606   2.822  17.194  0.00  0.00    +0.000 C 
ATOM      6  O   UNL     1       2.507   1.765  18.167  0.00  0.00    +0.000 OA
ATOM      7  C   UNL     1       2.471   2.310  19.502  0.00  0.00    +0.000 C 
ATOM      8  C   UNL     1       3.720   3.159  19.799  0.00  0.00    +0.000 C 
ENDROOT
BRANCH   2   9
ATOM      9  C   UNL     1       5.670   5.888  18.676  0.00  0.00    +0.000 A 
ATOM     10  C   UNL     1       6.743   5.426  19.449  0.00  0.00    +0.000 A 
ATOM     11  C   UNL     1       8.049   5.825  19.158  0.00  0.00    +0.000 A 
ATOM     12  C   UNL     1       8.291   6.684  18.089  0.00  0.00    +0.000 A 
ATOM     13  C   UNL     1       7.229   7.137  17.304  0.00  0.00    +0.000 A 
ATOM     14  C   UNL     1       5.919   6.742  17.596  0.00  0.00    +0.000 A 
ENDBRANCH   2   9
BRANCH   1  15
ATOM     15  S   UNL     1       1.985   6.106  19.998  0.00  0.00    +0.000 S 
ATOM     16  O   UNL     1       1.999   5.378  21.255  0.00  0.00    +0.000 OA
ATOM     17  O   UNL     1       1.267   5.594  18.844  0.00  0.00    +0.000 OA
BRANCH  15  22
ATOM     18  C   UNL     1      -0.664  11.439  21.368  0.00  0.00    +0.000 C 
ATOM     19  C   UNL     1      -0.058  10.107  21.038  0.00  0.00    +0.000 A 
ATOM     20  C   UNL     1      -0.163   9.011  21.904  0.00  0.00    +0.000 A 
ATOM     21  C   UNL     1       0.444   7.788  21.585  0.00  0.00    +0.000 A 
ATOM     22  C   UNL     1       1.161   7.654  20.392  0.00  0.00    +0.000 A 
ATOM     23  C   UNL     1       1.256   8.736  19.491  0.00  0.00    +0.000 A 
ATOM     24  C   UNL     1       1.994   8.701  18.181  0.00  0.00    +0.000 C 
ATOM     25  C   UNL     1       0.645   9.954  19.836  0.00  0.00    +0.000 A 
ENDBRANCH  15  22
ENDBRANCH   1  15
TORSDOF 3
ENDMDL
MODEL 7
REMARK VINA RESULT:      -7.1      5.330      7.829
REMARK  Name = 
REMARK  5 active torsions:
REMARK  status: ('A' for Active; 'I' for Inactive)
REMARK    1  A    between atoms: C_1  and  C_2
REMARK    2  A    between atoms: C_5  and  S_6
REMARK    3  A    between atoms: S_6  and  N_9
REMARK    4  A    between atoms: C_10  and  C_11
REMARK    5  A    between atoms: C_23  and  C_24
REMARK                            x       y       z     vdW  Elec       q    Type
REMARK                         _______ _______ _______ _____ _____    ______ ____
ROOT
ATOM      1  N   UNL     1      -0.282  10.341  18.654  0.00  0.00    +0.000 NA
ATOM      2  C   UNL     1      -0.983  11.440  18.683  0.00  0.00    +0.000 C 
ATOM      3  N   UNL     1      -0.610  12.647  19.256  0.00  0.00    +0.000 N 
ATOM      4  C   UNL     1      -0.500  13.891  18.480  0.00  0.00    +0.000 C 
ATOM      5  C   UNL     1       0.783  14.620  18.907  0.00  0.00    +0.000 C 
ATOM      6  O   UNL     1       0.749  14.916  20.316  0.00  0.00    +0.000 OA
ATOM      7  C   UNL     1       0.656  13.700  21.085  0.00  0.00    +0.000 C 
ATOM      8  C   UNL     1      -0.594  12.887  20.707  0.00  0.00    +0.000 C 
ENDROOT
BRANCH   2   9
ATOM      9  C   UNL     1      -2.340  11.388  18.020  0.00  0.00    +0.000 A 
ATOM     10  C   UNL     1      -2.453  10.969  16.687  0.00  0.00    +0.000 A 
ATOM     11  C   UNL     1      -3.693  10.971  16.047  0.00  0.00    +0.000 A 
ATOM     12  C   UNL     1      -4.829  11.387  16.736  0.00  0.00    +0.000 A 
ATOM     13  C   UNL     1      -4.729  11.791  18.069  0.00  0.00    +0.000 A 
ATOM     14  C   UNL     1      -3.486  11.793  18.712  0.00  0.00    +0.000 A 
ENDBRANCH   2   9
BRANCH   1  15
ATOM     15  S   UNL     1       1.187  10.297  19.343  0.00  0.00    +0.000 S 
ATOM     16  O   UNL     1       1.019  10.275  20.786  0.00  0.00    +0.000 OA
ATOM     17  O   UNL     1       2.043  11.281  18.704  0.00  0.00    +0.000 OA
BRANCH  15  22
ATOM     18  C   UNL     1       3.903   4.952  18.165  0.00  0.00    +0.000 C 
ATOM     19  C   UNL     1       3.212   6.261  18.411  0.00  0.00    +0.000 A 
ATOM     20  C   UNL     1       3.268   7.313  17.487  0.00  0.00    +0.000 A 
ATOM     21  C   UNL     1       2.642   8.537  17.759  0.00  0.00    +0.000 A 
ATOM     22  C   UNL     1       1.951   8.716  18.962  0.00  0.00    +0.000 A 
ATOM     23  C   UNL     1       1.855   7.661  19.894  0.00  0.00    +0.000 A 
ATOM     24  C   UNL     1       1.133   7.740  21.212  0.00  0.00    +0.000 C 
ATOM     25  C   UNL     1       2.498   6.445  19.602  0.00  0.00    +0.000 A 
ENDBRANCH  15  22
ENDBRANCH   1  15
TORSDOF 3
ENDMDL
MODEL 8
REMARK VINA RESULT:      -7.1      6.640      9.302
REMARK  Name = 
REMARK  5 active torsions:
REMARK  status: ('A' for Active; 'I' for Inactive)
REMARK    1  A    between atoms: C_1  and  C_2
REMARK    2  A    between atoms: C_5  and  S_6
REMARK    3  A    between atoms: S_6  and  N_9
REMARK    4  A    between atoms: C_10  and  C_11
REMARK    5  A    between atoms: C_23  and  C_24
REMARK                            x       y       z     vdW  Elec       q    Type
REMARK                         _______ _______ _______ _____ _____    ______ ____
ROOT
ATOM      1  N   UNL     1       0.376  13.076  19.494  0.00  0.00    +0.000 NA
ATOM      2  C   UNL     1      -0.023  14.253  19.885  0.00  0.00    +0.000 C 
ATOM      3  N   UNL     1      -0.824  14.537  20.982  0.00  0.00    +0.000 N 
ATOM      4  C   UNL     1      -0.377  15.397  22.088  0.00  0.00    +0.000 C 
ATOM      5  C   UNL     1      -0.794  14.743  23.413  0.00  0.00    +0.000 C 
ATOM      6  O   UNL     1      -2.223  14.573  23.464  0.00  0.00    +0.000 OA
ATOM      7  C   UNL     1      -2.668  13.718  22.391  0.00  0.00    +0.000 C 
ATOM      8  C   UNL     1      -2.273  14.284  21.016  0.00  0.00    +0.000 C 
ENDROOT
BRANCH   2   9
ATOM      9  C   UNL     1       0.440  15.429  19.055  0.00  0.00    +0.000 A 
ATOM     10  C   UNL     1       1.806  15.613  18.802  0.00  0.00    +0.000 A 
ATOM     11  C   UNL     1       2.250  16.725  18.086  0.00  0.00    +0.000 A 
ATOM     12  C   UNL     1       1.331  17.659  17.613  0.00  0.00    +0.000 A 
ATOM     13  C   UNL     1      -0.033  17.475  17.847  0.00  0.00    +0.000 A 
ATOM     14  C   UNL     1      -0.480  16.363  18.568  0.00  0.00    +0.000 A 
ENDBRANCH   2   9
BRANCH   1  15
ATOM     15  S   UNL     1      -0.073  11.753  20.318  0.00  0.00    +0.000 S 
ATOM     16  O   UNL     1      -1.471  11.480  20.028  0.00  0.00    +0.000 OA
ATOM     17  O   UNL     1       0.400  11.860  21.688  0.00  0.00    +0.000 OA
BRANCH  15  22
ATOM     18  C   UNL     1       3.033   6.960  18.144  0.00  0.00    +0.000 C 
ATOM     19  C   UNL     1       2.243   8.137  18.637  0.00  0.00    +0.000 A 
ATOM     20  C   UNL     1       2.101   9.305  17.876  0.00  0.00    +0.000 A 
ATOM     21  C   UNL     1       1.387  10.402  18.377  0.00  0.00    +0.000 A 
ATOM     22  C   UNL     1       0.804  10.335  19.647  0.00  0.00    +0.000 A 
ATOM     23  C   UNL     1       0.908   9.158  20.419  0.00  0.00    +0.000 A 
ATOM     24  C   UNL     1       0.316   8.974  21.790  0.00  0.00    +0.000 C 
ATOM     25  C   UNL     1       1.637   8.074  19.898  0.00  0.00    +0.000 A 
ENDBRANCH  15  22
ENDBRANCH   1  15
TORSDOF 3
ENDMDL
MODEL 9
REMARK VINA RESULT:      -6.9      5.726      8.370
REMARK  Name = 
REMARK  5 active torsions:
REMARK  status: ('A' for Active; 'I' for Inactive)
REMARK    1  A    between atoms: C_1  and  C_2
REMARK    2  A    between atoms: C_5  and  S_6
REMARK    3  A    between atoms: S_6  and  N_9
REMARK    4  A    between atoms: C_10  and  C_11
REMARK    5  A    between atoms: C_23  and  C_24
REMARK                            x       y       z     vdW  Elec       q    Type
REMARK                         _______ _______ _______ _____ _____    ______ ____
ROOT
ATOM      1  N   UNL     1      -0.571  10.995  19.525  0.00  0.00    +0.000 NA
ATOM      2  C   UNL     1      -1.197  12.135  19.627  0.00  0.00    +0.000 C 
ATOM      3  N   UNL     1      -0.642  13.359  19.973  0.00  0.00    +0.000 N 
ATOM      4  C   UNL     1      -0.685  14.528  19.083  0.00  0.00    +0.000 C 
ATOM      5  C   UNL     1       0.692  15.207  19.105  0.00  0.00    +0.000 C 
ATOM      6  O   UNL     1       1.031  15.616  20.444  0.00  0.00    +0.000 OA
ATOM      7  C   UNL     1       1.089  14.473  21.321  0.00  0.00    +0.000 C 
ATOM      8  C   UNL     1      -0.247  13.711  21.346  0.00  0.00    +0.000 C 
ENDROOT
BRANCH   2   9
ATOM      9  C   UNL     1      -2.679  12.114  19.334  0.00  0.00    +0.000 A 
ATOM     10  C   UNL     1      -3.586  12.631  20.269  0.00  0.00    +0.000 A 
ATOM     11  C   UNL     1      -4.960  12.567  20.033  0.00  0.00    +0.000 A 
ATOM     12  C   UNL     1      -5.437  11.990  18.859  0.00  0.00    +0.000 A 
ATOM     13  C   UNL     1      -4.541  11.487  17.914  0.00  0.00    +0.000 A 
ATOM     14  C   UNL     1      -3.163  11.547  18.150  0.00  0.00    +0.000 A 
ENDBRANCH   2   9
BRANCH   1  15
ATOM     15  S   UNL     1       1.022  10.916  19.824  0.00  0.00    +0.000 S 
ATOM     16  O   UNL     1       1.221  10.907  21.264  0.00  0.00    +0.000 OA
ATOM     17  O   UNL     1       1.715  11.873  18.979  0.00  0.00    +0.000 OA
BRANCH  15  22
ATOM     18  C   UNL     1       3.212   5.483  18.087  0.00  0.00    +0.000 C 
ATOM     19  C   UNL     1       2.644   6.817  18.473  0.00  0.00    +0.000 A 
ATOM     20  C   UNL     1       2.648   7.907  17.593  0.00  0.00    +0.000 A 
ATOM     21  C   UNL     1       2.144   9.151  17.994  0.00  0.00    +0.000 A 
ATOM     22  C   UNL     1       1.626   9.313  19.283  0.00  0.00    +0.000 A 
ATOM     23  C   UNL     1       1.585   8.222  20.177  0.00  0.00    +0.000 A 
ATOM     24  C   UNL     1       1.046   8.280  21.581  0.00  0.00    +0.000 C 
ATOM     25  C   UNL     1       2.104   6.985  19.755  0.00  0.00    +0.000 A 
ENDBRANCH  15  22
ENDBRANCH   1  15
TORSDOF 3
ENDMDL
