MODEL 1
REMARK VINA RESULT:      -8.7      0.000      0.000
REMARK  Name = 
REMARK  3 active torsions:
REMARK  status: ('A' for Active; 'I' for Inactive)
REMARK    1  A    between atoms: C_5  and  C_6
REMARK    2  A    between atoms: C_9  and  C_10
REMARK    3  A    between atoms: C_10  and  N_11
REMARK                            x       y       z     vdW  Elec       q    Type
REMARK                         _______ _______ _______ _____ _____    ______ ____
ROOT
ATOM      1  C   UNL     1       0.710   9.578  20.003  0.00  0.00    +0.000 A 
ATOM      2  C   UNL     1       1.254   8.421  20.589  0.00  0.00    +0.000 A 
ATOM      3  C   UNL     1       2.086   7.531  19.885  0.00  0.00    +0.000 A 
ATOM      4  C   UNL     1       2.473   7.793  18.567  0.00  0.00    +0.000 A 
ATOM      5  C   UNL     1       2.002   8.975  17.984  0.00  0.00    +0.000 A 
ATOM      6  C   UNL     1       1.136   9.840  18.685  0.00  0.00    +0.000 A 
ENDROOT
BRANCH   1  11
ATOM      7 CL   UNL     1      -3.271  13.285  22.726  0.00  0.00    +0.000 Cl
ATOM      8  C   UNL     1      -2.126  12.246  21.973  0.00  0.00    +0.000 A 
ATOM      9  C   UNL     1      -1.981  12.250  20.594  0.00  0.00    +0.000 A 
ATOM     10  C   UNL     1      -1.043  11.397  19.987  0.00  0.00    +0.000 A 
ATOM     11  C   UNL     1      -0.242  10.492  20.725  0.00  0.00    +0.000 A 
ATOM     12  C   UNL     1      -0.442  10.509  22.130  0.00  0.00    +0.000 A 
ATOM     13 CL   UNL     1       0.340   9.414  23.227  0.00  0.00    +0.000 Cl
ATOM     14  C   UNL     1      -1.356  11.387  22.742  0.00  0.00    +0.000 A 
ENDBRANCH   1  11
BRANCH   4  15
ATOM     15  C   UNL     1       3.533   6.955  17.890  0.00  0.00    +0.000 C 
BRANCH  15  16
ATOM     16  N   UNL     1       3.794   5.573  18.281  0.00  0.00    +0.000 N 
ATOM     17  N   UNL     1       5.081   5.339  18.661  0.00  0.00    +0.000 NA
ATOM     18  N   UNL     1       5.193   4.082  19.035  0.00  0.00    +0.000 NA
ATOM     19  C   UNL     1       3.970   3.498  18.894  0.00  0.00    +0.000 A 
ATOM     20  C   UNL     1       3.591   2.174  19.166  0.00  0.00    +0.000 A 
ATOM     21  C   UNL     1       2.267   1.800  18.940  0.00  0.00    +0.000 A 
ATOM     22  C   UNL     1       1.346   2.731  18.456  0.00  0.00    +0.000 A 
ATOM     23  C   UNL     1       1.707   4.066  18.181  0.00  0.00    +0.000 A 
ATOM     24  C   UNL     1       3.044   4.429  18.409  0.00  0.00    +0.000 A 
ENDBRANCH  15  16
ENDBRANCH   4  15
TORSDOF 3
ENDMDL
MODEL 2
REMARK VINA RESULT:      -8.6      2.701      3.523
REMARK  Name = 
REMARK  3 active torsions:
REMARK  status: ('A' for Active; 'I' for Inactive)
REMARK    1  A    between atoms: C_5  and  C_6
REMARK    2  A    between atoms: C_9  and  C_10
REMARK    3  A    between atoms: C_10  and  N_11
REMARK                            x       y       z     vdW  Elec       q    Type
REMARK                         _______ _______ _______ _____ _____    ______ ____
ROOT
ATOM      1  C   UNL     1       1.365   9.880  18.978  0.00  0.00    +0.000 A 
ATOM      2  C   UNL     1       1.982   9.323  17.842  0.00  0.00    +0.000 A 
ATOM      3  C   UNL     1       2.573   8.047  17.847  0.00  0.00    +0.000 A 
ATOM      4  C   UNL     1       2.516   7.227  18.979  0.00  0.00    +0.000 A 
ATOM      5  C   UNL     1       1.844   7.730  20.099  0.00  0.00    +0.000 A 
ATOM      6  C   UNL     1       1.291   9.027  20.098  0.00  0.00    +0.000 A 
ENDROOT
BRANCH   1  11
ATOM      7 CL   UNL     1      -0.702  15.600  19.052  0.00  0.00    +0.000 Cl
ATOM      8  C   UNL     1      -0.139  13.975  19.046  0.00  0.00    +0.000 A 
ATOM      9  C   UNL     1       1.168  13.688  19.411  0.00  0.00    +0.000 A 
ATOM     10  C   UNL     1       1.619  12.357  19.402  0.00  0.00    +0.000 A 
ATOM     11  C   UNL     1       0.799  11.273  19.003  0.00  0.00    +0.000 A 
ATOM     12  C   UNL     1      -0.522  11.619  18.618  0.00  0.00    +0.000 A 
ATOM     13 CL   UNL     1      -1.670  10.481  17.986  0.00  0.00    +0.000 Cl
ATOM     14  C   UNL     1      -0.986  12.948  18.659  0.00  0.00    +0.000 A 
ENDBRANCH   1  11
BRANCH   4  15
ATOM     15  C   UNL     1       2.957   5.784  18.912  0.00  0.00    +0.000 C 
BRANCH  15  16
ATOM     16  N   UNL     1       4.333   5.407  18.604  0.00  0.00    +0.000 N 
ATOM     17  N   UNL     1       5.075   5.078  19.698  0.00  0.00    +0.000 NA
ATOM     18  N   UNL     1       6.277   4.713  19.303  0.00  0.00    +0.000 NA
ATOM     19  C   UNL     1       6.313   4.807  17.944  0.00  0.00    +0.000 A 
ATOM     20  C   UNL     1       7.374   4.524  17.071  0.00  0.00    +0.000 A 
ATOM     21  C   UNL     1       7.176   4.699  15.702  0.00  0.00    +0.000 A 
ATOM     22  C   UNL     1       5.943   5.145  15.222  0.00  0.00    +0.000 A 
ATOM     23  C   UNL     1       4.864   5.430  16.083  0.00  0.00    +0.000 A 
ATOM     24  C   UNL     1       5.078   5.254  17.459  0.00  0.00    +0.000 A 
ENDBRANCH  15  16
ENDBRANCH   4  15
TORSDOF 3
ENDMDL
MODEL 3
REMARK VINA RESULT:      -8.6      4.527      8.435
REMARK  Name = 
REMARK  3 active torsions:
REMARK  status: ('A' for Active; 'I' for Inactive)
REMARK    1  A    between atoms: C_5  and  C_6
REMARK    2  A    between atoms: C_9  and  C_10
REMARK    3  A    between atoms: C_10  and  N_11
REMARK                            x       y       z     vdW  Elec       q    Type
REMARK                         _______ _______ _______ _____ _____    ______ ____
ROOT
ATOM      1  C   UNL     1       2.543   7.585  18.409  0.00  0.00    +0.000 A 
ATOM      2  C   UNL     1       2.086   7.455  19.733  0.00  0.00    +0.000 A 
ATOM      3  C   UNL     1       1.368   8.469  20.392  0.00  0.00    +0.000 A 
ATOM      4  C   UNL     1       1.008   9.647  19.732  0.00  0.00    +0.000 A 
ATOM      5  C   UNL     1       1.389   9.771  18.391  0.00  0.00    +0.000 A 
ATOM      6  C   UNL     1       2.145   8.767  17.751  0.00  0.00    +0.000 A 
ENDROOT
BRANCH   1  11
ATOM      7 CL   UNL     1       6.108   3.492  15.663  0.00  0.00    +0.000 Cl
ATOM      8  C   UNL     1       5.079   4.640  16.425  0.00  0.00    +0.000 A 
ATOM      9  C   UNL     1       5.420   5.984  16.437  0.00  0.00    +0.000 A 
ATOM     10  C   UNL     1       4.573   6.914  17.063  0.00  0.00    +0.000 A 
ATOM     11  C   UNL     1       3.378   6.539  17.722  0.00  0.00    +0.000 A 
ATOM     12  C   UNL     1       3.083   5.151  17.703  0.00  0.00    +0.000 A 
ATOM     13 CL   UNL     1       1.737   4.440  18.539  0.00  0.00    +0.000 Cl
ATOM     14  C   UNL     1       3.913   4.221  17.047  0.00  0.00    +0.000 A 
ENDBRANCH   1  11
BRANCH   4  15
ATOM     15  C   UNL     1       0.057  10.633  20.370  0.00  0.00    +0.000 C 
BRANCH  15  16
ATOM     16  N   UNL     1      -1.176  11.055  19.713  0.00  0.00    +0.000 N 
ATOM     17  N   UNL     1      -1.841  12.046  20.370  0.00  0.00    +0.000 NA
ATOM     18  N   UNL     1      -2.906  12.380  19.671  0.00  0.00    +0.000 NA
ATOM     19  C   UNL     1      -2.930  11.599  18.555  0.00  0.00    +0.000 A 
ATOM     20  C   UNL     1      -3.867  11.586  17.511  0.00  0.00    +0.000 A 
ATOM     21  C   UNL     1      -3.684  10.687  16.461  0.00  0.00    +0.000 A 
ATOM     22  C   UNL     1      -2.587   9.823  16.459  0.00  0.00    +0.000 A 
ATOM     23  C   UNL     1      -1.633   9.824  17.497  0.00  0.00    +0.000 A 
ATOM     24  C   UNL     1      -1.832  10.732  18.550  0.00  0.00    +0.000 A 
ENDBRANCH  15  16
ENDBRANCH   4  15
TORSDOF 3
ENDMDL
MODEL 4
REMARK VINA RESULT:      -8.6      1.464      1.708
REMARK  Name = 
REMARK  3 active torsions:
REMARK  status: ('A' for Active; 'I' for Inactive)
REMARK    1  A    between atoms: C_5  and  C_6
REMARK    2  A    between atoms: C_9  and  C_10
REMARK    3  A    between atoms: C_10  and  N_11
REMARK                            x       y       z     vdW  Elec       q    Type
REMARK                         _______ _______ _______ _____ _____    ______ ____
ROOT
ATOM      1  C   UNL     1       0.901   9.638  19.307  0.00  0.00    +0.000 A 
ATOM      2  C   UNL     1       1.317   8.556  20.104  0.00  0.00    +0.000 A 
ATOM      3  C   UNL     1       2.194   7.561  19.637  0.00  0.00    +0.000 A 
ATOM      4  C   UNL     1       2.759   7.635  18.360  0.00  0.00    +0.000 A 
ATOM      5  C   UNL     1       2.417   8.741  17.572  0.00  0.00    +0.000 A 
ATOM      6  C   UNL     1       1.504   9.712  18.034  0.00  0.00    +0.000 A 
ENDROOT
BRANCH   1  11
ATOM      7 CL   UNL     1      -2.953  13.910  21.280  0.00  0.00    +0.000 Cl
ATOM      8  C   UNL     1      -1.884  12.684  20.724  0.00  0.00    +0.000 A 
ATOM      9  C   UNL     1      -0.661  12.488  21.349  0.00  0.00    +0.000 A 
ATOM     10  C   UNL     1       0.207  11.484  20.886  0.00  0.00    +0.000 A 
ATOM     11  C   UNL     1      -0.096  10.663  19.772  0.00  0.00    +0.000 A 
ATOM     12  C   UNL     1      -1.348  10.916  19.153  0.00  0.00    +0.000 A 
ATOM     13 CL   UNL     1      -1.886  10.118  17.708  0.00  0.00    +0.000 Cl
ATOM     14  C   UNL     1      -2.233  11.899  19.636  0.00  0.00    +0.000 A 
ENDBRANCH   1  11
BRANCH   4  15
ATOM     15  C   UNL     1       3.861   6.689  17.944  0.00  0.00    +0.000 C 
BRANCH  15  16
ATOM     16  N   UNL     1       3.904   5.302  18.398  0.00  0.00    +0.000 N 
ATOM     17  N   UNL     1       5.125   4.907  18.854  0.00  0.00    +0.000 NA
ATOM     18  N   UNL     1       5.039   3.664  19.279  0.00  0.00    +0.000 NA
ATOM     19  C   UNL     1       3.753   3.252  19.096  0.00  0.00    +0.000 A 
ATOM     20  C   UNL     1       3.178   2.008  19.396  0.00  0.00    +0.000 A 
ATOM     21  C   UNL     1       1.826   1.814  19.115  0.00  0.00    +0.000 A 
ATOM     22  C   UNL     1       1.070   2.843  18.549  0.00  0.00    +0.000 A 
ATOM     23  C   UNL     1       1.631   4.100  18.245  0.00  0.00    +0.000 A 
ATOM     24  C   UNL     1       2.993   4.281  18.528  0.00  0.00    +0.000 A 
ENDBRANCH  15  16
ENDBRANCH   4  15
TORSDOF 3
ENDMDL
MODEL 5
REMARK VINA RESULT:      -8.6      2.488      3.169
REMARK  Name = 
REMARK  3 active torsions:
REMARK  status: ('A' for Active; 'I' for Inactive)
REMARK    1  A    between atoms: C_5  and  C_6
REMARK    2  A    between atoms: C_9  and  C_10
REMARK    3  A    between atoms: C_10  and  N_11
REMARK                            x       y       z     vdW  Elec       q    Type
REMARK                         _______ _______ _______ _____ _____    ______ ____
ROOT
ATOM      1  C   UNL     1       1.312   8.934  19.691  0.00  0.00    +0.000 A 
ATOM      2  C   UNL     1       1.302   8.007  20.749  0.00  0.00    +0.000 A 
ATOM      3  C   UNL     1       1.880   6.729  20.646  0.00  0.00    +0.000 A 
ATOM      4  C   UNL     1       2.564   6.336  19.491  0.00  0.00    +0.000 A 
ATOM      5  C   UNL     1       2.650   7.267  18.450  0.00  0.00    +0.000 A 
ATOM      6  C   UNL     1       2.031   8.530  18.547  0.00  0.00    +0.000 A 
ENDROOT
BRANCH   1  11
ATOM      7 CL   UNL     1      -1.253  14.435  20.093  0.00  0.00    +0.000 Cl
ATOM      8  C   UNL     1      -0.552  12.868  19.981  0.00  0.00    +0.000 A 
ATOM      9  C   UNL     1       0.474  12.500  20.838  0.00  0.00    +0.000 A 
ATOM     10  C   UNL     1       1.041  11.218  20.738  0.00  0.00    +0.000 A 
ATOM     11  C   UNL     1       0.629  10.272  19.767  0.00  0.00    +0.000 A 
ATOM     12  C   UNL     1      -0.408  10.703  18.899  0.00  0.00    +0.000 A 
ATOM     13 CL   UNL     1      -0.998   9.766  17.563  0.00  0.00    +0.000 Cl
ATOM     14  C   UNL     1      -1.000  11.975  19.020  0.00  0.00    +0.000 A 
ENDBRANCH   1  11
BRANCH   4  15
ATOM     15  C   UNL     1       3.365   5.055  19.464  0.00  0.00    +0.000 C 
BRANCH  15  16
ATOM     16  N   UNL     1       4.686   4.980  18.848  0.00  0.00    +0.000 N 
ATOM     17  N   UNL     1       5.716   5.053  19.737  0.00  0.00    +0.000 NA
ATOM     18  N   UNL     1       6.852   4.929  19.083  0.00  0.00    +0.000 NA
ATOM     19  C   UNL     1       6.555   4.777  17.762  0.00  0.00    +0.000 A 
ATOM     20  C   UNL     1       7.429   4.609  16.678  0.00  0.00    +0.000 A 
ATOM     21  C   UNL     1       6.889   4.473  15.399  0.00  0.00    +0.000 A 
ATOM     22  C   UNL     1       5.505   4.503  15.215  0.00  0.00    +0.000 A 
ATOM     23  C   UNL     1       4.611   4.666  16.292  0.00  0.00    +0.000 A 
ATOM     24  C   UNL     1       5.168   4.806  17.573  0.00  0.00    +0.000 A 
ENDBRANCH  15  16
ENDBRANCH   4  15
TORSDOF 3
ENDMDL
MODEL 6
REMARK VINA RESULT:      -8.5      4.522      8.595
REMARK  Name = 
REMARK  3 active torsions:
REMARK  status: ('A' for Active; 'I' for Inactive)
REMARK    1  A    between atoms: C_5  and  C_6
REMARK    2  A    between atoms: C_9  and  C_10
REMARK    3  A    between atoms: C_10  and  N_11
REMARK                            x       y       z     vdW  Elec       q    Type
REMARK                         _______ _______ _______ _____ _____    ______ ____
ROOT
ATOM      1  C   UNL     1       2.572   7.631  18.348  0.00  0.00    +0.000 A 
ATOM      2  C   UNL     1       2.162   8.800  17.682  0.00  0.00    +0.000 A 
ATOM      3  C   UNL     1       1.310   9.752  18.271  0.00  0.00    +0.000 A 
ATOM      4  C   UNL     1       0.876   9.614  19.593  0.00  0.00    +0.000 A 
ATOM      5  C   UNL     1       1.327   8.494  20.301  0.00  0.00    +0.000 A 
ATOM      6  C   UNL     1       2.148   7.525  19.689  0.00  0.00    +0.000 A 
ENDROOT
BRANCH   1  11
ATOM      7 CL   UNL     1       6.189   3.486  15.752  0.00  0.00    +0.000 Cl
ATOM      8  C   UNL     1       5.145   4.648  16.472  0.00  0.00    +0.000 A 
ATOM      9  C   UNL     1       5.491   5.991  16.471  0.00  0.00    +0.000 A 
ATOM     10  C   UNL     1       4.632   6.934  17.062  0.00  0.00    +0.000 A 
ATOM     11  C   UNL     1       3.419   6.572  17.698  0.00  0.00    +0.000 A 
ATOM     12  C   UNL     1       3.120   5.184  17.693  0.00  0.00    +0.000 A 
ATOM     13 CL   UNL     1       1.752   4.491  18.506  0.00  0.00    +0.000 Cl
ATOM     14  C   UNL     1       3.963   4.243  17.071  0.00  0.00    +0.000 A 
ENDBRANCH   1  11
BRANCH   4  15
ATOM     15  C   UNL     1       0.143  10.738  20.289  0.00  0.00    +0.000 C 
BRANCH  15  16
ATOM     16  N   UNL     1      -1.162  11.209  19.837  0.00  0.00    +0.000 N 
ATOM     17  N   UNL     1      -1.663  12.240  20.573  0.00  0.00    +0.000 NA
ATOM     18  N   UNL     1      -2.813  12.614  20.053  0.00  0.00    +0.000 NA
ATOM     19  C   UNL     1      -3.058  11.819  18.974  0.00  0.00    +0.000 A 
ATOM     20  C   UNL     1      -4.156  11.836  18.100  0.00  0.00    +0.000 A 
ATOM     21  C   UNL     1      -4.191  10.913  17.055  0.00  0.00    +0.000 A 
ATOM     22  C   UNL     1      -3.150   9.998  16.891  0.00  0.00    +0.000 A 
ATOM     23  C   UNL     1      -2.037   9.969  17.756  0.00  0.00    +0.000 A 
ATOM     24  C   UNL     1      -2.016  10.900  18.806  0.00  0.00    +0.000 A 
ENDBRANCH  15  16
ENDBRANCH   4  15
TORSDOF 3
ENDMDL
MODEL 7
REMARK VINA RESULT:      -8.5      1.070      1.498
REMARK  Name = 
REMARK  3 active torsions:
REMARK  status: ('A' for Active; 'I' for Inactive)
REMARK    1  A    between atoms: C_5  and  C_6
REMARK    2  A    between atoms: C_9  and  C_10
REMARK    3  A    between atoms: C_10  and  N_11
REMARK                            x       y       z     vdW  Elec       q    Type
REMARK                         _______ _______ _______ _____ _____    ______ ____
ROOT
ATOM      1  C   UNL     1       0.742   9.421  20.145  0.00  0.00    +0.000 A 
ATOM      2  C   UNL     1       1.360   8.273  20.675  0.00  0.00    +0.000 A 
ATOM      3  C   UNL     1       2.177   7.426  19.906  0.00  0.00    +0.000 A 
ATOM      4  C   UNL     1       2.477   7.724  18.573  0.00  0.00    +0.000 A 
ATOM      5  C   UNL     1       1.932   8.899  18.042  0.00  0.00    +0.000 A 
ATOM      6  C   UNL     1       1.080   9.720  18.809  0.00  0.00    +0.000 A 
ENDROOT
BRANCH   1  11
ATOM      7 CL   UNL     1      -2.922  12.880  23.552  0.00  0.00    +0.000 Cl
ATOM      8  C   UNL     1      -1.907  11.898  22.571  0.00  0.00    +0.000 A 
ATOM      9  C   UNL     1      -1.193  10.851  23.135  0.00  0.00    +0.000 A 
ATOM     10  C   UNL     1      -0.365  10.054  22.326  0.00  0.00    +0.000 A 
ATOM     11  C   UNL     1      -0.195  10.288  20.939  0.00  0.00    +0.000 A 
ATOM     12  C   UNL     1      -0.929  11.383  20.413  0.00  0.00    +0.000 A 
ATOM     13 CL   UNL     1      -0.795  11.932  18.772  0.00  0.00    +0.000 Cl
ATOM     14  C   UNL     1      -1.785  12.161  21.215  0.00  0.00    +0.000 A 
ENDBRANCH   1  11
BRANCH   4  15
ATOM     15  C   UNL     1       3.522   6.936  17.819  0.00  0.00    +0.000 C 
BRANCH  15  16
ATOM     16  N   UNL     1       3.883   5.571  18.192  0.00  0.00    +0.000 N 
ATOM     17  N   UNL     1       5.178   5.430  18.590  0.00  0.00    +0.000 NA
ATOM     18  N   UNL     1       5.380   4.179  18.946  0.00  0.00    +0.000 NA
ATOM     19  C   UNL     1       4.207   3.506  18.776  0.00  0.00    +0.000 A 
ATOM     20  C   UNL     1       3.927   2.153  19.022  0.00  0.00    +0.000 A 
ATOM     21  C   UNL     1       2.638   1.682  18.769  0.00  0.00    +0.000 A 
ATOM     22  C   UNL     1       1.656   2.549  18.284  0.00  0.00    +0.000 A 
ATOM     23  C   UNL     1       1.919   3.911  18.036  0.00  0.00    +0.000 A 
ATOM     24  C   UNL     1       3.220   4.371  18.290  0.00  0.00    +0.000 A 
ENDBRANCH  15  16
ENDBRANCH   4  15
TORSDOF 3
ENDMDL
MODEL 8
REMARK VINA RESULT:      -8.5      2.438      3.204
REMARK  Name = 
REMARK  3 active torsions:
REMARK  status: ('A' for Active; 'I' for Inactive)
REMARK    1  A    between atoms: C_5  and  C_6
REMARK    2  A    between atoms: C_9  and  C_10
REMARK    3  A    between atoms: C_10  and  N_11
REMARK                            x       y       z     vdW  Elec       q    Type
REMARK                         _______ _______ _______ _____ _____    ______ ____
ROOT
ATOM      1  C   UNL     1       1.120   9.213  19.688  0.00  0.00    +0.000 A 
ATOM      2  C   UNL     1       1.807   8.848  18.516  0.00  0.00    +0.000 A 
ATOM      3  C   UNL     1       2.549   7.658  18.410  0.00  0.00    +0.000 A 
ATOM      4  C   UNL     1       2.586   6.732  19.457  0.00  0.00    +0.000 A 
ATOM      5  C   UNL     1       1.851   7.038  20.608  0.00  0.00    +0.000 A 
ATOM      6  C   UNL     1       1.144   8.253  20.721  0.00  0.00    +0.000 A 
ENDROOT
BRANCH   1  11
ATOM      7 CL   UNL     1      -1.639  14.590  20.375  0.00  0.00    +0.000 Cl
ATOM      8  C   UNL     1      -0.883  13.058  20.184  0.00  0.00    +0.000 A 
ATOM      9  C   UNL     1       0.206  12.714  20.969  0.00  0.00    +0.000 A 
ATOM     10  C   UNL     1       0.818  11.459  20.805  0.00  0.00    +0.000 A 
ATOM     11  C   UNL     1       0.388  10.519  19.836  0.00  0.00    +0.000 A 
ATOM     12  C   UNL     1      -0.715  10.925  19.042  0.00  0.00    +0.000 A 
ATOM     13 CL   UNL     1      -1.345   9.993  17.720  0.00  0.00    +0.000 Cl
ATOM     14  C   UNL     1      -1.351  12.168  19.228  0.00  0.00    +0.000 A 
ENDBRANCH   1  11
BRANCH   4  15
ATOM     15  C   UNL     1       3.200   5.365  19.261  0.00  0.00    +0.000 C 
BRANCH  15  16
ATOM     16  N   UNL     1       4.553   5.191  18.740  0.00  0.00    +0.000 N 
ATOM     17  N   UNL     1       5.520   5.202  19.699  0.00  0.00    +0.000 NA
ATOM     18  N   UNL     1       6.688   4.992  19.128  0.00  0.00    +0.000 NA
ATOM     19  C   UNL     1       6.474   4.845  17.790  0.00  0.00    +0.000 A 
ATOM     20  C   UNL     1       7.408   4.603  16.772  0.00  0.00    +0.000 A 
ATOM     21  C   UNL     1       6.950   4.490  15.459  0.00  0.00    +0.000 A 
ATOM     22  C   UNL     1       5.588   4.615  15.177  0.00  0.00    +0.000 A 
ATOM     23  C   UNL     1       4.635   4.853  16.188  0.00  0.00    +0.000 A 
ATOM     24  C   UNL     1       5.109   4.969  17.504  0.00  0.00    +0.000 A 
ENDBRANCH  15  16
ENDBRANCH   4  15
TORSDOF 3
ENDMDL
MODEL 9
REMARK VINA RESULT:      -8.5      1.085      1.798
REMARK  Name = 
REMARK  3 active torsions:
REMARK  status: ('A' for Active; 'I' for Inactive)
REMARK    1  A    between atoms: C_5  and  C_6
REMARK    2  A    between atoms: C_9  and  C_10
REMARK    3  A    between atoms: C_10  and  N_11
REMARK                            x       y       z     vdW  Elec       q    Type
REMARK                         _______ _______ _______ _____ _____    ______ ____
ROOT
ATOM      1  C   UNL     1       0.749   9.414  20.032  0.00  0.00    +0.000 A 
ATOM      2  C   UNL     1       1.035   9.703  18.685  0.00  0.00    +0.000 A 
ATOM      3  C   UNL     1       1.946   8.950  17.923  0.00  0.00    +0.000 A 
ATOM      4  C   UNL     1       2.570   7.817  18.453  0.00  0.00    +0.000 A 
ATOM      5  C   UNL     1       2.248   7.466  19.769  0.00  0.00    +0.000 A 
ATOM      6  C   UNL     1       1.365   8.252  20.539  0.00  0.00    +0.000 A 
ENDROOT
BRANCH   1  11
ATOM      7 CL   UNL     1      -2.813  12.777  23.637  0.00  0.00    +0.000 Cl
ATOM      8  C   UNL     1      -1.827  11.823  22.601  0.00  0.00    +0.000 A 
ATOM      9  C   UNL     1      -1.125  10.740  23.108  0.00  0.00    +0.000 A 
ATOM     10  C   UNL     1      -0.321   9.967  22.253  0.00  0.00    +0.000 A 
ATOM     11  C   UNL     1      -0.163  10.260  20.876  0.00  0.00    +0.000 A 
ATOM     12  C   UNL     1      -0.884  11.391  20.409  0.00  0.00    +0.000 A 
ATOM     13 CL   UNL     1      -0.760  12.011  18.793  0.00  0.00    +0.000 Cl
ATOM     14  C   UNL     1      -1.716  12.146  21.257  0.00  0.00    +0.000 A 
ENDBRANCH   1  11
BRANCH   4  15
ATOM     15  C   UNL     1       3.374   6.891  17.570  0.00  0.00    +0.000 C 
BRANCH  15  16
ATOM     16  N   UNL     1       3.646   5.506  17.944  0.00  0.00    +0.000 N 
ATOM     17  N   UNL     1       4.966   5.235  18.139  0.00  0.00    +0.000 NA
ATOM     18  N   UNL     1       5.092   3.980  18.516  0.00  0.00    +0.000 NA
ATOM     19  C   UNL     1       3.844   3.435  18.564  0.00  0.00    +0.000 A 
ATOM     20  C   UNL     1       3.468   2.129  18.912  0.00  0.00    +0.000 A 
ATOM     21  C   UNL     1       2.114   1.795  18.886  0.00  0.00    +0.000 A 
ATOM     22  C   UNL     1       1.162   2.750  18.522  0.00  0.00    +0.000 A 
ATOM     23  C   UNL     1       1.521   4.068  18.174  0.00  0.00    +0.000 A 
ATOM     24  C   UNL     1       2.887   4.389  18.200  0.00  0.00    +0.000 A 
ENDBRANCH  15  16
ENDBRANCH   4  15
TORSDOF 3
ENDMDL
