MODEL 1
REMARK VINA RESULT:      -5.5      0.000      0.000
REMARK  Name = 
REMARK  4 active torsions:
REMARK  status: ('A' for Active; 'I' for Inactive)
REMARK    1  A    between atoms: N_3  and  C_4
REMARK    2  A    between atoms: C_4  and  C_5
REMARK    3  A    between atoms: C_8  and  C_9
REMARK    4  A    between atoms: C_9  and  O_10
REMARK                            x       y       z     vdW  Elec       q    Type
REMARK                         _______ _______ _______ _____ _____    ______ ____
ROOT
ATOM      1  C   UNL     1       5.869   4.385  17.369  0.00  0.00    +0.000 C 
ATOM      2  C   UNL     1       4.886   3.984  16.539  0.00  0.00    +0.000 C 
ATOM      3  C   UNL     1       3.501   3.785  16.921  0.00  0.00    +0.000 C 
ATOM      4  C   UNL     1       3.078   3.467  18.161  0.00  0.00    +0.000 C 
ATOM      5  S   UNL     1       4.220   3.244  19.470  0.00  0.00    +0.000 S 
ATOM      6  S   UNL     1       5.523   4.783  19.038  0.00  0.00    +0.000 S 
ENDROOT
BRANCH   1   7
ATOM      7  C   UNL     1       7.274   4.609  16.862  0.00  0.00    +0.000 C 
BRANCH   7  10
ATOM      8  N   UNL     1       7.673   7.864  17.200  0.00  0.00    +0.000 NA
ATOM      9  N   UNL     1       7.518   6.883  16.643  0.00  0.00    +0.000 NA
ATOM     10  N   UNL     1       7.335   5.815  16.030  0.00  0.00    +0.000 NA
ENDBRANCH   7  10
ENDBRANCH   1   7
BRANCH   4  11
ATOM     11  C   UNL     1       1.627   3.170  18.441  0.00  0.00    +0.000 C 
BRANCH  11  12
ATOM     12  O   UNL     1       1.125   3.995  19.486  0.00  0.00    +0.000 OA
ATOM     13  H   UNL     1       1.894   4.327  19.983  0.00  0.00    +0.000 HD
ENDBRANCH  11  12
ENDBRANCH   4  11
TORSDOF 4
ENDMDL
MODEL 2
REMARK VINA RESULT:      -5.3      1.727      2.092
REMARK  Name = 
REMARK  4 active torsions:
REMARK  status: ('A' for Active; 'I' for Inactive)
REMARK    1  A    between atoms: N_3  and  C_4
REMARK    2  A    between atoms: C_4  and  C_5
REMARK    3  A    between atoms: C_8  and  C_9
REMARK    4  A    between atoms: C_9  and  O_10
REMARK                            x       y       z     vdW  Elec       q    Type
REMARK                         _______ _______ _______ _____ _____    ______ ____
ROOT
ATOM      1  C   UNL     1       4.837   5.239  16.703  0.00  0.00    +0.000 C 
ATOM      2  C   UNL     1       4.780   3.895  16.646  0.00  0.00    +0.000 C 
ATOM      3  C   UNL     1       3.938   3.060  17.481  0.00  0.00    +0.000 C 
ATOM      4  C   UNL     1       3.502   3.388  18.714  0.00  0.00    +0.000 C 
ATOM      5  S   UNL     1       3.949   4.914  19.448  0.00  0.00    +0.000 S 
ATOM      6  S   UNL     1       3.800   6.133  17.792  0.00  0.00    +0.000 S 
ENDROOT
BRANCH   1   7
ATOM      7  C   UNL     1       5.714   6.023  15.755  0.00  0.00    +0.000 C 
BRANCH   7  10
ATOM      8  N   UNL     1       8.166   5.589  13.595  0.00  0.00    +0.000 NA
ATOM      9  N   UNL     1       7.638   5.526  14.601  0.00  0.00    +0.000 NA
ATOM     10  N   UNL     1       7.061   5.443  15.701  0.00  0.00    +0.000 NA
ENDBRANCH   7  10
ENDBRANCH   1   7
BRANCH   4  11
ATOM     11  C   UNL     1       2.722   2.409  19.555  0.00  0.00    +0.000 C 
BRANCH  11  12
ATOM     12  O   UNL     1       1.756   1.715  18.775  0.00  0.00    +0.000 OA
ATOM     13  H   UNL     1       1.123   1.312  19.396  0.00  0.00    +0.000 HD
ENDBRANCH  11  12
ENDBRANCH   4  11
TORSDOF 4
ENDMDL
MODEL 3
REMARK VINA RESULT:      -5.3      1.330      1.548
REMARK  Name = 
REMARK  4 active torsions:
REMARK  status: ('A' for Active; 'I' for Inactive)
REMARK    1  A    between atoms: N_3  and  C_4
REMARK    2  A    between atoms: C_4  and  C_5
REMARK    3  A    between atoms: C_8  and  C_9
REMARK    4  A    between atoms: C_9  and  O_10
REMARK                            x       y       z     vdW  Elec       q    Type
REMARK                         _______ _______ _______ _____ _____    ______ ____
ROOT
ATOM      1  C   UNL     1       5.357   4.996  17.496  0.00  0.00    +0.000 C 
ATOM      2  C   UNL     1       4.517   4.355  16.661  0.00  0.00    +0.000 C 
ATOM      3  C   UNL     1       3.323   3.638  17.067  0.00  0.00    +0.000 C 
ATOM      4  C   UNL     1       3.134   3.070  18.274  0.00  0.00    +0.000 C 
ATOM      5  S   UNL     1       4.378   3.142  19.505  0.00  0.00    +0.000 S 
ATOM      6  S   UNL     1       5.022   5.079  19.211  0.00  0.00    +0.000 S 
ENDROOT
BRANCH   1   7
ATOM      7  C   UNL     1       6.551   5.756  16.968  0.00  0.00    +0.000 C 
BRANCH   7  10
ATOM      8  N   UNL     1       7.783   5.499  13.921  0.00  0.00    +0.000 NA
ATOM      9  N   UNL     1       7.615   5.203  15.008  0.00  0.00    +0.000 NA
ATOM     10  N   UNL     1       7.424   4.868  16.191  0.00  0.00    +0.000 NA
ENDBRANCH   7  10
ENDBRANCH   1   7
BRANCH   4  11
ATOM     11  C   UNL     1       1.905   2.249  18.571  0.00  0.00    +0.000 C 
BRANCH  11  12
ATOM     12  O   UNL     1       1.207   2.756  19.701  0.00  0.00    +0.000 OA
ATOM     13  H   UNL     1       1.663   2.419  20.494  0.00  0.00    +0.000 HD
ENDBRANCH  11  12
ENDBRANCH   4  11
TORSDOF 4
ENDMDL
MODEL 4
REMARK VINA RESULT:      -5.2      1.657      1.971
REMARK  Name = 
REMARK  4 active torsions:
REMARK  status: ('A' for Active; 'I' for Inactive)
REMARK    1  A    between atoms: N_3  and  C_4
REMARK    2  A    between atoms: C_4  and  C_5
REMARK    3  A    between atoms: C_8  and  C_9
REMARK    4  A    between atoms: C_9  and  O_10
REMARK                            x       y       z     vdW  Elec       q    Type
REMARK                         _______ _______ _______ _____ _____    ______ ____
ROOT
ATOM      1  C   UNL     1       5.246   6.208  17.695  0.00  0.00    +0.000 C 
ATOM      2  C   UNL     1       3.970   6.596  17.513  0.00  0.00    +0.000 C 
ATOM      3  C   UNL     1       2.804   5.886  18.003  0.00  0.00    +0.000 C 
ATOM      4  C   UNL     1       2.747   4.560  18.238  0.00  0.00    +0.000 C 
ATOM      5  S   UNL     1       4.137   3.535  17.944  0.00  0.00    +0.000 S 
ATOM      6  S   UNL     1       5.622   4.785  18.642  0.00  0.00    +0.000 S 
ENDROOT
BRANCH   1   7
ATOM      7  C   UNL     1       6.396   7.044  17.184  0.00  0.00    +0.000 C 
BRANCH   7  10
ATOM      8  N   UNL     1       7.414   5.337  14.554  0.00  0.00    +0.000 NA
ATOM      9  N   UNL     1       7.463   5.750  15.614  0.00  0.00    +0.000 NA
ATOM     10  N   UNL     1       7.515   6.187  16.778  0.00  0.00    +0.000 NA
ENDBRANCH   7  10
ENDBRANCH   1   7
BRANCH   4  11
ATOM     11  C   UNL     1       1.458   3.890  18.641  0.00  0.00    +0.000 C 
BRANCH  11  12
ATOM     12  O   UNL     1       1.173   4.107  20.018  0.00  0.00    +0.000 OA
ATOM     13  H   UNL     1       1.999   3.946  20.509  0.00  0.00    +0.000 HD
ENDBRANCH  11  12
ENDBRANCH   4  11
TORSDOF 4
ENDMDL
MODEL 5
REMARK VINA RESULT:      -5.2      1.772      2.096
REMARK  Name = 
REMARK  4 active torsions:
REMARK  status: ('A' for Active; 'I' for Inactive)
REMARK    1  A    between atoms: N_3  and  C_4
REMARK    2  A    between atoms: C_4  and  C_5
REMARK    3  A    between atoms: C_8  and  C_9
REMARK    4  A    between atoms: C_9  and  O_10
REMARK                            x       y       z     vdW  Elec       q    Type
REMARK                         _______ _______ _______ _____ _____    ______ ____
ROOT
ATOM      1  C   UNL     1       5.796   5.698  17.969  0.00  0.00    +0.000 C 
ATOM      2  C   UNL     1       5.509   4.433  18.331  0.00  0.00    +0.000 C 
ATOM      3  C   UNL     1       4.184   3.842  18.318  0.00  0.00    +0.000 C 
ATOM      4  C   UNL     1       3.030   4.525  18.451  0.00  0.00    +0.000 C 
ATOM      5  S   UNL     1       3.035   6.263  18.674  0.00  0.00    +0.000 S 
ATOM      6  S   UNL     1       4.545   6.759  17.359  0.00  0.00    +0.000 S 
ENDROOT
BRANCH   1   7
ATOM      7  C   UNL     1       7.218   6.207  17.972  0.00  0.00    +0.000 C 
BRANCH   7  10
ATOM      8  N   UNL     1       7.535   5.237  14.838  0.00  0.00    +0.000 NA
ATOM      9  N   UNL     1       7.544   5.968  15.710  0.00  0.00    +0.000 NA
ATOM     10  N   UNL     1       7.567   6.769  16.663  0.00  0.00    +0.000 NA
ENDBRANCH   7  10
ENDBRANCH   1   7
BRANCH   4  11
ATOM     11  C   UNL     1       1.703   3.813  18.537  0.00  0.00    +0.000 C 
BRANCH  11  12
ATOM     12  O   UNL     1       0.944   3.993  17.348  0.00  0.00    +0.000 OA
ATOM     13  H   UNL     1       0.021   3.764  17.561  0.00  0.00    +0.000 HD
ENDBRANCH  11  12
ENDBRANCH   4  11
TORSDOF 4
ENDMDL
MODEL 6
REMARK VINA RESULT:      -5.2      1.979      2.083
REMARK  Name = 
REMARK  4 active torsions:
REMARK  status: ('A' for Active; 'I' for Inactive)
REMARK    1  A    between atoms: N_3  and  C_4
REMARK    2  A    between atoms: C_4  and  C_5
REMARK    3  A    between atoms: C_8  and  C_9
REMARK    4  A    between atoms: C_9  and  O_10
REMARK                            x       y       z     vdW  Elec       q    Type
REMARK                         _______ _______ _______ _____ _____    ______ ____
ROOT
ATOM      1  C   UNL     1       5.448   4.937  18.317  0.00  0.00    +0.000 C 
ATOM      2  C   UNL     1       5.099   3.715  18.760  0.00  0.00    +0.000 C 
ATOM      3  C   UNL     1       3.756   3.166  18.726  0.00  0.00    +0.000 C 
ATOM      4  C   UNL     1       2.622   3.894  18.747  0.00  0.00    +0.000 C 
ATOM      5  S   UNL     1       2.679   5.643  18.835  0.00  0.00    +0.000 S 
ATOM      6  S   UNL     1       4.266   5.986  17.565  0.00  0.00    +0.000 S 
ENDROOT
BRANCH   1   7
ATOM      7  C   UNL     1       6.885   5.399  18.354  0.00  0.00    +0.000 C 
BRANCH   7  10
ATOM      8  N   UNL     1       7.517   5.241  15.122  0.00  0.00    +0.000 NA
ATOM      9  N   UNL     1       7.608   4.950  16.219  0.00  0.00    +0.000 NA
ATOM     10  N   UNL     1       7.701   4.619  17.415  0.00  0.00    +0.000 NA
ENDBRANCH   7  10
ENDBRANCH   1   7
BRANCH   4  11
ATOM     11  C   UNL     1       1.269   3.234  18.821  0.00  0.00    +0.000 C 
BRANCH  11  12
ATOM     12  O   UNL     1       1.364   1.836  18.581  0.00  0.00    +0.000 OA
ATOM     13  H   UNL     1       0.729   1.623  17.873  0.00  0.00    +0.000 HD
ENDBRANCH  11  12
ENDBRANCH   4  11
TORSDOF 4
ENDMDL
MODEL 7
REMARK VINA RESULT:      -5.2      1.034      1.475
REMARK  Name = 
REMARK  4 active torsions:
REMARK  status: ('A' for Active; 'I' for Inactive)
REMARK    1  A    between atoms: N_3  and  C_4
REMARK    2  A    between atoms: C_4  and  C_5
REMARK    3  A    between atoms: C_8  and  C_9
REMARK    4  A    between atoms: C_9  and  O_10
REMARK                            x       y       z     vdW  Elec       q    Type
REMARK                         _______ _______ _______ _____ _____    ______ ____
ROOT
ATOM      1  C   UNL     1       4.558   3.910  17.278  0.00  0.00    +0.000 C 
ATOM      2  C   UNL     1       3.275   3.571  17.050  0.00  0.00    +0.000 C 
ATOM      3  C   UNL     1       2.282   3.324  18.077  0.00  0.00    +0.000 C 
ATOM      4  C   UNL     1       2.550   2.895  19.326  0.00  0.00    +0.000 C 
ATOM      5  S   UNL     1       4.197   2.573  19.831  0.00  0.00    +0.000 S 
ATOM      6  S   UNL     1       5.140   4.158  18.910  0.00  0.00    +0.000 S 
ENDROOT
BRANCH   1   7
ATOM      7  C   UNL     1       5.505   4.193  16.136  0.00  0.00    +0.000 C 
BRANCH   7  10
ATOM      8  N   UNL     1       7.618   6.701  16.470  0.00  0.00    +0.000 NA
ATOM      9  N   UNL     1       7.251   5.627  16.556  0.00  0.00    +0.000 NA
ATOM     10  N   UNL     1       6.859   4.449  16.641  0.00  0.00    +0.000 NA
ENDBRANCH   7  10
ENDBRANCH   1   7
BRANCH   4  11
ATOM     11  C   UNL     1       1.444   2.558  20.294  0.00  0.00    +0.000 C 
BRANCH  11  12
ATOM     12  O   UNL     1       0.462   3.585  20.331  0.00  0.00    +0.000 OA
ATOM     13  H   UNL     1       0.302   3.861  19.410  0.00  0.00    +0.000 HD
ENDBRANCH  11  12
ENDBRANCH   4  11
TORSDOF 4
ENDMDL
MODEL 8
REMARK VINA RESULT:      -5.2      1.127      1.597
REMARK  Name = 
REMARK  4 active torsions:
REMARK  status: ('A' for Active; 'I' for Inactive)
REMARK    1  A    between atoms: N_3  and  C_4
REMARK    2  A    between atoms: C_4  and  C_5
REMARK    3  A    between atoms: C_8  and  C_9
REMARK    4  A    between atoms: C_9  and  O_10
REMARK                            x       y       z     vdW  Elec       q    Type
REMARK                         _______ _______ _______ _____ _____    ______ ____
ROOT
ATOM      1  C   UNL     1       5.636   4.636  17.295  0.00  0.00    +0.000 C 
ATOM      2  C   UNL     1       4.863   3.611  16.889  0.00  0.00    +0.000 C 
ATOM      3  C   UNL     1       3.429   3.516  17.091  0.00  0.00    +0.000 C 
ATOM      4  C   UNL     1       2.748   4.107  18.092  0.00  0.00    +0.000 C 
ATOM      5  S   UNL     1       3.577   5.072  19.297  0.00  0.00    +0.000 S 
ATOM      6  S   UNL     1       4.929   6.035  18.073  0.00  0.00    +0.000 S 
ENDROOT
BRANCH   1   7
ATOM      7  C   UNL     1       7.116   4.663  16.994  0.00  0.00    +0.000 C 
BRANCH   7  10
ATOM      8  N   UNL     1       7.699   5.389  13.832  0.00  0.00    +0.000 NA
ATOM      9  N   UNL     1       7.574   5.595  14.944  0.00  0.00    +0.000 NA
ATOM     10  N   UNL     1       7.451   5.824  16.162  0.00  0.00    +0.000 NA
ENDBRANCH   7  10
ENDBRANCH   1   7
BRANCH   4  11
ATOM     11  C   UNL     1       1.273   3.862  18.289  0.00  0.00    +0.000 C 
BRANCH  11  12
ATOM     12  O   UNL     1       0.978   3.558  19.646  0.00  0.00    +0.000 OA
ATOM     13  H   UNL     1       0.020   3.384  19.698  0.00  0.00    +0.000 HD
ENDBRANCH  11  12
ENDBRANCH   4  11
TORSDOF 4
ENDMDL
MODEL 9
REMARK VINA RESULT:      -5.2      1.581      1.767
REMARK  Name = 
REMARK  4 active torsions:
REMARK  status: ('A' for Active; 'I' for Inactive)
REMARK    1  A    between atoms: N_3  and  C_4
REMARK    2  A    between atoms: C_4  and  C_5
REMARK    3  A    between atoms: C_8  and  C_9
REMARK    4  A    between atoms: C_9  and  O_10
REMARK                            x       y       z     vdW  Elec       q    Type
REMARK                         _______ _______ _______ _____ _____    ______ ____
ROOT
ATOM      1  C   UNL     1       5.835   4.760  16.857  0.00  0.00    +0.000 C 
ATOM      2  C   UNL     1       4.843   4.083  16.248  0.00  0.00    +0.000 C 
ATOM      3  C   UNL     1       3.580   3.720  16.863  0.00  0.00    +0.000 C 
ATOM      4  C   UNL     1       3.389   3.529  18.183  0.00  0.00    +0.000 C 
ATOM      5  S   UNL     1       4.714   3.697  19.317  0.00  0.00    +0.000 S 
ATOM      6  S   UNL     1       5.643   5.345  18.496  0.00  0.00    +0.000 S 
ENDROOT
BRANCH   1   7
ATOM      7  C   UNL     1       7.096   5.132  16.114  0.00  0.00    +0.000 C 
BRANCH   7  10
ATOM      8  N   UNL     1       8.691   5.855  13.321  0.00  0.00    +0.000 NA
ATOM      9  N   UNL     1       7.817   5.514  13.966  0.00  0.00    +0.000 NA
ATOM     10  N   UNL     1       6.854   5.154  14.667  0.00  0.00    +0.000 NA
ENDBRANCH   7  10
ENDBRANCH   1   7
BRANCH   4  11
ATOM     11  C   UNL     1       2.067   3.044  18.721  0.00  0.00    +0.000 C 
BRANCH  11  12
ATOM     12  O   UNL     1       0.989   3.466  17.895  0.00  0.00    +0.000 OA
ATOM     13  H   UNL     1       0.917   4.433  17.991  0.00  0.00    +0.000 HD
ENDBRANCH  11  12
ENDBRANCH   4  11
TORSDOF 4
ENDMDL
