MODEL 1
REMARK VINA RESULT:      -8.1      0.000      0.000
REMARK  Name = 
REMARK  8 active torsions:
REMARK  status: ('A' for Active; 'I' for Inactive)
REMARK    1  A    between atoms: C_1  and  O_2
REMARK    2  A    between atoms: O_2  and  C_3
REMARK    3  A    between atoms: C_6  and  N_7
REMARK    4  A    between atoms: C_8  and  C_10
REMARK    5  A    between atoms: N_13  and  S_14
REMARK    6  A    between atoms: S_14  and  C_17
REMARK    7  A    between atoms: C_30  and  O_31
REMARK    8  A    between atoms: O_31  and  C_32
REMARK                            x       y       z     vdW  Elec       q    Type
REMARK                         _______ _______ _______ _____ _____    ______ ____
ROOT
ATOM      1  C   UNL     1       7.062   6.251  17.538  0.00  0.00    +0.000 C 
ATOM      2  C   UNL     1       6.881   5.669  18.947  0.00  0.00    +0.000 C 
ATOM      3  C   UNL     1       5.455   5.194  19.242  0.00  0.00    +0.000 C 
ATOM      4  N   UNL     1       4.465   6.281  18.976  0.00  0.00    +0.000 NA
ATOM      5  C   UNL     1       4.577   6.784  17.571  0.00  0.00    +0.000 C 
ATOM      6  C   UNL     1       5.982   7.302  17.278  0.00  0.00    +0.000 C 
ENDROOT
BRANCH   1   8
ATOM      7  N   UNL     1       6.350   5.430  15.348  0.00  0.00    +0.000 N 
ATOM      8  C   UNL     1       7.129   5.159  16.458  0.00  0.00    +0.000 C 
ATOM      9  O   UNL     1       7.812   4.149  16.601  0.00  0.00    +0.000 OA
ATOM     10  H   UNL     1       5.559   6.055  15.460  0.00  0.00    +0.000 HD
BRANCH   7  14
ATOM     11  C   UNL     1       6.334   3.032  11.865  0.00  0.00    +0.000 A 
ATOM     12  C   UNL     1       5.276   2.948  12.773  0.00  0.00    +0.000 A 
ATOM     13  C   UNL     1       5.243   3.755  13.917  0.00  0.00    +0.000 A 
ATOM     14  C   UNL     1       6.292   4.638  14.175  0.00  0.00    +0.000 A 
ATOM     15  C   UNL     1       7.374   4.715  13.276  0.00  0.00    +0.000 A 
ATOM     16  C   UNL     1       7.380   3.926  12.116  0.00  0.00    +0.000 A 
BRANCH  11  18
ATOM     17  C   UNL     1       6.187   0.804  11.021  0.00  0.00    +0.000 C 
ATOM     18  O   UNL     1       6.226   2.205  10.780  0.00  0.00    +0.000 OA
ENDBRANCH  11  18
BRANCH  15  19
ATOM     19  O   UNL     1       8.337   5.641  13.605  0.00  0.00    +0.000 OA
ATOM     20  C   UNL     1       9.029   6.262  12.531  0.00  0.00    +0.000 C 
ENDBRANCH  15  19
ENDBRANCH   7  14
ENDBRANCH   1   8
BRANCH   4  21
ATOM     21  S   UNL     1       2.821   5.834  19.327  0.00  0.00    +0.000 S 
ATOM     22  O   UNL     1       2.236   5.309  18.100  0.00  0.00    +0.000 OA
ATOM     23  O   UNL     1       2.823   5.045  20.535  0.00  0.00    +0.000 OA
BRANCH  21  24
ATOM     24  C   UNL     1       1.982   7.367  19.667  0.00  0.00    +0.000 A 
ATOM     25  C   UNL     1       1.943   8.369  18.689  0.00  0.00    +0.000 A 
ATOM     26  C   UNL     1       1.301   9.578  18.959  0.00  0.00    +0.000 A 
ATOM     27  C   UNL     1       0.723   9.781  20.212  0.00  0.00    +0.000 A 
ATOM     28  N   UNL     1      -0.078  10.908  20.438  0.00  0.00    +0.000 N 
ATOM     29  C   UNL     1      -0.763  11.109  21.607  0.00  0.00    +0.000 A 
ATOM     30  O   UNL     1      -1.642  11.955  21.722  0.00  0.00    +0.000 OA
ATOM     31  C   UNL     1      -0.361  10.262  22.758  0.00  0.00    +0.000 A 
ATOM     32  C   UNL     1       0.407   9.178  22.580  0.00  0.00    +0.000 A 
ATOM     33  C   UNL     1       0.874   8.832  21.236  0.00  0.00    +0.000 A 
ATOM     34  C   UNL     1       1.487   7.608  20.956  0.00  0.00    +0.000 A 
ATOM     35  H   UNL     1      -0.316  11.526  19.674  0.00  0.00    +0.000 HD
ENDBRANCH  21  24
ENDBRANCH   4  21
TORSDOF 6
ENDMDL
MODEL 2
REMARK VINA RESULT:      -7.9      4.478     12.330
REMARK  Name = 
REMARK  8 active torsions:
REMARK  status: ('A' for Active; 'I' for Inactive)
REMARK    1  A    between atoms: C_1  and  O_2
REMARK    2  A    between atoms: O_2  and  C_3
REMARK    3  A    between atoms: C_6  and  N_7
REMARK    4  A    between atoms: C_8  and  C_10
REMARK    5  A    between atoms: N_13  and  S_14
REMARK    6  A    between atoms: S_14  and  C_17
REMARK    7  A    between atoms: C_30  and  O_31
REMARK    8  A    between atoms: O_31  and  C_32
REMARK                            x       y       z     vdW  Elec       q    Type
REMARK                         _______ _______ _______ _____ _____    ______ ____
ROOT
ATOM      1  C   UNL     1      -3.910  10.769  16.749  0.00  0.00    +0.000 C 
ATOM      2  C   UNL     1      -3.419   9.558  17.554  0.00  0.00    +0.000 C 
ATOM      3  C   UNL     1      -2.359   9.903  18.606  0.00  0.00    +0.000 C 
ATOM      4  N   UNL     1      -1.216  10.640  17.990  0.00  0.00    +0.000 NA
ATOM      5  C   UNL     1      -1.685  11.875  17.284  0.00  0.00    +0.000 C 
ATOM      6  C   UNL     1      -2.708  11.539  16.202  0.00  0.00    +0.000 C 
ENDROOT
BRANCH   1   8
ATOM      7  N   UNL     1      -4.957  11.315  18.889  0.00  0.00    +0.000 N 
ATOM      8  C   UNL     1      -4.890  11.644  17.547  0.00  0.00    +0.000 C 
ATOM      9  O   UNL     1      -5.545  12.534  17.013  0.00  0.00    +0.000 OA
ATOM     10  H   UNL     1      -4.698  10.375  19.165  0.00  0.00    +0.000 HD
BRANCH   7  14
ATOM     11  C   UNL     1      -7.115  13.519  21.781  0.00  0.00    +0.000 A 
ATOM     12  C   UNL     1      -7.800  12.743  20.843  0.00  0.00    +0.000 A 
ATOM     13  C   UNL     1      -7.107  11.980  19.897  0.00  0.00    +0.000 A 
ATOM     14  C   UNL     1      -5.712  12.011  19.865  0.00  0.00    +0.000 A 
ATOM     15  C   UNL     1      -5.013  12.808  20.793  0.00  0.00    +0.000 A 
ATOM     16  C   UNL     1      -5.718  13.542  21.758  0.00  0.00    +0.000 A 
BRANCH  11  18
ATOM     17  C   UNL     1      -7.872  13.802  24.028  0.00  0.00    +0.000 C 
ATOM     18  O   UNL     1      -7.917  14.195  22.662  0.00  0.00    +0.000 OA
ENDBRANCH  11  18
BRANCH  15  19
ATOM     19  O   UNL     1      -3.642  12.740  20.698  0.00  0.00    +0.000 OA
ATOM     20  C   UNL     1      -2.932  13.970  20.725  0.00  0.00    +0.000 C 
ENDBRANCH  15  19
ENDBRANCH   7  14
ENDBRANCH   1   8
BRANCH   4  21
ATOM     21  S   UNL     1       0.053  11.035  19.113  0.00  0.00    +0.000 S 
ATOM     22  O   UNL     1       0.989  11.915  18.428  0.00  0.00    +0.000 OA
ATOM     23  O   UNL     1      -0.563  11.440  20.354  0.00  0.00    +0.000 OA
BRANCH  21  24
ATOM     24  C   UNL     1       0.917   9.505  19.397  0.00  0.00    +0.000 A 
ATOM     25  C   UNL     1       0.882   8.912  20.666  0.00  0.00    +0.000 A 
ATOM     26  C   UNL     1       1.573   7.722  20.896  0.00  0.00    +0.000 A 
ATOM     27  C   UNL     1       2.311   7.149  19.861  0.00  0.00    +0.000 A 
ATOM     28  N   UNL     1       2.857   5.868  20.020  0.00  0.00    +0.000 N 
ATOM     29  C   UNL     1       3.496   5.204  19.006  0.00  0.00    +0.000 A 
ATOM     30  O   UNL     1       3.761   4.009  19.062  0.00  0.00    +0.000 OA
ATOM     31  C   UNL     1       3.888   6.020  17.830  0.00  0.00    +0.000 A 
ATOM     32  C   UNL     1       3.387   7.250  17.648  0.00  0.00    +0.000 A 
ATOM     33  C   UNL     1       2.455   7.807  18.629  0.00  0.00    +0.000 A 
ATOM     34  C   UNL     1       1.736   8.981  18.388  0.00  0.00    +0.000 A 
ATOM     35  H   UNL     1       2.644   5.321  20.841  0.00  0.00    +0.000 HD
ENDBRANCH  21  24
ENDBRANCH   4  21
TORSDOF 6
ENDMDL
MODEL 3
REMARK VINA RESULT:      -7.9      3.588      7.022
REMARK  Name = 
REMARK  8 active torsions:
REMARK  status: ('A' for Active; 'I' for Inactive)
REMARK    1  A    between atoms: C_1  and  O_2
REMARK    2  A    between atoms: O_2  and  C_3
REMARK    3  A    between atoms: C_6  and  N_7
REMARK    4  A    between atoms: C_8  and  C_10
REMARK    5  A    between atoms: N_13  and  S_14
REMARK    6  A    between atoms: S_14  and  C_17
REMARK    7  A    between atoms: C_30  and  O_31
REMARK    8  A    between atoms: O_31  and  C_32
REMARK                            x       y       z     vdW  Elec       q    Type
REMARK                         _______ _______ _______ _____ _____    ______ ____
ROOT
ATOM      1  C   UNL     1       1.081   7.888  21.561  0.00  0.00    +0.000 C 
ATOM      2  C   UNL     1      -0.422   8.129  21.359  0.00  0.00    +0.000 C 
ATOM      3  C   UNL     1      -0.753   9.499  20.759  0.00  0.00    +0.000 C 
ATOM      4  N   UNL     1      -0.134  10.597  21.562  0.00  0.00    +0.000 NA
ATOM      5  C   UNL     1       1.347  10.413  21.679  0.00  0.00    +0.000 C 
ATOM      6  C   UNL     1       1.689   9.069  22.317  0.00  0.00    +0.000 C 
ENDROOT
BRANCH   1   8
ATOM      7  N   UNL     1       2.436   6.331  20.251  0.00  0.00    +0.000 N 
ATOM      8  C   UNL     1       1.804   7.561  20.244  0.00  0.00    +0.000 C 
ATOM      9  O   UNL     1       1.810   8.344  19.299  0.00  0.00    +0.000 OA
ATOM     10  H   UNL     1       2.701   5.934  21.146  0.00  0.00    +0.000 HD
BRANCH   7  14
ATOM     11  C   UNL     1       4.281   4.578  16.875  0.00  0.00    +0.000 A 
ATOM     12  C   UNL     1       4.889   5.659  17.518  0.00  0.00    +0.000 A 
ATOM     13  C   UNL     1       4.314   6.235  18.656  0.00  0.00    +0.000 A 
ATOM     14  C   UNL     1       3.101   5.747  19.146  0.00  0.00    +0.000 A 
ATOM     15  C   UNL     1       2.470   4.670  18.491  0.00  0.00    +0.000 A 
ATOM     16  C   UNL     1       3.073   4.079  17.371  0.00  0.00    +0.000 A 
BRANCH  11  18
ATOM     17  C   UNL     1       6.377   4.258  15.778  0.00  0.00    +0.000 C 
ATOM     18  O   UNL     1       4.964   4.098  15.790  0.00  0.00    +0.000 OA
ENDBRANCH  11  18
BRANCH  15  19
ATOM     19  O   UNL     1       1.299   4.244  19.074  0.00  0.00    +0.000 OA
ATOM     20  C   UNL     1       1.103   2.840  19.178  0.00  0.00    +0.000 C 
ENDBRANCH  15  19
ENDBRANCH   7  14
ENDBRANCH   1   8
BRANCH   4  21
ATOM     21  S   UNL     1      -0.498  12.191  20.968  0.00  0.00    +0.000 S 
ATOM     22  O   UNL     1       0.309  13.137  21.727  0.00  0.00    +0.000 OA
ATOM     23  O   UNL     1      -0.427  12.155  19.527  0.00  0.00    +0.000 OA
BRANCH  21  24
ATOM     24  C   UNL     1      -2.190  12.488  21.434  0.00  0.00    +0.000 A 
ATOM     25  C   UNL     1      -3.076  13.052  20.507  0.00  0.00    +0.000 A 
ATOM     26  C   UNL     1      -4.399  13.302  20.875  0.00  0.00    +0.000 A 
ATOM     27  C   UNL     1      -4.816  13.006  22.172  0.00  0.00    +0.000 A 
ATOM     28  N   UNL     1      -6.176  13.079  22.502  0.00  0.00    +0.000 N 
ATOM     29  C   UNL     1      -6.664  12.696  23.723  0.00  0.00    +0.000 A 
ATOM     30  O   UNL     1      -7.859  12.531  23.936  0.00  0.00    +0.000 OA
ATOM     31  C   UNL     1      -5.663  12.517  24.804  0.00  0.00    +0.000 A 
ATOM     32  C   UNL     1      -4.354  12.446  24.526  0.00  0.00    +0.000 A 
ATOM     33  C   UNL     1      -3.899  12.564  23.139  0.00  0.00    +0.000 A 
ATOM     34  C   UNL     1      -2.583  12.282  22.763  0.00  0.00    +0.000 A 
ATOM     35  H   UNL     1      -6.866  13.254  21.785  0.00  0.00    +0.000 HD
ENDBRANCH  21  24
ENDBRANCH   4  21
TORSDOF 6
ENDMDL
MODEL 4
REMARK VINA RESULT:      -7.9      3.768     11.958
REMARK  Name = 
REMARK  8 active torsions:
REMARK  status: ('A' for Active; 'I' for Inactive)
REMARK    1  A    between atoms: C_1  and  O_2
REMARK    2  A    between atoms: O_2  and  C_3
REMARK    3  A    between atoms: C_6  and  N_7
REMARK    4  A    between atoms: C_8  and  C_10
REMARK    5  A    between atoms: N_13  and  S_14
REMARK    6  A    between atoms: S_14  and  C_17
REMARK    7  A    between atoms: C_30  and  O_31
REMARK    8  A    between atoms: O_31  and  C_32
REMARK                            x       y       z     vdW  Elec       q    Type
REMARK                         _______ _______ _______ _____ _____    ______ ____
ROOT
ATOM      1  C   UNL     1      -0.685  12.411  18.788  0.00  0.00    +0.000 C 
ATOM      2  C   UNL     1      -1.056  10.997  18.321  0.00  0.00    +0.000 C 
ATOM      3  C   UNL     1      -0.894   9.925  19.403  0.00  0.00    +0.000 C 
ATOM      4  N   UNL     1       0.482   9.957  19.984  0.00  0.00    +0.000 NA
ATOM      5  C   UNL     1       0.809  11.314  20.527  0.00  0.00    +0.000 C 
ATOM      6  C   UNL     1       0.695  12.385  19.445  0.00  0.00    +0.000 C 
ENDROOT
BRANCH   1   8
ATOM      7  N   UNL     1      -2.968  12.342  19.659  0.00  0.00    +0.000 N 
ATOM      8  C   UNL     1      -1.775  13.041  19.670  0.00  0.00    +0.000 C 
ATOM      9  O   UNL     1      -1.578  14.074  20.303  0.00  0.00    +0.000 OA
ATOM     10  H   UNL     1      -3.170  11.753  18.858  0.00  0.00    +0.000 HD
BRANCH   7  14
ATOM     11  C   UNL     1      -6.447  13.153  21.921  0.00  0.00    +0.000 A 
ATOM     12  C   UNL     1      -5.208  13.058  22.559  0.00  0.00    +0.000 A 
ATOM     13  C   UNL     1      -4.038  12.823  21.827  0.00  0.00    +0.000 A 
ATOM     14  C   UNL     1      -4.106  12.651  20.444  0.00  0.00    +0.000 A 
ATOM     15  C   UNL     1      -5.354  12.723  19.794  0.00  0.00    +0.000 A 
ATOM     16  C   UNL     1      -6.515  12.993  20.533  0.00  0.00    +0.000 A 
BRANCH  11  18
ATOM     17  C   UNL     1      -7.386  14.512  23.644  0.00  0.00    +0.000 C 
ATOM     18  O   UNL     1      -7.503  13.410  22.753  0.00  0.00    +0.000 OA
ENDBRANCH  11  18
BRANCH  15  19
ATOM     19  O   UNL     1      -5.305  12.574  18.427  0.00  0.00    +0.000 OA
ATOM     20  C   UNL     1      -6.289  11.739  17.833  0.00  0.00    +0.000 C 
ENDBRANCH  15  19
ENDBRANCH   7  14
ENDBRANCH   1   8
BRANCH   4  21
ATOM     21  S   UNL     1       0.761   8.741  21.196  0.00  0.00    +0.000 S 
ATOM     22  O   UNL     1       1.690   9.296  22.171  0.00  0.00    +0.000 OA
ATOM     23  O   UNL     1      -0.521   8.227  21.612  0.00  0.00    +0.000 OA
BRANCH  21  24
ATOM     24  C   UNL     1       1.635   7.437  20.356  0.00  0.00    +0.000 A 
ATOM     25  C   UNL     1       1.625   6.140  20.886  0.00  0.00    +0.000 A 
ATOM     26  C   UNL     1       2.323   5.120  20.239  0.00  0.00    +0.000 A 
ATOM     27  C   UNL     1       3.043   5.412  19.081  0.00  0.00    +0.000 A 
ATOM     28  N   UNL     1       3.596   4.371  18.322  0.00  0.00    +0.000 N 
ATOM     29  C   UNL     1       4.217   4.580  17.119  0.00  0.00    +0.000 A 
ATOM     30  O   UNL     1       4.486   3.669  16.346  0.00  0.00    +0.000 OA
ATOM     31  C   UNL     1       4.585   5.983  16.805  0.00  0.00    +0.000 A 
ATOM     32  C   UNL     1       4.078   7.003  17.511  0.00  0.00    +0.000 A 
ATOM     33  C   UNL     1       3.162   6.733  18.621  0.00  0.00    +0.000 A 
ATOM     34  C   UNL     1       2.436   7.749  19.249  0.00  0.00    +0.000 A 
ATOM     35  H   UNL     1       3.399   3.409  18.557  0.00  0.00    +0.000 HD
ENDBRANCH  21  24
ENDBRANCH   4  21
TORSDOF 6
ENDMDL
MODEL 5
REMARK VINA RESULT:      -7.8      4.934     12.245
REMARK  Name = 
REMARK  8 active torsions:
REMARK  status: ('A' for Active; 'I' for Inactive)
REMARK    1  A    between atoms: C_1  and  O_2
REMARK    2  A    between atoms: O_2  and  C_3
REMARK    3  A    between atoms: C_6  and  N_7
REMARK    4  A    between atoms: C_8  and  C_10
REMARK    5  A    between atoms: N_13  and  S_14
REMARK    6  A    between atoms: S_14  and  C_17
REMARK    7  A    between atoms: C_30  and  O_31
REMARK    8  A    between atoms: O_31  and  C_32
REMARK                            x       y       z     vdW  Elec       q    Type
REMARK                         _______ _______ _______ _____ _____    ______ ____
ROOT
ATOM      1  C   UNL     1      -0.496  12.842  18.927  0.00  0.00    +0.000 C 
ATOM      2  C   UNL     1      -1.273  11.529  18.760  0.00  0.00    +0.000 C 
ATOM      3  C   UNL     1      -1.055  10.531  19.903  0.00  0.00    +0.000 C 
ATOM      4  N   UNL     1       0.401  10.273  20.116  0.00  0.00    +0.000 NA
ATOM      5  C   UNL     1       1.145  11.547  20.373  0.00  0.00    +0.000 C 
ATOM      6  C   UNL     1       0.972  12.532  19.220  0.00  0.00    +0.000 C 
ENDROOT
BRANCH   1   8
ATOM      7  N   UNL     1      -2.503  13.571  20.116  0.00  0.00    +0.000 N 
ATOM      8  C   UNL     1      -1.145  13.779  19.959  0.00  0.00    +0.000 C 
ATOM      9  O   UNL     1      -0.494  14.628  20.561  0.00  0.00    +0.000 OA
ATOM     10  H   UNL     1      -3.014  13.146  19.351  0.00  0.00    +0.000 HD
BRANCH   7  14
ATOM     11  C   UNL     1      -4.875  15.490  23.043  0.00  0.00    +0.000 A 
ATOM     12  C   UNL     1      -4.512  16.176  21.882  0.00  0.00    +0.000 A 
ATOM     13  C   UNL     1      -3.755  15.552  20.884  0.00  0.00    +0.000 A 
ATOM     14  C   UNL     1      -3.329  14.234  21.058  0.00  0.00    +0.000 A 
ATOM     15  C   UNL     1      -3.672  13.541  22.235  0.00  0.00    +0.000 A 
ATOM     16  C   UNL     1      -4.460  14.166  23.213  0.00  0.00    +0.000 A 
BRANCH  11  18
ATOM     17  C   UNL     1      -4.954  17.007  24.886  0.00  0.00    +0.000 C 
ATOM     18  O   UNL     1      -5.636  16.213  23.923  0.00  0.00    +0.000 OA
ENDBRANCH  11  18
BRANCH  15  19
ATOM     19  O   UNL     1      -3.232  12.238  22.290  0.00  0.00    +0.000 OA
ATOM     20  C   UNL     1      -2.174  11.952  23.194  0.00  0.00    +0.000 C 
ENDBRANCH  15  19
ENDBRANCH   7  14
ENDBRANCH   1   8
BRANCH   4  21
ATOM     21  S   UNL     1       0.733   9.117  21.372  0.00  0.00    +0.000 S 
ATOM     22  O   UNL     1       1.771   9.680  22.226  0.00  0.00    +0.000 OA
ATOM     23  O   UNL     1      -0.529   8.696  21.932  0.00  0.00    +0.000 OA
BRANCH  21  24
ATOM     24  C   UNL     1       1.465   7.723  20.543  0.00  0.00    +0.000 A 
ATOM     25  C   UNL     1       2.114   7.907  19.315  0.00  0.00    +0.000 A 
ATOM     26  C   UNL     1       2.674   6.813  18.656  0.00  0.00    +0.000 A 
ATOM     27  C   UNL     1       2.561   5.542  19.219  0.00  0.00    +0.000 A 
ATOM     28  N   UNL     1       3.270   4.467  18.667  0.00  0.00    +0.000 N 
ATOM     29  C   UNL     1       3.291   3.221  19.236  0.00  0.00    +0.000 A 
ATOM     30  O   UNL     1       4.087   2.354  18.901  0.00  0.00    +0.000 OA
ATOM     31  C   UNL     1       2.264   2.957  20.275  0.00  0.00    +0.000 A 
ATOM     32  C   UNL     1       1.565   3.960  20.823  0.00  0.00    +0.000 A 
ATOM     33  C   UNL     1       1.801   5.336  20.381  0.00  0.00    +0.000 A 
ATOM     34  C   UNL     1       1.268   6.436  21.060  0.00  0.00    +0.000 A 
ATOM     35  H   UNL     1       3.934   4.624  17.921  0.00  0.00    +0.000 HD
ENDBRANCH  21  24
ENDBRANCH   4  21
TORSDOF 6
ENDMDL
MODEL 6
REMARK VINA RESULT:      -7.8      5.045      7.697
REMARK  Name = 
REMARK  8 active torsions:
REMARK  status: ('A' for Active; 'I' for Inactive)
REMARK    1  A    between atoms: C_1  and  O_2
REMARK    2  A    between atoms: O_2  and  C_3
REMARK    3  A    between atoms: C_6  and  N_7
REMARK    4  A    between atoms: C_8  and  C_10
REMARK    5  A    between atoms: N_13  and  S_14
REMARK    6  A    between atoms: S_14  and  C_17
REMARK    7  A    between atoms: C_30  and  O_31
REMARK    8  A    between atoms: O_31  and  C_32
REMARK                            x       y       z     vdW  Elec       q    Type
REMARK                         _______ _______ _______ _____ _____    ______ ____
ROOT
ATOM      1  C   UNL     1       1.252   9.315  22.555  0.00  0.00    +0.000 C 
ATOM      2  C   UNL     1       0.120   9.538  23.567  0.00  0.00    +0.000 C 
ATOM      3  C   UNL     1      -1.040  10.378  23.023  0.00  0.00    +0.000 C 
ATOM      4  N   UNL     1      -0.546  11.676  22.471  0.00  0.00    +0.000 NA
ATOM      5  C   UNL     1       0.492  11.455  21.415  0.00  0.00    +0.000 C 
ATOM      6  C   UNL     1       1.674  10.657  21.958  0.00  0.00    +0.000 C 
ENDROOT
BRANCH   1   8
ATOM      7  N   UNL     1       1.990   7.576  21.004  0.00  0.00    +0.000 N 
ATOM      8  C   UNL     1       0.893   8.257  21.499  0.00  0.00    +0.000 C 
ATOM      9  O   UNL     1      -0.266   8.066  21.143  0.00  0.00    +0.000 OA
ATOM     10  H   UNL     1       2.897   8.027  21.055  0.00  0.00    +0.000 HD
BRANCH   7  14
ATOM     11  C   UNL     1       1.980   4.399  18.214  0.00  0.00    +0.000 A 
ATOM     12  C   UNL     1       1.559   4.174  19.527  0.00  0.00    +0.000 A 
ATOM     13  C   UNL     1       1.523   5.217  20.460  0.00  0.00    +0.000 A 
ATOM     14  C   UNL     1       1.938   6.496  20.088  0.00  0.00    +0.000 A 
ATOM     15  C   UNL     1       2.385   6.728  18.772  0.00  0.00    +0.000 A 
ATOM     16  C   UNL     1       2.385   5.682  17.837  0.00  0.00    +0.000 A 
BRANCH  11  18
ATOM     17  C   UNL     1       2.151   2.026  18.007  0.00  0.00    +0.000 C 
ATOM     18  O   UNL     1       1.942   3.296  17.403  0.00  0.00    +0.000 OA
ENDBRANCH  11  18
BRANCH  15  19
ATOM     19  O   UNL     1       2.739   8.030  18.500  0.00  0.00    +0.000 OA
ATOM     20  C   UNL     1       1.790   8.825  17.804  0.00  0.00    +0.000 C 
ENDBRANCH  15  19
ENDBRANCH   7  14
ENDBRANCH   1   8
BRANCH   4  21
ATOM     21  S   UNL     1      -1.809  12.709  21.868  0.00  0.00    +0.000 S 
ATOM     22  O   UNL     1      -3.064  12.258  22.453  0.00  0.00    +0.000 OA
ATOM     23  O   UNL     1      -1.376  14.077  22.024  0.00  0.00    +0.000 OA
BRANCH  21  24
ATOM     24  C   UNL     1      -1.910  12.355  20.126  0.00  0.00    +0.000 A 
ATOM     25  C   UNL     1      -0.847  12.703  19.283  0.00  0.00    +0.000 A 
ATOM     26  C   UNL     1      -0.932  12.442  17.915  0.00  0.00    +0.000 A 
ATOM     27  C   UNL     1      -2.087  11.855  17.401  0.00  0.00    +0.000 A 
ATOM     28  N   UNL     1      -2.117  11.421  16.068  0.00  0.00    +0.000 N 
ATOM     29  C   UNL     1      -3.178  10.739  15.534  0.00  0.00    +0.000 A 
ATOM     30  O   UNL     1      -3.115  10.155  14.459  0.00  0.00    +0.000 OA
ATOM     31  C   UNL     1      -4.439  10.769  16.316  0.00  0.00    +0.000 A 
ATOM     32  C   UNL     1      -4.449  11.180  17.591  0.00  0.00    +0.000 A 
ATOM     33  C   UNL     1      -3.204  11.625  18.220  0.00  0.00    +0.000 A 
ATOM     34  C   UNL     1      -3.107  11.856  19.596  0.00  0.00    +0.000 A 
ATOM     35  H   UNL     1      -1.278  11.446  15.506  0.00  0.00    +0.000 HD
ENDBRANCH  21  24
ENDBRANCH   4  21
TORSDOF 6
ENDMDL
MODEL 7
REMARK VINA RESULT:      -7.7      4.795     12.422
REMARK  Name = 
REMARK  8 active torsions:
REMARK  status: ('A' for Active; 'I' for Inactive)
REMARK    1  A    between atoms: C_1  and  O_2
REMARK    2  A    between atoms: O_2  and  C_3
REMARK    3  A    between atoms: C_6  and  N_7
REMARK    4  A    between atoms: C_8  and  C_10
REMARK    5  A    between atoms: N_13  and  S_14
REMARK    6  A    between atoms: S_14  and  C_17
REMARK    7  A    between atoms: C_30  and  O_31
REMARK    8  A    between atoms: O_31  and  C_32
REMARK                            x       y       z     vdW  Elec       q    Type
REMARK                         _______ _______ _______ _____ _____    ______ ____
ROOT
ATOM      1  C   UNL     1      -1.053  12.526  19.308  0.00  0.00    +0.000 C 
ATOM      2  C   UNL     1      -0.911  11.158  18.625  0.00  0.00    +0.000 C 
ATOM      3  C   UNL     1      -0.690   9.999  19.601  0.00  0.00    +0.000 C 
ATOM      4  N   UNL     1       0.469  10.274  20.503  0.00  0.00    +0.000 NA
ATOM      5  C   UNL     1       0.285  11.563  21.242  0.00  0.00    +0.000 C 
ATOM      6  C   UNL     1       0.109  12.734  20.278  0.00  0.00    +0.000 C 
ENDROOT
BRANCH   1   8
ATOM      7  N   UNL     1      -2.393  13.388  21.161  0.00  0.00    +0.000 N 
ATOM      8  C   UNL     1      -2.436  12.717  19.953  0.00  0.00    +0.000 C 
ATOM      9  O   UNL     1      -3.460  12.292  19.426  0.00  0.00    +0.000 OA
ATOM     10  H   UNL     1      -1.529  13.365  21.691  0.00  0.00    +0.000 HD
BRANCH   7  14
ATOM     11  C   UNL     1      -5.817  14.621  23.315  0.00  0.00    +0.000 A 
ATOM     12  C   UNL     1      -5.411  13.285  23.358  0.00  0.00    +0.000 A 
ATOM     13  C   UNL     1      -4.263  12.860  22.680  0.00  0.00    +0.000 A 
ATOM     14  C   UNL     1      -3.524  13.771  21.925  0.00  0.00    +0.000 A 
ATOM     15  C   UNL     1      -3.937  15.116  21.858  0.00  0.00    +0.000 A 
ATOM     16  C   UNL     1      -5.070  15.538  22.570  0.00  0.00    +0.000 A 
BRANCH  11  18
ATOM     17  C   UNL     1      -7.845  13.835  24.298  0.00  0.00    +0.000 C 
ATOM     18  O   UNL     1      -6.942  14.903  24.043  0.00  0.00    +0.000 OA
ENDBRANCH  11  18
BRANCH  15  19
ATOM     19  O   UNL     1      -3.120  15.938  21.116  0.00  0.00    +0.000 OA
ATOM     20  C   UNL     1      -3.750  16.962  20.359  0.00  0.00    +0.000 C 
ENDBRANCH  15  19
ENDBRANCH   7  14
ENDBRANCH   1   8
BRANCH   4  21
ATOM     21  S   UNL     1       0.813   8.985  21.619  0.00  0.00    +0.000 S 
ATOM     22  O   UNL     1       1.896   9.429  22.485  0.00  0.00    +0.000 OA
ATOM     23  O   UNL     1      -0.439   8.537  22.179  0.00  0.00    +0.000 OA
BRANCH  21  24
ATOM     24  C   UNL     1       1.476   7.668  20.621  0.00  0.00    +0.000 A 
ATOM     25  C   UNL     1       2.116   7.968  19.412  0.00  0.00    +0.000 A 
ATOM     26  C   UNL     1       2.622   6.936  18.620  0.00  0.00    +0.000 A 
ATOM     27  C   UNL     1       2.463   5.615  19.034  0.00  0.00    +0.000 A 
ATOM     28  N   UNL     1       3.119   4.584  18.348  0.00  0.00    +0.000 N 
ATOM     29  C   UNL     1       3.095   3.280  18.769  0.00  0.00    +0.000 A 
ATOM     30  O   UNL     1       3.850   2.426  18.321  0.00  0.00    +0.000 OA
ATOM     31  C   UNL     1       2.070   2.938  19.787  0.00  0.00    +0.000 A 
ATOM     32  C   UNL     1       1.421   3.898  20.460  0.00  0.00    +0.000 A 
ATOM     33  C   UNL     1       1.709   5.305  20.177  0.00  0.00    +0.000 A 
ATOM     34  C   UNL     1       1.231   6.338  20.988  0.00  0.00    +0.000 A 
ATOM     35  H   UNL     1       3.780   4.799  17.615  0.00  0.00    +0.000 HD
ENDBRANCH  21  24
ENDBRANCH   4  21
TORSDOF 6
ENDMDL
MODEL 8
REMARK VINA RESULT:      -7.7      4.077      6.770
REMARK  Name = 
REMARK  8 active torsions:
REMARK  status: ('A' for Active; 'I' for Inactive)
REMARK    1  A    between atoms: C_1  and  O_2
REMARK    2  A    between atoms: O_2  and  C_3
REMARK    3  A    between atoms: C_6  and  N_7
REMARK    4  A    between atoms: C_8  and  C_10
REMARK    5  A    between atoms: N_13  and  S_14
REMARK    6  A    between atoms: S_14  and  C_17
REMARK    7  A    between atoms: C_30  and  O_31
REMARK    8  A    between atoms: O_31  and  C_32
REMARK                            x       y       z     vdW  Elec       q    Type
REMARK                         _______ _______ _______ _____ _____    ______ ____
ROOT
ATOM      1  C   UNL     1       1.141   9.525  18.023  0.00  0.00    +0.000 C 
ATOM      2  C   UNL     1       1.965  10.770  18.378  0.00  0.00    +0.000 C 
ATOM      3  C   UNL     1       1.735  11.278  19.805  0.00  0.00    +0.000 C 
ATOM      4  N   UNL     1       0.280  11.502  20.064  0.00  0.00    +0.000 NA
ATOM      5  C   UNL     1      -0.513  10.258  19.808  0.00  0.00    +0.000 C 
ATOM      6  C   UNL     1      -0.327   9.767  18.375  0.00  0.00    +0.000 C 
ENDROOT
BRANCH   1   8
ATOM      7  N   UNL     1       2.025   7.267  17.713  0.00  0.00    +0.000 N 
ATOM      8  C   UNL     1       1.719   8.243  18.644  0.00  0.00    +0.000 C 
ATOM      9  O   UNL     1       1.872   8.124  19.856  0.00  0.00    +0.000 OA
ATOM     10  H   UNL     1       1.539   7.285  16.824  0.00  0.00    +0.000 HD
BRANCH   7  14
ATOM     11  C   UNL     1       4.003   3.646  18.638  0.00  0.00    +0.000 A 
ATOM     12  C   UNL     1       2.632   3.770  18.873  0.00  0.00    +0.000 A 
ATOM     13  C   UNL     1       1.949   4.947  18.545  0.00  0.00    +0.000 A 
ATOM     14  C   UNL     1       2.647   6.027  18.001  0.00  0.00    +0.000 A 
ATOM     15  C   UNL     1       4.034   5.919  17.781  0.00  0.00    +0.000 A 
ATOM     16  C   UNL     1       4.701   4.723  18.083  0.00  0.00    +0.000 A 
BRANCH  11  18
ATOM     17  C   UNL     1       4.493   2.061  20.355  0.00  0.00    +0.000 C 
ATOM     18  O   UNL     1       4.538   2.434  18.983  0.00  0.00    +0.000 OA
ENDBRANCH  11  18
BRANCH  15  19
ATOM     19  O   UNL     1       4.618   7.027  17.211  0.00  0.00    +0.000 OA
ATOM     20  C   UNL     1       6.036   7.036  17.123  0.00  0.00    +0.000 C 
ENDBRANCH  15  19
ENDBRANCH   7  14
ENDBRANCH   1   8
BRANCH   4  21
ATOM     21  S   UNL     1      -0.063  12.119  21.653  0.00  0.00    +0.000 S 
ATOM     22  O   UNL     1       0.172  11.041  22.605  0.00  0.00    +0.000 OA
ATOM     23  O   UNL     1       0.616  13.384  21.795  0.00  0.00    +0.000 OA
BRANCH  21  24
ATOM     24  C   UNL     1      -1.816  12.427  21.666  0.00  0.00    +0.000 A 
ATOM     25  C   UNL     1      -2.457  12.845  20.493  0.00  0.00    +0.000 A 
ATOM     26  C   UNL     1      -3.828  13.104  20.505  0.00  0.00    +0.000 A 
ATOM     27  C   UNL     1      -4.541  12.963  21.695  0.00  0.00    +0.000 A 
ATOM     28  N   UNL     1      -5.940  13.040  21.685  0.00  0.00    +0.000 N 
ATOM     29  C   UNL     1      -6.704  12.801  22.797  0.00  0.00    +0.000 A 
ATOM     30  O   UNL     1      -7.916  12.633  22.743  0.00  0.00    +0.000 OA
ATOM     31  C   UNL     1      -5.987  12.787  24.096  0.00  0.00    +0.000 A 
ATOM     32  C   UNL     1      -4.650  12.717  24.144  0.00  0.00    +0.000 A 
ATOM     33  C   UNL     1      -3.880  12.671  22.899  0.00  0.00    +0.000 A 
ATOM     34  C   UNL     1      -2.513  12.379  22.881  0.00  0.00    +0.000 A 
ATOM     35  H   UNL     1      -6.441  13.105  20.810  0.00  0.00    +0.000 HD
ENDBRANCH  21  24
ENDBRANCH   4  21
TORSDOF 6
ENDMDL
MODEL 9
REMARK VINA RESULT:      -7.7      0.749      1.472
REMARK  Name = 
REMARK  8 active torsions:
REMARK  status: ('A' for Active; 'I' for Inactive)
REMARK    1  A    between atoms: C_1  and  O_2
REMARK    2  A    between atoms: O_2  and  C_3
REMARK    3  A    between atoms: C_6  and  N_7
REMARK    4  A    between atoms: C_8  and  C_10
REMARK    5  A    between atoms: N_13  and  S_14
REMARK    6  A    between atoms: S_14  and  C_17
REMARK    7  A    between atoms: C_30  and  O_31
REMARK    8  A    between atoms: O_31  and  C_32
REMARK                            x       y       z     vdW  Elec       q    Type
REMARK                         _______ _______ _______ _____ _____    ______ ____
ROOT
ATOM      1  C   UNL     1       7.103   6.203  17.631  0.00  0.00    +0.000 C 
ATOM      2  C   UNL     1       6.853   5.594  19.018  0.00  0.00    +0.000 C 
ATOM      3  C   UNL     1       5.405   5.150  19.247  0.00  0.00    +0.000 C 
ATOM      4  N   UNL     1       4.453   6.269  18.969  0.00  0.00    +0.000 NA
ATOM      5  C   UNL     1       4.633   6.800  17.581  0.00  0.00    +0.000 C 
ATOM      6  C   UNL     1       6.062   7.289  17.356  0.00  0.00    +0.000 C 
ENDROOT
BRANCH   1   8
ATOM      7  N   UNL     1       6.382   5.406  15.436  0.00  0.00    +0.000 N 
ATOM      8  C   UNL     1       7.185   5.135  16.529  0.00  0.00    +0.000 C 
ATOM      9  O   UNL     1       7.898   4.142  16.642  0.00  0.00    +0.000 OA
ATOM     10  H   UNL     1       5.575   6.006  15.572  0.00  0.00    +0.000 HD
BRANCH   7  14
ATOM     11  C   UNL     1       6.383   3.082  11.903  0.00  0.00    +0.000 A 
ATOM     12  C   UNL     1       5.366   2.915  12.846  0.00  0.00    +0.000 A 
ATOM     13  C   UNL     1       5.326   3.695  14.008  0.00  0.00    +0.000 A 
ATOM     14  C   UNL     1       6.329   4.636  14.248  0.00  0.00    +0.000 A 
ATOM     15  C   UNL     1       7.370   4.797  13.313  0.00  0.00    +0.000 A 
ATOM     16  C   UNL     1       7.381   4.033  12.136  0.00  0.00    +0.000 A 
BRANCH  11  18
ATOM     17  C   UNL     1       6.151   0.874  11.027  0.00  0.00    +0.000 C 
ATOM     18  O   UNL     1       6.285   2.272  10.804  0.00  0.00    +0.000 OA
ENDBRANCH  11  18
BRANCH  15  19
ATOM     19  O   UNL     1       8.287   5.774  13.628  0.00  0.00    +0.000 OA
ATOM     20  C   UNL     1       9.247   6.103  12.634  0.00  0.00    +0.000 C 
ENDBRANCH  15  19
ENDBRANCH   7  14
ENDBRANCH   1   8
BRANCH   4  21
ATOM     21  S   UNL     1       2.786   5.857  19.245  0.00  0.00    +0.000 S 
ATOM     22  O   UNL     1       2.185   5.564  17.951  0.00  0.00    +0.000 OA
ATOM     23  O   UNL     1       2.739   4.887  20.313  0.00  0.00    +0.000 OA
BRANCH  21  24
ATOM     24  C   UNL     1       2.024   7.357  19.825  0.00  0.00    +0.000 A 
ATOM     25  C   UNL     1       1.452   7.397  21.103  0.00  0.00    +0.000 A 
ATOM     26  C   UNL     1       0.839   8.567  21.553  0.00  0.00    +0.000 A 
ATOM     27  C   UNL     1       0.785   9.678  20.712  0.00  0.00    +0.000 A 
ATOM     28  N   UNL     1       0.339  10.910  21.211  0.00  0.00    +0.000 N 
ATOM     29  C   UNL     1       0.366  12.063  20.471  0.00  0.00    +0.000 A 
ATOM     30  O   UNL     1       0.207  13.171  20.967  0.00  0.00    +0.000 OA
ATOM     31  C   UNL     1       0.568  11.901  19.009  0.00  0.00    +0.000 A 
ATOM     32  C   UNL     1       0.990  10.736  18.498  0.00  0.00    +0.000 A 
ATOM     33  C   UNL     1       1.240   9.600  19.387  0.00  0.00    +0.000 A 
ATOM     34  C   UNL     1       1.884   8.440  18.947  0.00  0.00    +0.000 A 
ATOM     35  H   UNL     1       0.145  11.021  22.196  0.00  0.00    +0.000 HD
ENDBRANCH  21  24
ENDBRANCH   4  21
TORSDOF 6
ENDMDL
