MODEL 1
REMARK VINA RESULT:      -6.6      0.000      0.000
REMARK  Name = 
REMARK  8 active torsions:
REMARK  status: ('A' for Active; 'I' for Inactive)
REMARK    1  A    between atoms: C_1  and  O_2
REMARK    2  A    between atoms: O_2  and  C_3
REMARK    3  A    between atoms: C_8  and  C_9
REMARK    4  A    between atoms: C_16  and  C_17
REMARK    5  A    between atoms: C_18  and  O_19
REMARK    6  A    between atoms: O_19  and  C_20
REMARK    7  A    between atoms: C_25  and  C_26
REMARK    8  A    between atoms: C_33  and  C_34
REMARK                            x       y       z     vdW  Elec       q    Type
REMARK                         _______ _______ _______ _____ _____    ______ ____
ROOT
ATOM      1  C   UNL     1       0.447  16.960  18.986  0.00  0.00    +0.000 C 
ATOM      2  C   UNL     1      -0.024  17.487  20.492  0.00  0.00    +0.000 C 
ATOM      3  O   UNL     1      -0.589  16.507  21.593  0.00  0.00    +0.000 OA
ATOM      4  C   UNL     1      -1.933  16.280  21.883  0.00  0.00    +0.000 C 
ATOM      5  O   UNL     1      -2.821  16.812  21.211  0.00  0.00    +0.000 OA
ATOM      6  C   UNL     1      -2.328  15.443  23.295  0.00  0.00    +0.000 C 
ATOM      7  C   UNL     1      -1.405  14.476  24.065  0.00  0.00    +0.000 C 
ATOM      8  N   UNL     1      -3.744  14.899  23.481  0.00  0.00    +0.000 N 
ATOM      9  C   UNL     1      -4.382  13.718  23.205  0.00  0.00    +0.000 C 
ATOM     10  O   UNL     1      -5.298  13.430  23.968  0.00  0.00    +0.000 OA
ATOM     11  C   UNL     1      -4.108  12.796  21.989  0.00  0.00    +0.000 C 
ATOM     12  C   UNL     1      -2.725  12.868  21.446  0.00  0.00    +0.000 C 
ATOM     13  C   UNL     1      -1.775  11.908  21.352  0.00  0.00    +0.000 C 
ATOM     14  C   UNL     1      -0.252  12.201  21.223  0.00  0.00    +0.000 C 
ATOM     15  C   UNL     1       0.479  11.373  20.165  0.00  0.00    +0.000 C 
ATOM     16  C   UNL     1       0.023  13.713  21.121  0.00  0.00    +0.000 C 
ATOM     17  C   UNL     1       1.320  14.343  21.704  0.00  0.00    +0.000 C 
ATOM     18  O   UNL     1       2.522  13.682  21.413  0.00  0.00    +0.000 OA
ATOM     19  C   UNL     1       3.262  14.391  20.527  0.00  0.00    +0.000 C 
ATOM     20  O   UNL     1       3.319  13.989  19.375  0.00  0.00    +0.000 OA
ATOM     21  C   UNL     1       4.157  15.496  21.188  0.00  0.00    +0.000 C 
ATOM     22  C   UNL     1       3.891  17.007  21.132  0.00  0.00    +0.000 C 
ATOM     23  N   UNL     1       5.520  15.197  20.782  0.00  0.00    +0.000 N 
ATOM     24  C   UNL     1       6.061  15.120  19.533  0.00  0.00    +0.000 C 
ATOM     25  O   UNL     1       7.200  14.636  19.485  0.00  0.00    +0.000 OA
ATOM     26  C   UNL     1       5.337  15.531  18.212  0.00  0.00    +0.000 C 
ATOM     27  C   UNL     1       4.195  16.540  18.247  0.00  0.00    +0.000 C 
ATOM     28  C   UNL     1       2.891  16.397  17.903  0.00  0.00    +0.000 C 
ATOM     29  C   UNL     1       1.777  17.479  18.125  0.00  0.00    +0.000 C 
ATOM     30  C   UNL     1       1.509  17.933  16.662  0.00  0.00    +0.000 C 
ATOM     31  H   UNL     1      -4.168  15.246  24.337  0.00  0.00    +0.000 HD
ATOM     32  H   UNL     1       6.136  14.829  21.496  0.00  0.00    +0.000 HD
ENDROOT
BRANCH   1  34
ATOM     33  C   UNL     1      -1.602  18.048  18.330  0.00  0.00    +0.000 C 
ATOM     34  O   UNL     1      -0.687  16.980  18.098  0.00  0.00    +0.000 OA
ENDBRANCH   1  34
BRANCH  16  35
ATOM     35  O   UNL     1      -0.512  14.388  19.989  0.00  0.00    +0.000 OA
ATOM     36  C   UNL     1      -0.335  13.849  18.699  0.00  0.00    +0.000 C 
ENDBRANCH  16  35
TORSDOF 2
ENDMDL
MODEL 2
REMARK VINA RESULT:      -6.0      2.253      7.985
REMARK  Name = 
REMARK  8 active torsions:
REMARK  status: ('A' for Active; 'I' for Inactive)
REMARK    1  A    between atoms: C_1  and  O_2
REMARK    2  A    between atoms: O_2  and  C_3
REMARK    3  A    between atoms: C_8  and  C_9
REMARK    4  A    between atoms: C_16  and  C_17
REMARK    5  A    between atoms: C_18  and  O_19
REMARK    6  A    between atoms: O_19  and  C_20
REMARK    7  A    between atoms: C_25  and  C_26
REMARK    8  A    between atoms: C_33  and  C_34
REMARK                            x       y       z     vdW  Elec       q    Type
REMARK                         _______ _______ _______ _____ _____    ______ ____
ROOT
ATOM      1  C   UNL     1      -3.314  16.405  22.796  0.00  0.00    +0.000 C 
ATOM      2  C   UNL     1      -3.047  16.934  21.242  0.00  0.00    +0.000 C 
ATOM      3  O   UNL     1      -1.976  16.268  20.294  0.00  0.00    +0.000 OA
ATOM      4  C   UNL     1      -0.681  16.728  20.061  0.00  0.00    +0.000 C 
ATOM      5  O   UNL     1      -0.241  17.705  20.672  0.00  0.00    +0.000 OA
ATOM      6  C   UNL     1       0.198  16.064  18.781  0.00  0.00    +0.000 C 
ATOM      7  C   UNL     1      -0.046  14.686  18.131  0.00  0.00    +0.000 C 
ATOM      8  N   UNL     1       1.705  16.300  18.695  0.00  0.00    +0.000 N 
ATOM      9  C   UNL     1       2.824  15.645  19.140  0.00  0.00    +0.000 C 
ATOM     10  O   UNL     1       3.822  15.784  18.438  0.00  0.00    +0.000 OA
ATOM     11  C   UNL     1       2.950  14.848  20.463  0.00  0.00    +0.000 C 
ATOM     12  C   UNL     1       1.678  14.263  20.966  0.00  0.00    +0.000 C 
ATOM     13  C   UNL     1       1.335  12.969  21.171  0.00  0.00    +0.000 C 
ATOM     14  C   UNL     1      -0.134  12.458  21.232  0.00  0.00    +0.000 C 
ATOM     15  C   UNL     1      -0.436  11.491  22.378  0.00  0.00    +0.000 C 
ATOM     16  C   UNL     1      -1.138  13.620  21.125  0.00  0.00    +0.000 C 
ATOM     17  C   UNL     1      -2.523  13.436  20.439  0.00  0.00    +0.000 C 
ATOM     18  O   UNL     1      -3.249  12.291  20.794  0.00  0.00    +0.000 OA
ATOM     19  C   UNL     1      -4.317  12.614  21.563  0.00  0.00    +0.000 C 
ATOM     20  O   UNL     1      -4.260  12.364  22.757  0.00  0.00    +0.000 OA
ATOM     21  C   UNL     1      -5.586  13.032  20.744  0.00  0.00    +0.000 C 
ATOM     22  C   UNL     1      -6.122  14.464  20.602  0.00  0.00    +0.000 C 
ATOM     23  N   UNL     1      -6.643  12.126  21.162  0.00  0.00    +0.000 N 
ATOM     24  C   UNL     1      -7.175  11.917  22.399  0.00  0.00    +0.000 C 
ATOM     25  O   UNL     1      -7.916  10.929  22.491  0.00  0.00    +0.000 OA
ATOM     26  C   UNL     1      -6.869  12.778  23.667  0.00  0.00    +0.000 C 
ATOM     27  C   UNL     1      -6.390  14.217  23.517  0.00  0.00    +0.000 C 
ATOM     28  C   UNL     1      -5.225  14.796  23.900  0.00  0.00    +0.000 C 
ATOM     29  C   UNL     1      -4.791  16.263  23.555  0.00  0.00    +0.000 C 
ATOM     30  C   UNL     1      -4.911  16.943  24.949  0.00  0.00    +0.000 C 
ATOM     31  H   UNL     1       1.968  16.721  17.809  0.00  0.00    +0.000 HD
ATOM     32  H   UNL     1      -6.929  11.422  20.492  0.00  0.00    +0.000 HD
ENDROOT
BRANCH   1  34
ATOM     33  C   UNL     1      -2.138  18.442  23.328  0.00  0.00    +0.000 C 
ATOM     34  O   UNL     1      -2.422  17.094  23.695  0.00  0.00    +0.000 OA
ENDBRANCH   1  34
BRANCH  16  35
ATOM     35  O   UNL     1      -1.112  14.590  22.166  0.00  0.00    +0.000 OA
ATOM     36  C   UNL     1      -1.170  14.179  23.512  0.00  0.00    +0.000 C 
ENDBRANCH  16  35
TORSDOF 2
ENDMDL
MODEL 3
REMARK VINA RESULT:      -5.6      2.422      7.708
REMARK  Name = 
REMARK  8 active torsions:
REMARK  status: ('A' for Active; 'I' for Inactive)
REMARK    1  A    between atoms: C_1  and  O_2
REMARK    2  A    between atoms: O_2  and  C_3
REMARK    3  A    between atoms: C_8  and  C_9
REMARK    4  A    between atoms: C_16  and  C_17
REMARK    5  A    between atoms: C_18  and  O_19
REMARK    6  A    between atoms: O_19  and  C_20
REMARK    7  A    between atoms: C_25  and  C_26
REMARK    8  A    between atoms: C_33  and  C_34
REMARK                            x       y       z     vdW  Elec       q    Type
REMARK                         _______ _______ _______ _____ _____    ______ ____
ROOT
ATOM      1  C   UNL     1      -0.969  16.142  23.656  0.00  0.00    +0.000 C 
ATOM      2  C   UNL     1      -1.220  17.414  22.613  0.00  0.00    +0.000 C 
ATOM      3  O   UNL     1      -0.929  17.309  21.066  0.00  0.00    +0.000 OA
ATOM      4  C   UNL     1       0.221  17.747  20.411  0.00  0.00    +0.000 C 
ATOM      5  O   UNL     1       1.170  18.210  21.049  0.00  0.00    +0.000 OA
ATOM      6  C   UNL     1       0.211  17.834  18.725  0.00  0.00    +0.000 C 
ATOM      7  C   UNL     1      -0.719  17.045  17.781  0.00  0.00    +0.000 C 
ATOM      8  N   UNL     1       1.530  17.993  17.968  0.00  0.00    +0.000 N 
ATOM      9  C   UNL     1       2.448  17.139  17.415  0.00  0.00    +0.000 C 
ATOM     10  O   UNL     1       3.045  17.580  16.437  0.00  0.00    +0.000 OA
ATOM     11  C   UNL     1       2.848  15.746  17.966  0.00  0.00    +0.000 C 
ATOM     12  C   UNL     1       1.789  15.055  18.750  0.00  0.00    +0.000 C 
ATOM     13  C   UNL     1       1.160  13.879  18.518  0.00  0.00    +0.000 C 
ATOM     14  C   UNL     1      -0.225  13.501  19.116  0.00  0.00    +0.000 C 
ATOM     15  C   UNL     1      -0.318  12.086  19.691  0.00  0.00    +0.000 C 
ATOM     16  C   UNL     1      -0.740  14.590  20.075  0.00  0.00    +0.000 C 
ATOM     17  C   UNL     1      -2.259  14.886  20.228  0.00  0.00    +0.000 C 
ATOM     18  O   UNL     1      -3.102  13.774  20.373  0.00  0.00    +0.000 OA
ATOM     19  C   UNL     1      -3.577  13.689  21.638  0.00  0.00    +0.000 C 
ATOM     20  O   UNL     1      -3.111  12.829  22.369  0.00  0.00    +0.000 OA
ATOM     21  C   UNL     1      -4.859  14.555  21.894  0.00  0.00    +0.000 C 
ATOM     22  C   UNL     1      -4.902  15.863  22.697  0.00  0.00    +0.000 C 
ATOM     23  N   UNL     1      -5.875  13.629  22.363  0.00  0.00    +0.000 N 
ATOM     24  C   UNL     1      -5.876  12.813  23.455  0.00  0.00    +0.000 C 
ATOM     25  O   UNL     1      -6.789  11.977  23.484  0.00  0.00    +0.000 OA
ATOM     26  C   UNL     1      -4.804  12.831  24.592  0.00  0.00    +0.000 C 
ATOM     27  C   UNL     1      -3.989  14.092  24.856  0.00  0.00    +0.000 C 
ATOM     28  C   UNL     1      -2.652  14.303  24.771  0.00  0.00    +0.000 C 
ATOM     29  C   UNL     1      -1.949  15.696  24.928  0.00  0.00    +0.000 C 
ATOM     30  C   UNL     1      -1.244  15.517  26.303  0.00  0.00    +0.000 C 
ATOM     31  H   UNL     1       1.519  18.811  17.366  0.00  0.00    +0.000 HD
ATOM     32  H   UNL     1      -6.629  13.418  21.720  0.00  0.00    +0.000 HD
ENDROOT
BRANCH   1  34
ATOM     33  C   UNL     1       0.919  17.496  24.303  0.00  0.00    +0.000 C 
ATOM     34  O   UNL     1       0.388  16.183  24.139  0.00  0.00    +0.000 OA
ENDBRANCH   1  34
BRANCH  16  35
ATOM     35  O   UNL     1       0.036  14.838  21.242  0.00  0.00    +0.000 OA
ATOM     36  C   UNL     1       0.514  13.758  22.012  0.00  0.00    +0.000 C 
ENDBRANCH  16  35
TORSDOF 2
ENDMDL
MODEL 4
REMARK VINA RESULT:      -5.5      3.009      8.149
REMARK  Name = 
REMARK  8 active torsions:
REMARK  status: ('A' for Active; 'I' for Inactive)
REMARK    1  A    between atoms: C_1  and  O_2
REMARK    2  A    between atoms: O_2  and  C_3
REMARK    3  A    between atoms: C_8  and  C_9
REMARK    4  A    between atoms: C_16  and  C_17
REMARK    5  A    between atoms: C_18  and  O_19
REMARK    6  A    between atoms: O_19  and  C_20
REMARK    7  A    between atoms: C_25  and  C_26
REMARK    8  A    between atoms: C_33  and  C_34
REMARK                            x       y       z     vdW  Elec       q    Type
REMARK                         _______ _______ _______ _____ _____    ______ ____
ROOT
ATOM      1  C   UNL     1      -5.105  16.370  21.970  0.00  0.00    +0.000 C 
ATOM      2  C   UNL     1      -4.514  17.017  20.556  0.00  0.00    +0.000 C 
ATOM      3  O   UNL     1      -3.056  16.716  20.032  0.00  0.00    +0.000 OA
ATOM      4  C   UNL     1      -1.935  17.527  20.199  0.00  0.00    +0.000 C 
ATOM      5  O   UNL     1      -2.002  18.563  20.868  0.00  0.00    +0.000 OA
ATOM      6  C   UNL     1      -0.546  17.188  19.301  0.00  0.00    +0.000 C 
ATOM      7  C   UNL     1      -0.179  15.825  18.679  0.00  0.00    +0.000 C 
ATOM      8  N   UNL     1       0.782  17.838  19.687  0.00  0.00    +0.000 N 
ATOM      9  C   UNL     1       1.835  17.503  20.497  0.00  0.00    +0.000 C 
ATOM     10  O   UNL     1       2.925  17.944  20.142  0.00  0.00    +0.000 OA
ATOM     11  C   UNL     1       1.748  16.718  21.831  0.00  0.00    +0.000 C 
ATOM     12  C   UNL     1       0.596  15.781  21.933  0.00  0.00    +0.000 C 
ATOM     13  C   UNL     1       0.579  14.436  22.084  0.00  0.00    +0.000 C 
ATOM     14  C   UNL     1      -0.630  13.534  21.701  0.00  0.00    +0.000 C 
ATOM     15  C   UNL     1      -1.002  12.475  22.740  0.00  0.00    +0.000 C 
ATOM     16  C   UNL     1      -1.828  14.374  21.221  0.00  0.00    +0.000 C 
ATOM     17  C   UNL     1      -2.813  13.840  20.141  0.00  0.00    +0.000 C 
ATOM     18  O   UNL     1      -3.268  12.524  20.306  0.00  0.00    +0.000 OA
ATOM     19  C   UNL     1      -4.570  12.505  20.678  0.00  0.00    +0.000 C 
ATOM     20  O   UNL     1      -4.831  12.231  21.840  0.00  0.00    +0.000 OA
ATOM     21  C   UNL     1      -5.575  12.586  19.478  0.00  0.00    +0.000 C 
ATOM     22  C   UNL     1      -6.412  13.817  19.099  0.00  0.00    +0.000 C 
ATOM     23  N   UNL     1      -6.415  11.405  19.584  0.00  0.00    +0.000 N 
ATOM     24  C   UNL     1      -7.235  11.005  20.597  0.00  0.00    +0.000 C 
ATOM     25  O   UNL     1      -7.662   9.847  20.500  0.00  0.00    +0.000 OA
ATOM     26  C   UNL     1      -7.600  11.864  21.851  0.00  0.00    +0.000 C 
ATOM     27  C   UNL     1      -7.517  13.385  21.787  0.00  0.00    +0.000 C 
ATOM     28  C   UNL     1      -6.744  14.248  22.491  0.00  0.00    +0.000 C 
ATOM     29  C   UNL     1      -6.647  15.791  22.226  0.00  0.00    +0.000 C 
ATOM     30  C   UNL     1      -7.389  16.352  23.473  0.00  0.00    +0.000 C 
ATOM     31  H   UNL     1       1.186  18.352  18.909  0.00  0.00    +0.000 HD
ATOM     32  H   UNL     1      -6.266  10.678  18.895  0.00  0.00    +0.000 HD
ENDROOT
BRANCH   1  34
ATOM     33  C   UNL     1      -4.780  18.631  22.744  0.00  0.00    +0.000 C 
ATOM     34  O   UNL     1      -4.774  17.243  23.068  0.00  0.00    +0.000 OA
ENDBRANCH   1  34
BRANCH  16  35
ATOM     35  O   UNL     1      -2.405  15.269  22.165  0.00  0.00    +0.000 OA
ATOM     36  C   UNL     1      -2.677  14.829  23.476  0.00  0.00    +0.000 C 
ENDBRANCH  16  35
TORSDOF 2
ENDMDL
MODEL 5
REMARK VINA RESULT:      -5.5      2.484      4.499
REMARK  Name = 
REMARK  8 active torsions:
REMARK  status: ('A' for Active; 'I' for Inactive)
REMARK    1  A    between atoms: C_1  and  O_2
REMARK    2  A    between atoms: O_2  and  C_3
REMARK    3  A    between atoms: C_8  and  C_9
REMARK    4  A    between atoms: C_16  and  C_17
REMARK    5  A    between atoms: C_18  and  O_19
REMARK    6  A    between atoms: O_19  and  C_20
REMARK    7  A    between atoms: C_25  and  C_26
REMARK    8  A    between atoms: C_33  and  C_34
REMARK                            x       y       z     vdW  Elec       q    Type
REMARK                         _______ _______ _______ _____ _____    ______ ____
ROOT
ATOM      1  C   UNL     1      -0.716  12.643  19.711  0.00  0.00    +0.000 C 
ATOM      2  C   UNL     1      -2.215  13.095  19.149  0.00  0.00    +0.000 C 
ATOM      3  O   UNL     1      -3.344  13.649  20.103  0.00  0.00    +0.000 OA
ATOM      4  C   UNL     1      -4.402  12.917  20.642  0.00  0.00    +0.000 C 
ATOM      5  O   UNL     1      -4.487  11.701  20.450  0.00  0.00    +0.000 OA
ATOM      6  C   UNL     1      -5.674  13.749  21.375  0.00  0.00    +0.000 C 
ATOM      7  C   UNL     1      -5.607  15.174  21.962  0.00  0.00    +0.000 C 
ATOM      8  N   UNL     1      -6.671  12.989  22.249  0.00  0.00    +0.000 N 
ATOM      9  C   UNL     1      -6.770  12.684  23.581  0.00  0.00    +0.000 C 
ATOM     10  O   UNL     1      -7.916  12.577  24.007  0.00  0.00    +0.000 OA
ATOM     11  C   UNL     1      -5.588  12.381  24.538  0.00  0.00    +0.000 C 
ATOM     12  C   UNL     1      -4.300  13.027  24.168  0.00  0.00    +0.000 C 
ATOM     13  C   UNL     1      -3.552  13.928  24.846  0.00  0.00    +0.000 C 
ATOM     14  C   UNL     1      -2.511  14.872  24.177  0.00  0.00    +0.000 C 
ATOM     15  C   UNL     1      -1.168  14.974  24.904  0.00  0.00    +0.000 C 
ATOM     16  C   UNL     1      -2.376  14.584  22.671  0.00  0.00    +0.000 C 
ATOM     17  C   UNL     1      -2.053  15.715  21.653  0.00  0.00    +0.000 C 
ATOM     18  O   UNL     1      -1.016  16.593  22.002  0.00  0.00    +0.000 OA
ATOM     19  C   UNL     1       0.079  16.376  21.235  0.00  0.00    +0.000 C 
ATOM     20  O   UNL     1       1.034  15.809  21.744  0.00  0.00    +0.000 OA
ATOM     21  C   UNL     1       0.051  17.131  19.860  0.00  0.00    +0.000 C 
ATOM     22  C   UNL     1      -0.192  16.477  18.492  0.00  0.00    +0.000 C 
ATOM     23  N   UNL     1       1.250  17.951  19.834  0.00  0.00    +0.000 N 
ATOM     24  C   UNL     1       2.560  17.585  19.916  0.00  0.00    +0.000 C 
ATOM     25  O   UNL     1       3.356  18.519  20.082  0.00  0.00    +0.000 OA
ATOM     26  C   UNL     1       3.087  16.115  19.875  0.00  0.00    +0.000 C 
ATOM     27  C   UNL     1       2.258  15.023  19.209  0.00  0.00    +0.000 C 
ATOM     28  C   UNL     1       1.709  13.899  19.732  0.00  0.00    +0.000 C 
ATOM     29  C   UNL     1       0.748  12.925  18.966  0.00  0.00    +0.000 C 
ATOM     30  C   UNL     1       1.670  11.685  18.781  0.00  0.00    +0.000 C 
ATOM     31  H   UNL     1      -7.626  13.119  21.926  0.00  0.00    +0.000 HD
ATOM     32  H   UNL     1       1.119  18.950  19.936  0.00  0.00    +0.000 HD
ENDROOT
BRANCH   1  34
ATOM     33  C   UNL     1      -1.446  10.404  19.193  0.00  0.00    +0.000 C 
ATOM     34  O   UNL     1      -0.752  11.255  20.101  0.00  0.00    +0.000 OA
ENDBRANCH   1  34
BRANCH  16  35
ATOM     35  O   UNL     1      -1.896  13.295  22.304  0.00  0.00    +0.000 OA
ATOM     36  C   UNL     1      -0.816  12.721  23.005  0.00  0.00    +0.000 C 
ENDBRANCH  16  35
TORSDOF 2
ENDMDL
MODEL 6
REMARK VINA RESULT:      -5.4      2.637      4.933
REMARK  Name = 
REMARK  8 active torsions:
REMARK  status: ('A' for Active; 'I' for Inactive)
REMARK    1  A    between atoms: C_1  and  O_2
REMARK    2  A    between atoms: O_2  and  C_3
REMARK    3  A    between atoms: C_8  and  C_9
REMARK    4  A    between atoms: C_16  and  C_17
REMARK    5  A    between atoms: C_18  and  O_19
REMARK    6  A    between atoms: O_19  and  C_20
REMARK    7  A    between atoms: C_25  and  C_26
REMARK    8  A    between atoms: C_33  and  C_34
REMARK                            x       y       z     vdW  Elec       q    Type
REMARK                         _______ _______ _______ _____ _____    ______ ____
ROOT
ATOM      1  C   UNL     1      -0.450  16.671  24.119  0.00  0.00    +0.000 C 
ATOM      2  C   UNL     1      -0.737  15.051  24.369  0.00  0.00    +0.000 C 
ATOM      3  O   UNL     1      -2.005  14.316  23.783  0.00  0.00    +0.000 OA
ATOM      4  C   UNL     1      -3.190  14.044  24.465  0.00  0.00    +0.000 C 
ATOM      5  O   UNL     1      -3.358  14.447  25.619  0.00  0.00    +0.000 OA
ATOM      6  C   UNL     1      -4.299  12.978  23.771  0.00  0.00    +0.000 C 
ATOM      7  C   UNL     1      -4.410  12.633  22.271  0.00  0.00    +0.000 C 
ATOM      8  N   UNL     1      -5.725  12.907  24.317  0.00  0.00    +0.000 N 
ATOM      9  C   UNL     1      -6.912  13.530  24.034  0.00  0.00    +0.000 C 
ATOM     10  O   UNL     1      -7.917  12.858  24.250  0.00  0.00    +0.000 OA
ATOM     11  C   UNL     1      -7.084  15.000  23.571  0.00  0.00    +0.000 C 
ATOM     12  C   UNL     1      -5.924  15.563  22.829  0.00  0.00    +0.000 C 
ATOM     13  C   UNL     1      -5.845  16.029  21.560  0.00  0.00    +0.000 C 
ATOM     14  C   UNL     1      -4.517  16.137  20.755  0.00  0.00    +0.000 C 
ATOM     15  C   UNL     1      -4.325  17.452  19.998  0.00  0.00    +0.000 C 
ATOM     16  C   UNL     1      -3.304  15.738  21.615  0.00  0.00    +0.000 C 
ATOM     17  C   UNL     1      -2.057  15.050  20.990  0.00  0.00    +0.000 C 
ATOM     18  O   UNL     1      -1.559  15.614  19.807  0.00  0.00    +0.000 OA
ATOM     19  C   UNL     1      -0.383  16.249  20.031  0.00  0.00    +0.000 C 
ATOM     20  O   UNL     1      -0.384  17.470  20.047  0.00  0.00    +0.000 OA
ATOM     21  C   UNL     1       0.868  15.305  19.977  0.00  0.00    +0.000 C 
ATOM     22  C   UNL     1       1.678  14.832  21.193  0.00  0.00    +0.000 C 
ATOM     23  N   UNL     1       1.743  15.864  18.961  0.00  0.00    +0.000 N 
ATOM     24  C   UNL     1       2.327  17.094  18.893  0.00  0.00    +0.000 C 
ATOM     25  O   UNL     1       2.848  17.366  17.803  0.00  0.00    +0.000 OA
ATOM     26  C   UNL     1       2.324  18.156  20.039  0.00  0.00    +0.000 C 
ATOM     27  C   UNL     1       2.147  17.718  21.488  0.00  0.00    +0.000 C 
ATOM     28  C   UNL     1       1.170  18.015  22.379  0.00  0.00    +0.000 C 
ATOM     29  C   UNL     1       1.026  17.379  23.805  0.00  0.00    +0.000 C 
ATOM     30  C   UNL     1       1.410  18.585  24.708  0.00  0.00    +0.000 C 
ATOM     31  H   UNL     1      -5.971  11.963  24.598  0.00  0.00    +0.000 HD
ATOM     32  H   UNL     1       1.813  15.352  18.090  0.00  0.00    +0.000 HD
ENDROOT
BRANCH   1  34
ATOM     33  C   UNL     1      -1.139  16.786  26.427  0.00  0.00    +0.000 C 
ATOM     34  O   UNL     1      -1.093  17.435  25.158  0.00  0.00    +0.000 OA
ENDBRANCH   1  34
BRANCH  16  35
ATOM     35  O   UNL     1      -3.032  16.543  22.756  0.00  0.00    +0.000 OA
ATOM     36  C   UNL     1      -3.034  17.948  22.643  0.00  0.00    +0.000 C 
ENDBRANCH  16  35
TORSDOF 2
ENDMDL
MODEL 7
REMARK VINA RESULT:      -5.3      1.860      7.648
REMARK  Name = 
REMARK  8 active torsions:
REMARK  status: ('A' for Active; 'I' for Inactive)
REMARK    1  A    between atoms: C_1  and  O_2
REMARK    2  A    between atoms: O_2  and  C_3
REMARK    3  A    between atoms: C_8  and  C_9
REMARK    4  A    between atoms: C_16  and  C_17
REMARK    5  A    between atoms: C_18  and  O_19
REMARK    6  A    between atoms: O_19  and  C_20
REMARK    7  A    between atoms: C_25  and  C_26
REMARK    8  A    between atoms: C_33  and  C_34
REMARK                            x       y       z     vdW  Elec       q    Type
REMARK                         _______ _______ _______ _____ _____    ______ ____
ROOT
ATOM      1  C   UNL     1      -1.749  13.419  21.357  0.00  0.00    +0.000 C 
ATOM      2  C   UNL     1      -0.258  12.974  21.945  0.00  0.00    +0.000 C 
ATOM      3  O   UNL     1       1.056  13.785  21.620  0.00  0.00    +0.000 OA
ATOM      4  C   UNL     1       1.992  13.479  20.633  0.00  0.00    +0.000 C 
ATOM      5  O   UNL     1       1.804  12.535  19.859  0.00  0.00    +0.000 OA
ATOM      6  C   UNL     1       3.480  14.277  20.649  0.00  0.00    +0.000 C 
ATOM      7  C   UNL     1       3.770  15.640  21.310  0.00  0.00    +0.000 C 
ATOM      8  N   UNL     1       4.387  14.211  19.421  0.00  0.00    +0.000 N 
ATOM      9  C   UNL     1       4.562  14.970  18.293  0.00  0.00    +0.000 C 
ATOM     10  O   UNL     1       5.701  14.964  17.835  0.00  0.00    +0.000 OA
ATOM     11  C   UNL     1       3.453  15.732  17.524  0.00  0.00    +0.000 C 
ATOM     12  C   UNL     1       2.293  16.156  18.353  0.00  0.00    +0.000 C 
ATOM     13  C   UNL     1       1.823  17.397  18.623  0.00  0.00    +0.000 C 
ATOM     14  C   UNL     1       0.933  17.741  19.853  0.00  0.00    +0.000 C 
ATOM     15  C   UNL     1      -0.274  18.631  19.549  0.00  0.00    +0.000 C 
ATOM     16  C   UNL     1       0.582  16.480  20.663  0.00  0.00    +0.000 C 
ATOM     17  C   UNL     1       0.391  16.533  22.206  0.00  0.00    +0.000 C 
ATOM     18  O   UNL     1      -0.400  17.580  22.703  0.00  0.00    +0.000 OA
ATOM     19  C   UNL     1      -1.592  17.116  23.148  0.00  0.00    +0.000 C 
ATOM     20  O   UNL     1      -2.582  17.331  22.467  0.00  0.00    +0.000 OA
ATOM     21  C   UNL     1      -1.556  16.588  24.624  0.00  0.00    +0.000 C 
ATOM     22  C   UNL     1      -1.601  15.112  25.043  0.00  0.00    +0.000 C 
ATOM     23  N   UNL     1      -2.556  17.358  25.344  0.00  0.00    +0.000 N 
ATOM     24  C   UNL     1      -3.898  17.466  25.127  0.00  0.00    +0.000 C 
ATOM     25  O   UNL     1      -4.462  18.363  25.768  0.00  0.00    +0.000 OA
ATOM     26  C   UNL     1      -4.717  16.603  24.115  0.00  0.00    +0.000 C 
ATOM     27  C   UNL     1      -4.207  15.230  23.691  0.00  0.00    +0.000 C 
ATOM     28  C   UNL     1      -3.847  14.771  22.467  0.00  0.00    +0.000 C 
ATOM     29  C   UNL     1      -3.195  13.373  22.185  0.00  0.00    +0.000 C 
ATOM     30  C   UNL     1      -4.366  12.638  21.473  0.00  0.00    +0.000 C 
ATOM     31  H   UNL     1       5.307  13.851  19.655  0.00  0.00    +0.000 HD
ATOM     32  H   UNL     1      -2.212  18.048  26.001  0.00  0.00    +0.000 HD
ENDROOT
BRANCH   1  34
ATOM     33  C   UNL     1      -1.286  11.558  19.896  0.00  0.00    +0.000 C 
ATOM     34  O   UNL     1      -1.958  12.803  20.071  0.00  0.00    +0.000 OA
ENDBRANCH   1  34
BRANCH  16  35
ATOM     35  O   UNL     1      -0.190  15.485  20.000  0.00  0.00    +0.000 OA
ATOM     36  C   UNL     1      -1.389  15.841  19.351  0.00  0.00    +0.000 C 
ENDBRANCH  16  35
TORSDOF 2
ENDMDL
MODEL 8
REMARK VINA RESULT:      -5.3      1.597      7.700
REMARK  Name = 
REMARK  8 active torsions:
REMARK  status: ('A' for Active; 'I' for Inactive)
REMARK    1  A    between atoms: C_1  and  O_2
REMARK    2  A    between atoms: O_2  and  C_3
REMARK    3  A    between atoms: C_8  and  C_9
REMARK    4  A    between atoms: C_16  and  C_17
REMARK    5  A    between atoms: C_18  and  O_19
REMARK    6  A    between atoms: O_19  and  C_20
REMARK    7  A    between atoms: C_25  and  C_26
REMARK    8  A    between atoms: C_33  and  C_34
REMARK                            x       y       z     vdW  Elec       q    Type
REMARK                         _______ _______ _______ _____ _____    ______ ____
ROOT
ATOM      1  C   UNL     1      -1.396  13.041  20.182  0.00  0.00    +0.000 C 
ATOM      2  C   UNL     1      -0.106  12.549  21.110  0.00  0.00    +0.000 C 
ATOM      3  O   UNL     1       1.109  13.500  21.442  0.00  0.00    +0.000 OA
ATOM      4  C   UNL     1       2.336  13.533  20.780  0.00  0.00    +0.000 C 
ATOM      5  O   UNL     1       2.535  12.824  19.789  0.00  0.00    +0.000 OA
ATOM      6  C   UNL     1       3.612  14.390  21.478  0.00  0.00    +0.000 C 
ATOM      7  C   UNL     1       3.482  15.539  22.499  0.00  0.00    +0.000 C 
ATOM      8  N   UNL     1       4.850  14.717  20.643  0.00  0.00    +0.000 N 
ATOM      9  C   UNL     1       5.246  15.762  19.851  0.00  0.00    +0.000 C 
ATOM     10  O   UNL     1       6.458  15.954  19.809  0.00  0.00    +0.000 OA
ATOM     11  C   UNL     1       4.324  16.632  18.958  0.00  0.00    +0.000 C 
ATOM     12  C   UNL     1       2.917  16.742  19.429  0.00  0.00    +0.000 C 
ATOM     13  C   UNL     1       2.208  17.830  19.811  0.00  0.00    +0.000 C 
ATOM     14  C   UNL     1       0.946  17.771  20.719  0.00  0.00    +0.000 C 
ATOM     15  C   UNL     1      -0.230  18.631  20.249  0.00  0.00    +0.000 C 
ATOM     16  C   UNL     1       0.555  16.318  21.044  0.00  0.00    +0.000 C 
ATOM     17  C   UNL     1      -0.103  15.939  22.402  0.00  0.00    +0.000 C 
ATOM     18  O   UNL     1      -1.154  16.759  22.839  0.00  0.00    +0.000 OA
ATOM     19  C   UNL     1      -2.342  16.117  22.740  0.00  0.00    +0.000 C 
ATOM     20  O   UNL     1      -3.098  16.445  21.838  0.00  0.00    +0.000 OA
ATOM     21  C   UNL     1      -2.680  15.213  23.975  0.00  0.00    +0.000 C 
ATOM     22  C   UNL     1      -2.630  13.678  23.995  0.00  0.00    +0.000 C 
ATOM     23  N   UNL     1      -3.955  15.693  24.481  0.00  0.00    +0.000 N 
ATOM     24  C   UNL     1      -5.166  15.771  23.861  0.00  0.00    +0.000 C 
ATOM     25  O   UNL     1      -6.025  16.422  24.470  0.00  0.00    +0.000 OA
ATOM     26  C   UNL     1      -5.501  15.163  22.461  0.00  0.00    +0.000 C 
ATOM     27  C   UNL     1      -4.688  13.993  21.921  0.00  0.00    +0.000 C 
ATOM     28  C   UNL     1      -3.908  13.906  20.814  0.00  0.00    +0.000 C 
ATOM     29  C   UNL     1      -3.001  12.681  20.445  0.00  0.00    +0.000 C 
ATOM     30  C   UNL     1      -3.777  12.093  19.232  0.00  0.00    +0.000 C 
ATOM     31  H   UNL     1       5.698  14.366  21.079  0.00  0.00    +0.000 HD
ATOM     32  H   UNL     1      -3.933  16.200  25.357  0.00  0.00    +0.000 HD
ENDROOT
BRANCH   1  34
ATOM     33  C   UNL     1      -0.354  11.599  18.554  0.00  0.00    +0.000 C 
ATOM     34  O   UNL     1      -1.109  12.785  18.793  0.00  0.00    +0.000 OA
ENDBRANCH   1  34
BRANCH  16  35
ATOM     35  O   UNL     1       0.179  15.493  19.948  0.00  0.00    +0.000 OA
ATOM     36  C   UNL     1      -0.612  16.021  18.908  0.00  0.00    +0.000 C 
ENDBRANCH  16  35
TORSDOF 2
ENDMDL
MODEL 9
REMARK VINA RESULT:      -5.2      5.988      8.177
REMARK  Name = 
REMARK  8 active torsions:
REMARK  status: ('A' for Active; 'I' for Inactive)
REMARK    1  A    between atoms: C_1  and  O_2
REMARK    2  A    between atoms: O_2  and  C_3
REMARK    3  A    between atoms: C_8  and  C_9
REMARK    4  A    between atoms: C_16  and  C_17
REMARK    5  A    between atoms: C_18  and  O_19
REMARK    6  A    between atoms: O_19  and  C_20
REMARK    7  A    between atoms: C_25  and  C_26
REMARK    8  A    between atoms: C_33  and  C_34
REMARK                            x       y       z     vdW  Elec       q    Type
REMARK                         _______ _______ _______ _____ _____    ______ ____
ROOT
ATOM      1  C   UNL     1       6.355  15.674  20.254  0.00  0.00    +0.000 C 
ATOM      2  C   UNL     1       6.934  17.037  21.012  0.00  0.00    +0.000 C 
ATOM      3  O   UNL     1       7.443  17.021  22.506  0.00  0.00    +0.000 OA
ATOM      4  C   UNL     1       6.713  17.404  23.631  0.00  0.00    +0.000 C 
ATOM      5  O   UNL     1       5.528  17.733  23.529  0.00  0.00    +0.000 OA
ATOM      6  C   UNL     1       7.529  17.616  25.094  0.00  0.00    +0.000 C 
ATOM      7  C   UNL     1       8.883  16.984  25.478  0.00  0.00    +0.000 C 
ATOM      8  N   UNL     1       6.734  17.714  26.395  0.00  0.00    +0.000 N 
ATOM      9  C   UNL     1       6.302  16.826  27.346  0.00  0.00    +0.000 C 
ATOM     10  O   UNL     1       6.208  17.284  28.481  0.00  0.00    +0.000 OA
ATOM     11  C   UNL     1       5.846  15.366  27.091  0.00  0.00    +0.000 C 
ATOM     12  C   UNL     1       6.462  14.715  25.904  0.00  0.00    +0.000 C 
ATOM     13  C   UNL     1       7.254  13.619  25.824  0.00  0.00    +0.000 C 
ATOM     14  C   UNL     1       8.208  13.322  24.632  0.00  0.00    +0.000 C 
ATOM     15  C   UNL     1       8.171  11.882  24.117  0.00  0.00    +0.000 C 
ATOM     16  C   UNL     1       8.067  14.378  23.521  0.00  0.00    +0.000 C 
ATOM     17  C   UNL     1       9.277  14.795  22.637  0.00  0.00    +0.000 C 
ATOM     18  O   UNL     1      10.064  13.753  22.123  0.00  0.00    +0.000 OA
ATOM     19  C   UNL     1       9.873  13.617  20.789  0.00  0.00    +0.000 C 
ATOM     20  O   UNL     1       9.212  12.667  20.398  0.00  0.00    +0.000 OA
ATOM     21  C   UNL     1      10.762  14.571  19.919  0.00  0.00    +0.000 C 
ATOM     22  C   UNL     1      10.263  15.815  19.170  0.00  0.00    +0.000 C 
ATOM     23  N   UNL     1      11.522  13.706  19.032  0.00  0.00    +0.000 N 
ATOM     24  C   UNL     1      11.086  12.815  18.098  0.00  0.00    +0.000 C 
ATOM     25  O   UNL     1      11.958  12.063  17.644  0.00  0.00    +0.000 OA
ATOM     26  C   UNL     1       9.603  12.654  17.632  0.00  0.00    +0.000 C 
ATOM     27  C   UNL     1       8.626  13.815  17.774  0.00  0.00    +0.000 C 
ATOM     28  C   UNL     1       7.483  13.913  18.498  0.00  0.00    +0.000 C 
ATOM     29  C   UNL     1       6.639  15.222  18.675  0.00  0.00    +0.000 C 
ATOM     30  C   UNL     1       5.381  14.881  17.825  0.00  0.00    +0.000 C 
ATOM     31  H   UNL     1       6.942  18.573  26.897  0.00  0.00    +0.000 HD
ATOM     32  H   UNL     1      12.511  13.611  19.229  0.00  0.00    +0.000 HD
ENDROOT
BRANCH   1  34
ATOM     33  C   UNL     1       4.247  16.803  20.564  0.00  0.00    +0.000 C 
ATOM     34  O   UNL     1       4.939  15.559  20.497  0.00  0.00    +0.000 OA
ENDBRANCH   1  34
BRANCH  16  35
ATOM     35  O   UNL     1       6.800  14.469  22.879  0.00  0.00    +0.000 OA
ATOM     36  C   UNL     1       6.019  13.310  22.695  0.00  0.00    +0.000 C 
ENDBRANCH  16  35
TORSDOF 2
ENDMDL
