MODEL 1
REMARK VINA RESULT:      -8.0      0.000      0.000
REMARK  Name = 
REMARK  6 active torsions:
REMARK  status: ('A' for Active; 'I' for Inactive)
REMARK    1  A    between atoms: C_1  and  C_2
REMARK    2  A    between atoms: C_2  and  C_3
REMARK    3  A    between atoms: C_3  and  C_4
REMARK    4  A    between atoms: C_4  and  C_5
REMARK    5  A    between atoms: C_5  and  N_6
REMARK    6  A    between atoms: C_14  and  C_15
REMARK                            x       y       z     vdW  Elec       q    Type
REMARK                         _______ _______ _______ _____ _____    ______ ____
ROOT
ATOM      1  N   UNL     1       4.624   4.264  16.954  0.00  0.00    +0.000 N 
ATOM      2  C   UNL     1       4.297   3.191  17.740  0.00  0.00    +0.000 A 
ATOM      3  C   UNL     1       3.494   3.645  18.761  0.00  0.00    +0.000 A 
ATOM      4  C   UNL     1       3.309   5.050  18.590  0.00  0.00    +0.000 A 
ATOM      5  C   UNL     1       2.610   6.062  19.288  0.00  0.00    +0.000 A 
ATOM      6  C   UNL     1       1.823   5.764  20.516  0.00  0.00    +0.000 A 
ATOM      7  O   UNL     1       1.738   4.641  21.001  0.00  0.00    +0.000 OA
ATOM      8  C   UNL     1       1.115   6.891  21.174  0.00  0.00    +0.000 A 
ATOM      9  C   UNL     1       1.212   8.114  20.640  0.00  0.00    +0.000 A 
ATOM     10  N   UNL     1       1.931   8.390  19.506  0.00  0.00    +0.000 N 
ATOM     11  C   UNL     1       2.646   7.396  18.828  0.00  0.00    +0.000 A 
ATOM     12  C   UNL     1       3.354   7.712  17.672  0.00  0.00    +0.000 A 
ATOM     13  C   UNL     1       4.041   6.730  16.957  0.00  0.00    +0.000 A 
ATOM     14  C   UNL     1       4.019   5.409  17.434  0.00  0.00    +0.000 A 
ATOM     15  H   UNL     1       2.024   9.359  19.221  0.00  0.00    +0.000 HD
ENDROOT
BRANCH   9  16
ATOM     16  C   UNL     1       0.525   9.248  21.268  0.00  0.00    +0.000 A 
ATOM     17  C   UNL     1      -0.154   9.076  22.480  0.00  0.00    +0.000 A 
ATOM     18  C   UNL     1      -0.763  10.166  23.103  0.00  0.00    +0.000 A 
ATOM     19  C   UNL     1      -0.699  11.431  22.517  0.00  0.00    +0.000 A 
ATOM     20  C   UNL     1      -0.033  11.606  21.304  0.00  0.00    +0.000 A 
ATOM     21  C   UNL     1       0.580  10.518  20.682  0.00  0.00    +0.000 A 
ENDBRANCH   9  16
BRANCH   1  22
ATOM     22  C   UNL     1       5.491   4.187  15.788  0.00  0.00    +0.000 C 
BRANCH  22  23
ATOM     23  C   UNL     1       6.835   4.905  15.950  0.00  0.00    +0.000 C 
BRANCH  23  24
ATOM     24  C   UNL     1       7.485   4.647  17.310  0.00  0.00    +0.000 C 
BRANCH  24  26
ATOM     25  C   UNL     1       7.441   5.657  19.608  0.00  0.00    +0.000 C 
ATOM     26  C   UNL     1       7.591   5.935  18.122  0.00  0.00    +0.000 C 
ENDBRANCH  24  26
ENDBRANCH  23  24
ENDBRANCH  22  23
ENDBRANCH   1  22
TORSDOF 5
ENDMDL
MODEL 2
REMARK VINA RESULT:      -7.6      1.296      2.577
REMARK  Name = 
REMARK  6 active torsions:
REMARK  status: ('A' for Active; 'I' for Inactive)
REMARK    1  A    between atoms: C_1  and  C_2
REMARK    2  A    between atoms: C_2  and  C_3
REMARK    3  A    between atoms: C_3  and  C_4
REMARK    4  A    between atoms: C_4  and  C_5
REMARK    5  A    between atoms: C_5  and  N_6
REMARK    6  A    between atoms: C_14  and  C_15
REMARK                            x       y       z     vdW  Elec       q    Type
REMARK                         _______ _______ _______ _____ _____    ______ ____
ROOT
ATOM      1  N   UNL     1       4.877   4.050  17.029  0.00  0.00    +0.000 N 
ATOM      2  C   UNL     1       4.473   2.974  17.773  0.00  0.00    +0.000 A 
ATOM      3  C   UNL     1       3.604   3.430  18.737  0.00  0.00    +0.000 A 
ATOM      4  C   UNL     1       3.458   4.840  18.573  0.00  0.00    +0.000 A 
ATOM      5  C   UNL     1       2.727   5.856  19.232  0.00  0.00    +0.000 A 
ATOM      6  C   UNL     1       1.845   5.558  20.392  0.00  0.00    +0.000 A 
ATOM      7  O   UNL     1       1.703   4.431  20.853  0.00  0.00    +0.000 OA
ATOM      8  C   UNL     1       1.110   6.690  21.012  0.00  0.00    +0.000 A 
ATOM      9  C   UNL     1       1.270   7.917  20.504  0.00  0.00    +0.000 A 
ATOM     10  N   UNL     1       2.076   8.195  19.431  0.00  0.00    +0.000 N 
ATOM     11  C   UNL     1       2.823   7.196  18.795  0.00  0.00    +0.000 A 
ATOM     12  C   UNL     1       3.621   7.512  17.700  0.00  0.00    +0.000 A 
ATOM     13  C   UNL     1       4.342   6.526  17.024  0.00  0.00    +0.000 A 
ATOM     14  C   UNL     1       4.259   5.200  17.479  0.00  0.00    +0.000 A 
ATOM     15  H   UNL     1       2.208   9.165  19.168  0.00  0.00    +0.000 HD
ENDROOT
BRANCH   9  16
ATOM     16  C   UNL     1       0.558   9.057  21.095  0.00  0.00    +0.000 A 
ATOM     17  C   UNL     1       0.161  10.132  20.293  0.00  0.00    +0.000 A 
ATOM     18  C   UNL     1      -0.562  11.191  20.847  0.00  0.00    +0.000 A 
ATOM     19  C   UNL     1      -0.886  11.179  22.204  0.00  0.00    +0.000 A 
ATOM     20  C   UNL     1      -0.484  10.115  23.010  0.00  0.00    +0.000 A 
ATOM     21  C   UNL     1       0.235   9.054  22.457  0.00  0.00    +0.000 A 
ENDBRANCH   9  16
BRANCH   1  22
ATOM     22  C   UNL     1       5.829   3.971  15.930  0.00  0.00    +0.000 C 
BRANCH  22  23
ATOM     23  C   UNL     1       5.196   4.066  14.538  0.00  0.00    +0.000 C 
BRANCH  23  24
ATOM     24  C   UNL     1       6.234   4.201  13.423  0.00  0.00    +0.000 C 
BRANCH  24  26
ATOM     25  C   UNL     1       4.559   3.366  11.749  0.00  0.00    +0.000 C 
ATOM     26  C   UNL     1       5.966   3.204  12.299  0.00  0.00    +0.000 C 
ENDBRANCH  24  26
ENDBRANCH  23  24
ENDBRANCH  22  23
ENDBRANCH   1  22
TORSDOF 5
ENDMDL
MODEL 3
REMARK VINA RESULT:      -7.5      2.084      7.929
REMARK  Name = 
REMARK  6 active torsions:
REMARK  status: ('A' for Active; 'I' for Inactive)
REMARK    1  A    between atoms: C_1  and  C_2
REMARK    2  A    between atoms: C_2  and  C_3
REMARK    3  A    between atoms: C_3  and  C_4
REMARK    4  A    between atoms: C_4  and  C_5
REMARK    5  A    between atoms: C_5  and  N_6
REMARK    6  A    between atoms: C_14  and  C_15
REMARK                            x       y       z     vdW  Elec       q    Type
REMARK                         _______ _______ _______ _____ _____    ______ ____
ROOT
ATOM      1  N   UNL     1      -0.050  10.543  20.695  0.00  0.00    +0.000 N 
ATOM      2  C   UNL     1      -0.268   9.683  21.739  0.00  0.00    +0.000 A 
ATOM      3  C   UNL     1       0.418   8.520  21.478  0.00  0.00    +0.000 A 
ATOM      4  C   UNL     1       1.095   8.673  20.231  0.00  0.00    +0.000 A 
ATOM      5  C   UNL     1       1.938   7.858  19.441  0.00  0.00    +0.000 A 
ATOM      6  C   UNL     1       2.316   6.482  19.863  0.00  0.00    +0.000 A 
ATOM      7  O   UNL     1       1.919   5.969  20.904  0.00  0.00    +0.000 OA
ATOM      8  C   UNL     1       3.214   5.706  18.972  0.00  0.00    +0.000 A 
ATOM      9  C   UNL     1       3.643   6.272  17.837  0.00  0.00    +0.000 A 
ATOM     10  N   UNL     1       3.303   7.541  17.448  0.00  0.00    +0.000 N 
ATOM     11  C   UNL     1       2.446   8.341  18.215  0.00  0.00    +0.000 A 
ATOM     12  C   UNL     1       2.133   9.630  17.794  0.00  0.00    +0.000 A 
ATOM     13  C   UNL     1       1.314  10.459  18.562  0.00  0.00    +0.000 A 
ATOM     14  C   UNL     1       0.795   9.963  19.769  0.00  0.00    +0.000 A 
ATOM     15  H   UNL     1       3.600   7.859  16.532  0.00  0.00    +0.000 HD
ENDROOT
BRANCH   9  16
ATOM     16  C   UNL     1       4.531   5.530  16.935  0.00  0.00    +0.000 A 
ATOM     17  C   UNL     1       4.700   4.150  17.092  0.00  0.00    +0.000 A 
ATOM     18  C   UNL     1       5.503   3.436  16.200  0.00  0.00    +0.000 A 
ATOM     19  C   UNL     1       6.143   4.099  15.152  0.00  0.00    +0.000 A 
ATOM     20  C   UNL     1       5.986   5.476  14.998  0.00  0.00    +0.000 A 
ATOM     21  C   UNL     1       5.180   6.190  15.885  0.00  0.00    +0.000 A 
ENDBRANCH   9  16
BRANCH   1  22
ATOM     22  C   UNL     1      -0.641  11.869  20.593  0.00  0.00    +0.000 C 
BRANCH  22  23
ATOM     23  C   UNL     1      -2.028  11.897  19.944  0.00  0.00    +0.000 C 
BRANCH  23  24
ATOM     24  C   UNL     1      -1.971  11.819  18.418  0.00  0.00    +0.000 C 
BRANCH  24  26
ATOM     25  C   UNL     1      -2.655  10.437  16.437  0.00  0.00    +0.000 C 
ATOM     26  C   UNL     1      -2.346  10.424  17.924  0.00  0.00    +0.000 C 
ENDBRANCH  24  26
ENDBRANCH  23  24
ENDBRANCH  22  23
ENDBRANCH   1  22
TORSDOF 5
ENDMDL
MODEL 4
REMARK VINA RESULT:      -7.5      1.555      2.628
REMARK  Name = 
REMARK  6 active torsions:
REMARK  status: ('A' for Active; 'I' for Inactive)
REMARK    1  A    between atoms: C_1  and  C_2
REMARK    2  A    between atoms: C_2  and  C_3
REMARK    3  A    between atoms: C_3  and  C_4
REMARK    4  A    between atoms: C_4  and  C_5
REMARK    5  A    between atoms: C_5  and  N_6
REMARK    6  A    between atoms: C_14  and  C_15
REMARK                            x       y       z     vdW  Elec       q    Type
REMARK                         _______ _______ _______ _____ _____    ______ ____
ROOT
ATOM      1  N   UNL     1       5.168   4.721  16.417  0.00  0.00    +0.000 N 
ATOM      2  C   UNL     1       4.957   3.561  17.114  0.00  0.00    +0.000 A 
ATOM      3  C   UNL     1       4.115   3.847  18.163  0.00  0.00    +0.000 A 
ATOM      4  C   UNL     1       3.784   5.233  18.103  0.00  0.00    +0.000 A 
ATOM      5  C   UNL     1       2.985   6.109  18.875  0.00  0.00    +0.000 A 
ATOM      6  C   UNL     1       2.237   5.635  20.071  0.00  0.00    +0.000 A 
ATOM      7  O   UNL     1       2.271   4.474  20.466  0.00  0.00    +0.000 OA
ATOM      8  C   UNL     1       1.418   6.626  20.813  0.00  0.00    +0.000 A 
ATOM      9  C   UNL     1       1.385   7.891  20.377  0.00  0.00    +0.000 A 
ATOM     10  N   UNL     1       2.067   8.329  19.272  0.00  0.00    +0.000 N 
ATOM     11  C   UNL     1       2.881   7.472  18.522  0.00  0.00    +0.000 A 
ATOM     12  C   UNL     1       3.548   7.950  17.398  0.00  0.00    +0.000 A 
ATOM     13  C   UNL     1       4.332   7.104  16.611  0.00  0.00    +0.000 A 
ATOM     14  C   UNL     1       4.448   5.755  16.983  0.00  0.00    +0.000 A 
ATOM     15  H   UNL     1       2.058   9.322  19.064  0.00  0.00    +0.000 HD
ENDROOT
BRANCH   9  16
ATOM     16  C   UNL     1       0.585   8.894  21.089  0.00  0.00    +0.000 A 
ATOM     17  C   UNL     1       0.443   8.823  22.480  0.00  0.00    +0.000 A 
ATOM     18  C   UNL     1      -0.275   9.807  23.162  0.00  0.00    +0.000 A 
ATOM     19  C   UNL     1      -0.855  10.863  22.457  0.00  0.00    +0.000 A 
ATOM     20  C   UNL     1      -0.726  10.933  21.071  0.00  0.00    +0.000 A 
ATOM     21  C   UNL     1      -0.005   9.952  20.388  0.00  0.00    +0.000 A 
ENDBRANCH   9  16
BRANCH   1  22
ATOM     22  C   UNL     1       6.036   4.826  15.253  0.00  0.00    +0.000 C 
BRANCH  22  23
ATOM     23  C   UNL     1       6.019   3.597  14.338  0.00  0.00    +0.000 C 
BRANCH  23  24
ATOM     24  C   UNL     1       6.168   3.956  12.860  0.00  0.00    +0.000 C 
BRANCH  24  26
ATOM     25  C   UNL     1       4.319   3.246  11.316  0.00  0.00    +0.000 C 
ATOM     26  C   UNL     1       5.631   2.840  11.966  0.00  0.00    +0.000 C 
ENDBRANCH  24  26
ENDBRANCH  23  24
ENDBRANCH  22  23
ENDBRANCH   1  22
TORSDOF 5
ENDMDL
MODEL 5
REMARK VINA RESULT:      -7.4      2.075      3.710
REMARK  Name = 
REMARK  6 active torsions:
REMARK  status: ('A' for Active; 'I' for Inactive)
REMARK    1  A    between atoms: C_1  and  C_2
REMARK    2  A    between atoms: C_2  and  C_3
REMARK    3  A    between atoms: C_3  and  C_4
REMARK    4  A    between atoms: C_4  and  C_5
REMARK    5  A    between atoms: C_5  and  N_6
REMARK    6  A    between atoms: C_14  and  C_15
REMARK                            x       y       z     vdW  Elec       q    Type
REMARK                         _______ _______ _______ _____ _____    ______ ____
ROOT
ATOM      1  N   UNL     1       4.092   5.155  18.141  0.00  0.00    +0.000 N 
ATOM      2  C   UNL     1       4.395   5.894  17.028  0.00  0.00    +0.000 A 
ATOM      3  C   UNL     1       3.722   7.090  17.119  0.00  0.00    +0.000 A 
ATOM      4  C   UNL     1       2.985   7.093  18.341  0.00  0.00    +0.000 A 
ATOM      5  C   UNL     1       2.121   8.007  18.989  0.00  0.00    +0.000 A 
ATOM      6  C   UNL     1       1.797   9.332  18.395  0.00  0.00    +0.000 A 
ATOM      7  O   UNL     1       2.242   9.710  17.317  0.00  0.00    +0.000 OA
ATOM      8  C   UNL     1       0.888  10.227  19.155  0.00  0.00    +0.000 A 
ATOM      9  C   UNL     1       0.406   9.809  20.331  0.00  0.00    +0.000 A 
ATOM     10  N   UNL     1       0.707   8.592  20.884  0.00  0.00    +0.000 N 
ATOM     11  C   UNL     1       1.540   7.674  20.232  0.00  0.00    +0.000 A 
ATOM     12  C   UNL     1       1.835   6.452  20.830  0.00  0.00    +0.000 A 
ATOM     13  C   UNL     1       2.694   5.539  20.218  0.00  0.00    +0.000 A 
ATOM     14  C   UNL     1       3.251   5.869  18.972  0.00  0.00    +0.000 A 
ATOM     15  H   UNL     1       0.228   8.319  21.736  0.00  0.00    +0.000 HD
ENDROOT
BRANCH   9  16
ATOM     16  C   UNL     1      -0.496  10.670  21.105  0.00  0.00    +0.000 A 
ATOM     17  C   UNL     1      -1.260  11.649  20.459  0.00  0.00    +0.000 A 
ATOM     18  C   UNL     1      -2.156  12.433  21.189  0.00  0.00    +0.000 A 
ATOM     19  C   UNL     1      -2.289  12.243  22.565  0.00  0.00    +0.000 A 
ATOM     20  C   UNL     1      -1.523  11.276  23.215  0.00  0.00    +0.000 A 
ATOM     21  C   UNL     1      -0.630  10.489  22.487  0.00  0.00    +0.000 A 
ENDBRANCH   9  16
BRANCH   1  22
ATOM     22  C   UNL     1       4.591   3.811  18.388  0.00  0.00    +0.000 C 
BRANCH  22  23
ATOM     23  C   UNL     1       3.802   2.703  17.683  0.00  0.00    +0.000 C 
BRANCH  23  24
ATOM     24  C   UNL     1       2.877   1.938  18.630  0.00  0.00    +0.000 C 
BRANCH  24  26
ATOM     25  C   UNL     1       0.812   2.859  19.721  0.00  0.00    +0.000 C 
ATOM     26  C   UNL     1       1.421   2.348  18.426  0.00  0.00    +0.000 C 
ENDBRANCH  24  26
ENDBRANCH  23  24
ENDBRANCH  22  23
ENDBRANCH   1  22
TORSDOF 5
ENDMDL
MODEL 6
REMARK VINA RESULT:      -7.4      2.077      3.593
REMARK  Name = 
REMARK  6 active torsions:
REMARK  status: ('A' for Active; 'I' for Inactive)
REMARK    1  A    between atoms: C_1  and  C_2
REMARK    2  A    between atoms: C_2  and  C_3
REMARK    3  A    between atoms: C_3  and  C_4
REMARK    4  A    between atoms: C_4  and  C_5
REMARK    5  A    between atoms: C_5  and  N_6
REMARK    6  A    between atoms: C_14  and  C_15
REMARK                            x       y       z     vdW  Elec       q    Type
REMARK                         _______ _______ _______ _____ _____    ______ ____
ROOT
ATOM      1  N   UNL     1       4.027   5.076  18.336  0.00  0.00    +0.000 N 
ATOM      2  C   UNL     1       4.382   5.793  17.225  0.00  0.00    +0.000 A 
ATOM      3  C   UNL     1       3.730   7.004  17.279  0.00  0.00    +0.000 A 
ATOM      4  C   UNL     1       2.954   7.037  18.475  0.00  0.00    +0.000 A 
ATOM      5  C   UNL     1       2.088   7.976  19.083  0.00  0.00    +0.000 A 
ATOM      6  C   UNL     1       1.810   9.300  18.463  0.00  0.00    +0.000 A 
ATOM      7  O   UNL     1       2.298   9.655  17.395  0.00  0.00    +0.000 OA
ATOM      8  C   UNL     1       0.895  10.223  19.181  0.00  0.00    +0.000 A 
ATOM      9  C   UNL     1       0.366   9.829  20.346  0.00  0.00    +0.000 A 
ATOM     10  N   UNL     1       0.624   8.614  20.923  0.00  0.00    +0.000 N 
ATOM     11  C   UNL     1       1.459   7.671  20.310  0.00  0.00    +0.000 A 
ATOM     12  C   UNL     1       1.709   6.452  20.933  0.00  0.00    +0.000 A 
ATOM     13  C   UNL     1       2.570   5.514  20.361  0.00  0.00    +0.000 A 
ATOM     14  C   UNL     1       3.174   5.816  19.130  0.00  0.00    +0.000 A 
ATOM     15  H   UNL     1       0.112   8.361  21.761  0.00  0.00    +0.000 HD
ENDROOT
BRANCH   9  16
ATOM     16  C   UNL     1      -0.544  10.718  21.078  0.00  0.00    +0.000 A 
ATOM     17  C   UNL     1      -0.677  10.599  22.466  0.00  0.00    +0.000 A 
ATOM     18  C   UNL     1      -1.503  11.480  23.169  0.00  0.00    +0.000 A 
ATOM     19  C   UNL     1      -2.199  12.478  22.486  0.00  0.00    +0.000 A 
ATOM     20  C   UNL     1      -2.078  12.594  21.103  0.00  0.00    +0.000 A 
ATOM     21  C   UNL     1      -1.250  11.718  20.399  0.00  0.00    +0.000 A 
ENDBRANCH   9  16
BRANCH   1  22
ATOM     22  C   UNL     1       4.491   3.725  18.616  0.00  0.00    +0.000 C 
BRANCH  22  23
ATOM     23  C   UNL     1       4.075   2.683  17.572  0.00  0.00    +0.000 C 
BRANCH  23  24
ATOM     24  C   UNL     1       2.568   2.425  17.560  0.00  0.00    +0.000 C 
BRANCH  24  26
ATOM     25  C   UNL     1       0.700   2.693  19.217  0.00  0.00    +0.000 C 
ATOM     26  C   UNL     1       2.060   2.068  18.954  0.00  0.00    +0.000 C 
ENDBRANCH  24  26
ENDBRANCH  23  24
ENDBRANCH  22  23
ENDBRANCH   1  22
TORSDOF 5
ENDMDL
MODEL 7
REMARK VINA RESULT:      -7.4      2.538      8.752
REMARK  Name = 
REMARK  6 active torsions:
REMARK  status: ('A' for Active; 'I' for Inactive)
REMARK    1  A    between atoms: C_1  and  C_2
REMARK    2  A    between atoms: C_2  and  C_3
REMARK    3  A    between atoms: C_3  and  C_4
REMARK    4  A    between atoms: C_4  and  C_5
REMARK    5  A    between atoms: C_5  and  N_6
REMARK    6  A    between atoms: C_14  and  C_15
REMARK                            x       y       z     vdW  Elec       q    Type
REMARK                         _______ _______ _______ _____ _____    ______ ____
ROOT
ATOM      1  N   UNL     1      -0.399  12.189  20.794  0.00  0.00    +0.000 N 
ATOM      2  C   UNL     1      -0.172  12.591  19.504  0.00  0.00    +0.000 A 
ATOM      3  C   UNL     1       0.494  11.577  18.857  0.00  0.00    +0.000 A 
ATOM      4  C   UNL     1       0.675  10.504  19.779  0.00  0.00    +0.000 A 
ATOM      5  C   UNL     1       1.270   9.222  19.722  0.00  0.00    +0.000 A 
ATOM      6  C   UNL     1       1.904   8.708  18.477  0.00  0.00    +0.000 A 
ATOM      7  O   UNL     1       1.960   9.357  17.438  0.00  0.00    +0.000 OA
ATOM      8  C   UNL     1       2.494   7.346  18.513  0.00  0.00    +0.000 A 
ATOM      9  C   UNL     1       2.429   6.645  19.651  0.00  0.00    +0.000 A 
ATOM     10  N   UNL     1       1.841   7.112  20.796  0.00  0.00    +0.000 N 
ATOM     11  C   UNL     1       1.276   8.391  20.864  0.00  0.00    +0.000 A 
ATOM     12  C   UNL     1       0.675   8.827  22.041  0.00  0.00    +0.000 A 
ATOM     13  C   UNL     1       0.069  10.081  22.120  0.00  0.00    +0.000 A 
ATOM     14  C   UNL     1       0.087  10.910  20.986  0.00  0.00    +0.000 A 
ATOM     15  H   UNL     1       1.915   6.550  21.638  0.00  0.00    +0.000 HD
ENDROOT
BRANCH   9  16
ATOM     16  C   UNL     1       3.005   5.296  19.717  0.00  0.00    +0.000 A 
ATOM     17  C   UNL     1       4.256   5.037  19.147  0.00  0.00    +0.000 A 
ATOM     18  C   UNL     1       4.826   3.766  19.256  0.00  0.00    +0.000 A 
ATOM     19  C   UNL     1       4.146   2.752  19.931  0.00  0.00    +0.000 A 
ATOM     20  C   UNL     1       2.894   3.002  20.491  0.00  0.00    +0.000 A 
ATOM     21  C   UNL     1       2.325   4.273  20.387  0.00  0.00    +0.000 A 
ENDBRANCH   9  16
BRANCH   1  22
ATOM     22  C   UNL     1      -1.054  13.010  21.801  0.00  0.00    +0.000 C 
BRANCH  22  23
ATOM     23  C   UNL     1      -2.533  12.678  22.023  0.00  0.00    +0.000 C 
BRANCH  23  24
ATOM     24  C   UNL     1      -2.809  12.089  23.407  0.00  0.00    +0.000 C 
BRANCH  24  26
ATOM     25  C   UNL     1      -4.892  12.324  24.789  0.00  0.00    +0.000 C 
ATOM     26  C   UNL     1      -3.663  13.035  24.247  0.00  0.00    +0.000 C 
ENDBRANCH  24  26
ENDBRANCH  23  24
ENDBRANCH  22  23
ENDBRANCH   1  22
TORSDOF 5
ENDMDL
MODEL 8
REMARK VINA RESULT:      -7.3      1.050      1.941
REMARK  Name = 
REMARK  6 active torsions:
REMARK  status: ('A' for Active; 'I' for Inactive)
REMARK    1  A    between atoms: C_1  and  C_2
REMARK    2  A    between atoms: C_2  and  C_3
REMARK    3  A    between atoms: C_3  and  C_4
REMARK    4  A    between atoms: C_4  and  C_5
REMARK    5  A    between atoms: C_5  and  N_6
REMARK    6  A    between atoms: C_14  and  C_15
REMARK                            x       y       z     vdW  Elec       q    Type
REMARK                         _______ _______ _______ _____ _____    ______ ____
ROOT
ATOM      1  N   UNL     1       4.474   3.839  17.186  0.00  0.00    +0.000 N 
ATOM      2  C   UNL     1       4.106   2.840  18.048  0.00  0.00    +0.000 A 
ATOM      3  C   UNL     1       3.324   3.399  19.032  0.00  0.00    +0.000 A 
ATOM      4  C   UNL     1       3.196   4.794  18.759  0.00  0.00    +0.000 A 
ATOM      5  C   UNL     1       2.540   5.882  19.381  0.00  0.00    +0.000 A 
ATOM      6  C   UNL     1       1.743   5.707  20.626  0.00  0.00    +0.000 A 
ATOM      7  O   UNL     1       1.614   4.626  21.192  0.00  0.00    +0.000 OA
ATOM      8  C   UNL     1       1.083   6.906  21.200  0.00  0.00    +0.000 A 
ATOM      9  C   UNL     1       1.228   8.082  20.578  0.00  0.00    +0.000 A 
ATOM     10  N   UNL     1       1.955   8.246  19.428  0.00  0.00    +0.000 N 
ATOM     11  C   UNL     1       2.629   7.177  18.825  0.00  0.00    +0.000 A 
ATOM     12  C   UNL     1       3.347   7.378  17.650  0.00  0.00    +0.000 A 
ATOM     13  C   UNL     1       3.992   6.320  17.009  0.00  0.00    +0.000 A 
ATOM     14  C   UNL     1       3.917   5.039  17.581  0.00  0.00    +0.000 A 
ATOM     15  H   UNL     1       2.087   9.187  19.073  0.00  0.00    +0.000 HD
ENDROOT
BRANCH   9  16
ATOM     16  C   UNL     1       0.589   9.286  21.121  0.00  0.00    +0.000 A 
ATOM     17  C   UNL     1      -0.109   9.226  22.333  0.00  0.00    +0.000 A 
ATOM     18  C   UNL     1      -0.673  10.383  22.875  0.00  0.00    +0.000 A 
ATOM     19  C   UNL     1      -0.544  11.601  22.207  0.00  0.00    +0.000 A 
ATOM     20  C   UNL     1       0.141  11.664  20.994  0.00  0.00    +0.000 A 
ATOM     21  C   UNL     1       0.708  10.510  20.453  0.00  0.00    +0.000 A 
ENDBRANCH   9  16
BRANCH   1  22
ATOM     22  C   UNL     1       5.336   3.642  16.030  0.00  0.00    +0.000 C 
BRANCH  22  23
ATOM     23  C   UNL     1       6.574   4.544  16.002  0.00  0.00    +0.000 C 
BRANCH  23  24
ATOM     24  C   UNL     1       7.118   4.761  14.590  0.00  0.00    +0.000 C 
BRANCH  24  26
ATOM     25  C   UNL     1       6.970   4.006  12.200  0.00  0.00    +0.000 C 
ATOM     26  C   UNL     1       6.289   4.001  13.558  0.00  0.00    +0.000 C 
ENDBRANCH  24  26
ENDBRANCH  23  24
ENDBRANCH  22  23
ENDBRANCH   1  22
TORSDOF 5
ENDMDL
MODEL 9
REMARK VINA RESULT:      -7.3      3.118      5.468
REMARK  Name = 
REMARK  6 active torsions:
REMARK  status: ('A' for Active; 'I' for Inactive)
REMARK    1  A    between atoms: C_1  and  C_2
REMARK    2  A    between atoms: C_2  and  C_3
REMARK    3  A    between atoms: C_3  and  C_4
REMARK    4  A    between atoms: C_4  and  C_5
REMARK    5  A    between atoms: C_5  and  N_6
REMARK    6  A    between atoms: C_14  and  C_15
REMARK                            x       y       z     vdW  Elec       q    Type
REMARK                         _______ _______ _______ _____ _____    ______ ____
ROOT
ATOM      1  N   UNL     1       2.210   7.657  18.958  0.00  0.00    +0.000 N 
ATOM      2  C   UNL     1       2.241   8.445  17.839  0.00  0.00    +0.000 A 
ATOM      3  C   UNL     1       1.563   9.608  18.123  0.00  0.00    +0.000 A 
ATOM      4  C   UNL     1       1.107   9.538  19.473  0.00  0.00    +0.000 A 
ATOM      5  C   UNL     1       0.373  10.392  20.330  0.00  0.00    +0.000 A 
ATOM      6  C   UNL     1      -0.117  11.722  19.876  0.00  0.00    +0.000 A 
ATOM      7  O   UNL     1       0.073  12.155  18.745  0.00  0.00    +0.000 OA
ATOM      8  C   UNL     1      -0.871  12.551  20.850  0.00  0.00    +0.000 A 
ATOM      9  C   UNL     1      -1.074  12.072  22.084  0.00  0.00    +0.000 A 
ATOM     10  N   UNL     1      -0.619  10.851  22.507  0.00  0.00    +0.000 N 
ATOM     11  C   UNL     1       0.084   9.992  21.653  0.00  0.00    +0.000 A 
ATOM     12  C   UNL     1       0.543   8.764  22.122  0.00  0.00    +0.000 A 
ATOM     13  C   UNL     1       1.281   7.910  21.302  0.00  0.00    +0.000 A 
ATOM     14  C   UNL     1       1.544   8.305  19.980  0.00  0.00    +0.000 A 
ATOM     15  H   UNL     1      -0.894  10.529  23.428  0.00  0.00    +0.000 HD
ENDROOT
BRANCH   9  16
ATOM     16  C   UNL     1      -1.816  12.867  23.068  0.00  0.00    +0.000 A 
ATOM     17  C   UNL     1      -1.291  14.078  23.535  0.00  0.00    +0.000 A 
ATOM     18  C   UNL     1      -2.023  14.859  24.432  0.00  0.00    +0.000 A 
ATOM     19  C   UNL     1      -3.278  14.432  24.868  0.00  0.00    +0.000 A 
ATOM     20  C   UNL     1      -3.801  13.222  24.414  0.00  0.00    +0.000 A 
ATOM     21  C   UNL     1      -3.073  12.442  23.514  0.00  0.00    +0.000 A 
ENDBRANCH   9  16
BRANCH   1  22
ATOM     22  C   UNL     1       2.797   6.327  19.036  0.00  0.00    +0.000 C 
BRANCH  22  23
ATOM     23  C   UNL     1       2.159   5.299  18.096  0.00  0.00    +0.000 C 
BRANCH  23  24
ATOM     24  C   UNL     1       1.688   4.040  18.825  0.00  0.00    +0.000 C 
BRANCH  24  26
ATOM     25  C   UNL     1       1.782   3.436  21.261  0.00  0.00    +0.000 C 
ATOM     26  C   UNL     1       1.181   4.373  20.226  0.00  0.00    +0.000 C 
ENDBRANCH  24  26
ENDBRANCH  23  24
ENDBRANCH  22  23
ENDBRANCH   1  22
TORSDOF 5
ENDMDL
