MODEL 1
REMARK VINA RESULT:      -6.7      0.000      0.000
REMARK  Name = 
REMARK  13 active torsions:
REMARK  status: ('A' for Active; 'I' for Inactive)
REMARK    1  A    between atoms: C_1  and  O_2
REMARK    2  A    between atoms: O_2  and  C_3
REMARK    3  A    between atoms: C_6  and  C_7
REMARK    4  A    between atoms: N_11  and  CA_12
REMARK    5  A    between atoms: CA_12  and  C_13
REMARK    6  A    between atoms: CA_12  and  C_15
REMARK    7  A    between atoms: C_13  and  O_14
REMARK    8  A    between atoms: N_23  and  C_24
REMARK    9  A    between atoms: C_24  and  C_25
REMARK   10  A    between atoms: C_25  and  O_26
REMARK   11  A    between atoms: O_26  and  C_27
REMARK   12  A    between atoms: C_27  and  C_28
REMARK   13  A    between atoms: C_28  and  O_29
REMARK                            x       y       z     vdW  Elec       q    Type
REMARK                         _______ _______ _______ _____ _____    ______ ____
ROOT
ATOM      1  CA  UNL     1       1.705   8.647  20.229  0.00  0.00    +0.000 C 
ENDROOT
BRANCH   1   2
ATOM      2  C   UNL     1       1.965   7.157  20.105  0.00  0.00    +0.000 A 
ATOM      3  N   UNL     1       1.340   6.247  20.826  0.00  0.00    +0.000 NA
ATOM      4  C   UNL     1       2.016   5.085  20.602  0.00  0.00    +0.000 A 
ATOM      5  C   UNL     1       1.804   3.840  21.214  0.00  0.00    +0.000 A 
ATOM      6  C   UNL     1       2.680   2.792  20.929  0.00  0.00    +0.000 A 
ATOM      7  C   UNL     1       3.744   2.992  20.050  0.00  0.00    +0.000 A 
ATOM      8  C   UNL     1       3.944   4.221  19.388  0.00  0.00    +0.000 A 
ATOM      9  C   UNL     1       3.044   5.262  19.669  0.00  0.00    +0.000 A 
ATOM     10  N   UNL     1       2.877   6.562  19.240  0.00  0.00    +0.000 N 
BRANCH  10  11
ATOM     11  C   UNL     1       3.420   7.288  18.115  0.00  0.00    +0.000 C 
BRANCH  11  12
ATOM     12  C   UNL     1       4.368   6.684  17.079  0.00  0.00    +0.000 C 
BRANCH  12  13
ATOM     13  O   UNL     1       5.675   6.758  17.691  0.00  0.00    +0.000 OA
BRANCH  13  14
ATOM     14  C   UNL     1       6.737   6.256  16.876  0.00  0.00    +0.000 C 
BRANCH  14  15
ATOM     15  C   UNL     1       6.708   4.722  16.928  0.00  0.00    +0.000 C 
BRANCH  15  16
ATOM     16  O   UNL     1       7.348   4.246  18.112  0.00  0.00    +0.000 OA
ATOM     17  H   UNL     1       8.212   4.699  18.144  0.00  0.00    +0.000 HD
ENDBRANCH  15  16
ENDBRANCH  14  15
ENDBRANCH  13  14
ENDBRANCH  12  13
ENDBRANCH  11  12
ENDBRANCH  10  11
ENDBRANCH   1   2
BRANCH   1  22
ATOM     18  C   UNL     1       0.736  12.418  18.640  0.00  0.00    +0.000 A 
ATOM     19  C   UNL     1      -0.633  12.428  18.475  0.00  0.00    +0.000 A 
ATOM     20  S   UNL     1      -1.261  10.850  18.692  0.00  0.00    +0.000 S 
ATOM     21  C   UNL     1       0.323  10.274  19.035  0.00  0.00    +0.000 A 
ATOM     22  N   UNL     1       0.508   9.010  19.462  0.00  0.00    +0.000 N 
ATOM     23  N   UNL     1       1.277  11.169  18.919  0.00  0.00    +0.000 NA
ATOM     24  H   UNL     1      -0.318   8.515  19.793  0.00  0.00    +0.000 HD
BRANCH  18  28
ATOM     25  C   UNL     1       3.272  15.866  18.584  0.00  0.00    +0.000 A 
ATOM     26  C   UNL     1       1.918  15.997  18.881  0.00  0.00    +0.000 A 
ATOM     27  C   UNL     1       1.080  14.874  18.902  0.00  0.00    +0.000 A 
ATOM     28  C   UNL     1       1.581  13.605  18.588  0.00  0.00    +0.000 A 
ATOM     29  C   UNL     1       2.940  13.483  18.267  0.00  0.00    +0.000 A 
ATOM     30  C   UNL     1       3.783  14.605  18.259  0.00  0.00    +0.000 A 
BRANCH  25  32
ATOM     31  C   UNL     1       5.350  16.901  19.015  0.00  0.00    +0.000 C 
ATOM     32  O   UNL     1       3.991  17.025  18.611  0.00  0.00    +0.000 OA
ENDBRANCH  25  32
ENDBRANCH  18  28
ENDBRANCH   1  22
BRANCH   1  33
ATOM     33  C   UNL     1       1.546   8.949  21.754  0.00  0.00    +0.000 C 
BRANCH  33  34
ATOM     34  O   UNL     1       1.178  10.295  22.068  0.00  0.00    +0.000 OA
ATOM     35  H   UNL     1       0.439  10.263  22.710  0.00  0.00    +0.000 HD
ENDBRANCH  33  34
ENDBRANCH   1  33
TORSDOF 12
ENDMDL
MODEL 2
REMARK VINA RESULT:      -6.6      3.349      6.431
REMARK  Name = 
REMARK  13 active torsions:
REMARK  status: ('A' for Active; 'I' for Inactive)
REMARK    1  A    between atoms: C_1  and  O_2
REMARK    2  A    between atoms: O_2  and  C_3
REMARK    3  A    between atoms: C_6  and  C_7
REMARK    4  A    between atoms: N_11  and  CA_12
REMARK    5  A    between atoms: CA_12  and  C_13
REMARK    6  A    between atoms: CA_12  and  C_15
REMARK    7  A    between atoms: C_13  and  O_14
REMARK    8  A    between atoms: N_23  and  C_24
REMARK    9  A    between atoms: C_24  and  C_25
REMARK   10  A    between atoms: C_25  and  O_26
REMARK   11  A    between atoms: O_26  and  C_27
REMARK   12  A    between atoms: C_27  and  C_28
REMARK   13  A    between atoms: C_28  and  O_29
REMARK                            x       y       z     vdW  Elec       q    Type
REMARK                         _______ _______ _______ _____ _____    ______ ____
ROOT
ATOM      1  CA  UNL     1       6.002   5.192  18.475  0.00  0.00    +0.000 C 
ENDROOT
BRANCH   1   2
ATOM      2  C   UNL     1       6.061   5.091  16.963  0.00  0.00    +0.000 A 
ATOM      3  N   UNL     1       5.238   4.346  16.251  0.00  0.00    +0.000 NA
ATOM      4  C   UNL     1       5.763   4.331  14.993  0.00  0.00    +0.000 A 
ATOM      5  C   UNL     1       5.311   3.598  13.885  0.00  0.00    +0.000 A 
ATOM      6  C   UNL     1       6.057   3.633  12.706  0.00  0.00    +0.000 A 
ATOM      7  C   UNL     1       7.230   4.385  12.644  0.00  0.00    +0.000 A 
ATOM      8  C   UNL     1       7.673   5.166  13.731  0.00  0.00    +0.000 A 
ATOM      9  C   UNL     1       6.904   5.139  14.905  0.00  0.00    +0.000 A 
ATOM     10  N   UNL     1       6.970   5.748  16.141  0.00  0.00    +0.000 N 
BRANCH  10  11
ATOM     11  C   UNL     1       7.731   6.876  16.625  0.00  0.00    +0.000 C 
BRANCH  11  12
ATOM     12  C   UNL     1       7.150   8.004  17.477  0.00  0.00    +0.000 C 
BRANCH  12  13
ATOM     13  O   UNL     1       8.247   8.438  18.310  0.00  0.00    +0.000 OA
BRANCH  13  14
ATOM     14  C   UNL     1       8.572   9.824  18.185  0.00  0.00    +0.000 C 
BRANCH  14  15
ATOM     15  C   UNL     1       9.318  10.267  19.451  0.00  0.00    +0.000 C 
BRANCH  15  16
ATOM     16  O   UNL     1      10.489  11.009  19.112  0.00  0.00    +0.000 OA
ATOM     17  H   UNL     1      11.221  10.365  19.121  0.00  0.00    +0.000 HD
ENDBRANCH  15  16
ENDBRANCH  14  15
ENDBRANCH  13  14
ENDBRANCH  12  13
ENDBRANCH  11  12
ENDBRANCH  10  11
ENDBRANCH   1   2
BRANCH   1  22
ATOM     18  C   UNL     1       2.265   6.595  19.801  0.00  0.00    +0.000 A 
ATOM     19  C   UNL     1       1.761   5.621  20.637  0.00  0.00    +0.000 A 
ATOM     20  S   UNL     1       2.706   4.199  20.516  0.00  0.00    +0.000 S 
ATOM     21  C   UNL     1       3.745   4.992  19.399  0.00  0.00    +0.000 A 
ATOM     22  N   UNL     1       4.881   4.396  18.986  0.00  0.00    +0.000 N 
ATOM     23  N   UNL     1       3.379   6.208  19.066  0.00  0.00    +0.000 NA
ATOM     24  H   UNL     1       5.201   3.598  19.532  0.00  0.00    +0.000 HD
BRANCH  18  28
ATOM     25  C   UNL     1       0.832  10.619  19.513  0.00  0.00    +0.000 A 
ATOM     26  C   UNL     1       0.697   9.910  20.704  0.00  0.00    +0.000 A 
ATOM     27  C   UNL     1       1.163   8.593  20.809  0.00  0.00    +0.000 A 
ATOM     28  C   UNL     1       1.740   7.952  19.705  0.00  0.00    +0.000 A 
ATOM     29  C   UNL     1       1.852   8.663  18.502  0.00  0.00    +0.000 A 
ATOM     30  C   UNL     1       1.397   9.987  18.401  0.00  0.00    +0.000 A 
BRANCH  25  32
ATOM     31  C   UNL     1       0.539  12.602  20.761  0.00  0.00    +0.000 C 
ATOM     32  O   UNL     1       0.356  11.897  19.537  0.00  0.00    +0.000 OA
ENDBRANCH  25  32
ENDBRANCH  18  28
ENDBRANCH   1  22
BRANCH   1  33
ATOM     33  C   UNL     1       7.380   4.688  19.013  0.00  0.00    +0.000 C 
BRANCH  33  34
ATOM     34  O   UNL     1       7.872   5.383  20.162  0.00  0.00    +0.000 OA
ATOM     35  H   UNL     1       7.274   5.187  20.912  0.00  0.00    +0.000 HD
ENDBRANCH  33  34
ENDBRANCH   1  33
TORSDOF 12
ENDMDL
MODEL 3
REMARK VINA RESULT:      -6.6      2.740      8.674
REMARK  Name = 
REMARK  13 active torsions:
REMARK  status: ('A' for Active; 'I' for Inactive)
REMARK    1  A    between atoms: C_1  and  O_2
REMARK    2  A    between atoms: O_2  and  C_3
REMARK    3  A    between atoms: C_6  and  C_7
REMARK    4  A    between atoms: N_11  and  CA_12
REMARK    5  A    between atoms: CA_12  and  C_13
REMARK    6  A    between atoms: CA_12  and  C_15
REMARK    7  A    between atoms: C_13  and  O_14
REMARK    8  A    between atoms: N_23  and  C_24
REMARK    9  A    between atoms: C_24  and  C_25
REMARK   10  A    between atoms: C_25  and  O_26
REMARK   11  A    between atoms: O_26  and  C_27
REMARK   12  A    between atoms: C_27  and  C_28
REMARK   13  A    between atoms: C_28  and  O_29
REMARK                            x       y       z     vdW  Elec       q    Type
REMARK                         _______ _______ _______ _____ _____    ______ ____
ROOT
ATOM      1  CA  UNL     1       1.471   9.396  19.980  0.00  0.00    +0.000 C 
ENDROOT
BRANCH   1   2
ATOM      2  C   UNL     1       0.755  10.427  20.832  0.00  0.00    +0.000 A 
ATOM      3  N   UNL     1      -0.033  10.116  21.842  0.00  0.00    +0.000 NA
ATOM      4  C   UNL     1      -0.662  11.277  22.179  0.00  0.00    +0.000 A 
ATOM      5  C   UNL     1      -1.674  11.456  23.134  0.00  0.00    +0.000 A 
ATOM      6  C   UNL     1      -2.272  12.711  23.254  0.00  0.00    +0.000 A 
ATOM      7  C   UNL     1      -1.862  13.760  22.432  0.00  0.00    +0.000 A 
ATOM      8  C   UNL     1      -0.813  13.612  21.501  0.00  0.00    +0.000 A 
ATOM      9  C   UNL     1      -0.206  12.350  21.404  0.00  0.00    +0.000 A 
ATOM     10  N   UNL     1       0.825  11.806  20.666  0.00  0.00    +0.000 N 
BRANCH  10  11
ATOM     11  C   UNL     1       1.875  12.409  19.878  0.00  0.00    +0.000 C 
BRANCH  11  12
ATOM     12  C   UNL     1       1.664  13.031  18.497  0.00  0.00    +0.000 C 
BRANCH  12  13
ATOM     13  O   UNL     1       2.932  13.640  18.171  0.00  0.00    +0.000 OA
BRANCH  13  14
ATOM     14  C   UNL     1       3.242  14.806  18.938  0.00  0.00    +0.000 C 
BRANCH  14  15
ATOM     15  C   UNL     1       2.824  16.044  18.134  0.00  0.00    +0.000 C 
BRANCH  15  16
ATOM     16  O   UNL     1       3.757  17.107  18.326  0.00  0.00    +0.000 OA
ATOM     17  H   UNL     1       4.417  16.768  18.958  0.00  0.00    +0.000 HD
ENDBRANCH  15  16
ENDBRANCH  14  15
ENDBRANCH  13  14
ENDBRANCH  12  13
ENDBRANCH  11  12
ENDBRANCH  10  11
ENDBRANCH   1   2
BRANCH   1  22
ATOM     18  C   UNL     1       3.220   5.810  18.651  0.00  0.00    +0.000 A 
ATOM     19  C   UNL     1       2.537   4.790  19.279  0.00  0.00    +0.000 A 
ATOM     20  S   UNL     1       1.530   5.430  20.507  0.00  0.00    +0.000 S 
ATOM     21  C   UNL     1       2.036   7.018  20.086  0.00  0.00    +0.000 A 
ATOM     22  N   UNL     1       1.446   8.091  20.649  0.00  0.00    +0.000 N 
ATOM     23  N   UNL     1       2.956   7.079  19.151  0.00  0.00    +0.000 NA
ATOM     24  H   UNL     1       0.561   7.927  21.126  0.00  0.00    +0.000 HD
BRANCH  18  28
ATOM     25  C   UNL     1       5.763   5.303  15.244  0.00  0.00    +0.000 A 
ATOM     26  C   UNL     1       5.295   4.192  15.942  0.00  0.00    +0.000 A 
ATOM     27  C   UNL     1       4.463   4.347  17.058  0.00  0.00    +0.000 A 
ATOM     28  C   UNL     1       4.115   5.625  17.515  0.00  0.00    +0.000 A 
ATOM     29  C   UNL     1       4.607   6.740  16.822  0.00  0.00    +0.000 A 
ATOM     30  C   UNL     1       5.431   6.584  15.697  0.00  0.00    +0.000 A 
BRANCH  25  32
ATOM     31  C   UNL     1       6.237   3.831  13.460  0.00  0.00    +0.000 C 
ATOM     32  O   UNL     1       6.551   5.026  14.166  0.00  0.00    +0.000 OA
ENDBRANCH  25  32
ENDBRANCH  18  28
ENDBRANCH   1  22
BRANCH   1  33
ATOM     33  C   UNL     1       0.739   9.368  18.599  0.00  0.00    +0.000 C 
BRANCH  33  34
ATOM     34  O   UNL     1       1.588   9.533  17.461  0.00  0.00    +0.000 OA
ATOM     35  H   UNL     1       2.502   9.303  17.731  0.00  0.00    +0.000 HD
ENDBRANCH  33  34
ENDBRANCH   1  33
TORSDOF 12
ENDMDL
MODEL 4
REMARK VINA RESULT:      -6.5      3.325      6.546
REMARK  Name = 
REMARK  13 active torsions:
REMARK  status: ('A' for Active; 'I' for Inactive)
REMARK    1  A    between atoms: C_1  and  O_2
REMARK    2  A    between atoms: O_2  and  C_3
REMARK    3  A    between atoms: C_6  and  C_7
REMARK    4  A    between atoms: N_11  and  CA_12
REMARK    5  A    between atoms: CA_12  and  C_13
REMARK    6  A    between atoms: CA_12  and  C_15
REMARK    7  A    between atoms: C_13  and  O_14
REMARK    8  A    between atoms: N_23  and  C_24
REMARK    9  A    between atoms: C_24  and  C_25
REMARK   10  A    between atoms: C_25  and  O_26
REMARK   11  A    between atoms: O_26  and  C_27
REMARK   12  A    between atoms: C_27  and  C_28
REMARK   13  A    between atoms: C_28  and  O_29
REMARK                            x       y       z     vdW  Elec       q    Type
REMARK                         _______ _______ _______ _____ _____    ______ ____
ROOT
ATOM      1  CA  UNL     1       6.173   5.783  18.080  0.00  0.00    +0.000 C 
ENDROOT
BRANCH   1   2
ATOM      2  C   UNL     1       6.406   5.185  16.706  0.00  0.00    +0.000 A 
ATOM      3  N   UNL     1       7.370   5.575  15.896  0.00  0.00    +0.000 NA
ATOM      4  C   UNL     1       7.095   4.987  14.698  0.00  0.00    +0.000 A 
ATOM      5  C   UNL     1       7.771   5.166  13.481  0.00  0.00    +0.000 A 
ATOM      6  C   UNL     1       7.263   4.556  12.333  0.00  0.00    +0.000 A 
ATOM      7  C   UNL     1       6.102   3.787  12.408  0.00  0.00    +0.000 A 
ATOM      8  C   UNL     1       5.437   3.556  13.630  0.00  0.00    +0.000 A 
ATOM      9  C   UNL     1       5.969   4.159  14.781  0.00  0.00    +0.000 A 
ATOM     10  N   UNL     1       5.651   4.173  16.123  0.00  0.00    +0.000 N 
BRANCH  10  11
ATOM     11  C   UNL     1       4.779   3.341  16.920  0.00  0.00    +0.000 C 
BRANCH  11  12
ATOM     12  C   UNL     1       3.261   3.272  16.746  0.00  0.00    +0.000 C 
BRANCH  12  13
ATOM     13  O   UNL     1       2.885   1.994  17.304  0.00  0.00    +0.000 OA
BRANCH  13  14
ATOM     14  C   UNL     1       2.311   2.067  18.611  0.00  0.00    +0.000 C 
BRANCH  14  15
ATOM     15  C   UNL     1       1.052   2.942  18.543  0.00  0.00    +0.000 C 
BRANCH  15  16
ATOM     16  O   UNL     1       0.046   2.446  19.425  0.00  0.00    +0.000 OA
ATOM     17  H   UNL     1       0.340   1.553  19.685  0.00  0.00    +0.000 HD
ENDBRANCH  15  16
ENDBRANCH  14  15
ENDBRANCH  13  14
ENDBRANCH  12  13
ENDBRANCH  11  12
ENDBRANCH  10  11
ENDBRANCH   1   2
BRANCH   1  22
ATOM     18  C   UNL     1       2.432   7.020  19.551  0.00  0.00    +0.000 A 
ATOM     19  C   UNL     1       2.110   6.149  20.571  0.00  0.00    +0.000 A 
ATOM     20  S   UNL     1       3.192   4.822  20.570  0.00  0.00    +0.000 S 
ATOM     21  C   UNL     1       4.039   5.521  19.247  0.00  0.00    +0.000 A 
ATOM     22  N   UNL     1       5.194   4.976  18.816  0.00  0.00    +0.000 N 
ATOM     23  N   UNL     1       3.515   6.627  18.773  0.00  0.00    +0.000 NA
ATOM     24  H   UNL     1       5.645   4.310  19.441  0.00  0.00    +0.000 HD
BRANCH  18  28
ATOM     25  C   UNL     1       0.548  10.794  18.824  0.00  0.00    +0.000 A 
ATOM     26  C   UNL     1       0.439  10.185  20.071  0.00  0.00    +0.000 A 
ATOM     27  C   UNL     1       1.052   8.949  20.319  0.00  0.00    +0.000 A 
ATOM     28  C   UNL     1       1.755   8.287  19.305  0.00  0.00    +0.000 A 
ATOM     29  C   UNL     1       1.843   8.895  18.045  0.00  0.00    +0.000 A 
ATOM     30  C   UNL     1       1.239  10.139  17.800  0.00  0.00    +0.000 A 
BRANCH  25  32
ATOM     31  C   UNL     1       0.582  13.101  19.329  0.00  0.00    +0.000 C 
ATOM     32  O   UNL     1      -0.076  12.002  18.706  0.00  0.00    +0.000 OA
ENDBRANCH  25  32
ENDBRANCH  18  28
ENDBRANCH   1  22
BRANCH   1  33
ATOM     33  C   UNL     1       7.563   5.823  18.794  0.00  0.00    +0.000 C 
BRANCH  33  34
ATOM     34  O   UNL     1       7.532   5.544  20.196  0.00  0.00    +0.000 OA
ATOM     35  H   UNL     1       6.789   6.048  20.587  0.00  0.00    +0.000 HD
ENDBRANCH  33  34
ENDBRANCH   1  33
TORSDOF 12
ENDMDL
MODEL 5
REMARK VINA RESULT:      -6.4      3.100      6.380
REMARK  Name = 
REMARK  13 active torsions:
REMARK  status: ('A' for Active; 'I' for Inactive)
REMARK    1  A    between atoms: C_1  and  O_2
REMARK    2  A    between atoms: O_2  and  C_3
REMARK    3  A    between atoms: C_6  and  C_7
REMARK    4  A    between atoms: N_11  and  CA_12
REMARK    5  A    between atoms: CA_12  and  C_13
REMARK    6  A    between atoms: CA_12  and  C_15
REMARK    7  A    between atoms: C_13  and  O_14
REMARK    8  A    between atoms: N_23  and  C_24
REMARK    9  A    between atoms: C_24  and  C_25
REMARK   10  A    between atoms: C_25  and  O_26
REMARK   11  A    between atoms: O_26  and  C_27
REMARK   12  A    between atoms: C_27  and  C_28
REMARK   13  A    between atoms: C_28  and  O_29
REMARK                            x       y       z     vdW  Elec       q    Type
REMARK                         _______ _______ _______ _____ _____    ______ ____
ROOT
ATOM      1  CA  UNL     1       5.972   5.863  17.922  0.00  0.00    +0.000 C 
ENDROOT
BRANCH   1   2
ATOM      2  C   UNL     1       6.279   5.244  16.572  0.00  0.00    +0.000 A 
ATOM      3  N   UNL     1       7.257   5.653  15.789  0.00  0.00    +0.000 NA
ATOM      4  C   UNL     1       7.049   5.029  14.595  0.00  0.00    +0.000 A 
ATOM      5  C   UNL     1       7.763   5.206  13.400  0.00  0.00    +0.000 A 
ATOM      6  C   UNL     1       7.321   4.552  12.249  0.00  0.00    +0.000 A 
ATOM      7  C   UNL     1       6.188   3.740  12.300  0.00  0.00    +0.000 A 
ATOM      8  C   UNL     1       5.488   3.511  13.502  0.00  0.00    +0.000 A 
ATOM      9  C   UNL     1       5.953   4.160  14.657  0.00  0.00    +0.000 A 
ATOM     10  N   UNL     1       5.585   4.190  15.986  0.00  0.00    +0.000 N 
BRANCH  10  11
ATOM     11  C   UNL     1       4.716   3.343  16.770  0.00  0.00    +0.000 C 
BRANCH  11  12
ATOM     12  C   UNL     1       3.190   3.348  16.668  0.00  0.00    +0.000 C 
BRANCH  12  13
ATOM     13  O   UNL     1       2.785   2.056  17.170  0.00  0.00    +0.000 OA
BRANCH  13  14
ATOM     14  C   UNL     1       2.702   1.976  18.595  0.00  0.00    +0.000 C 
BRANCH  14  15
ATOM     15  C   UNL     1       3.885   1.144  19.108  0.00  0.00    +0.000 C 
BRANCH  15  16
ATOM     16  O   UNL     1       4.881   1.986  19.686  0.00  0.00    +0.000 OA
ATOM     17  H   UNL     1       5.404   1.410  20.275  0.00  0.00    +0.000 HD
ENDBRANCH  15  16
ENDBRANCH  14  15
ENDBRANCH  13  14
ENDBRANCH  12  13
ENDBRANCH  11  12
ENDBRANCH  10  11
ENDBRANCH   1   2
BRANCH   1  22
ATOM     18  C   UNL     1       2.324   7.168  19.557  0.00  0.00    +0.000 A 
ATOM     19  C   UNL     1       1.982   6.247  20.525  0.00  0.00    +0.000 A 
ATOM     20  S   UNL     1       2.999   4.875  20.412  0.00  0.00    +0.000 S 
ATOM     21  C   UNL     1       3.852   5.621  19.118  0.00  0.00    +0.000 A 
ATOM     22  N   UNL     1       4.971   5.054  18.626  0.00  0.00    +0.000 N 
ATOM     23  N   UNL     1       3.371   6.779  18.730  0.00  0.00    +0.000 NA
ATOM     24  H   UNL     1       5.403   4.328  19.195  0.00  0.00    +0.000 HD
BRANCH  18  28
ATOM     25  C   UNL     1       0.394  10.965  19.125  0.00  0.00    +0.000 A 
ATOM     26  C   UNL     1       1.147  10.439  18.079  0.00  0.00    +0.000 A 
ATOM     27  C   UNL     1       1.783   9.197  18.211  0.00  0.00    +0.000 A 
ATOM     28  C   UNL     1       1.702   8.479  19.410  0.00  0.00    +0.000 A 
ATOM     29  C   UNL     1       0.961   9.024  20.468  0.00  0.00    +0.000 A 
ATOM     30  C   UNL     1       0.314  10.263  20.332  0.00  0.00    +0.000 A 
BRANCH  25  32
ATOM     31  C   UNL     1       0.690  13.212  18.464  0.00  0.00    +0.000 C 
ATOM     32  O   UNL     1      -0.191  12.172  18.875  0.00  0.00    +0.000 OA
ENDBRANCH  25  32
ENDBRANCH  18  28
ENDBRANCH   1  22
BRANCH   1  33
ATOM     33  C   UNL     1       7.326   5.937  18.700  0.00  0.00    +0.000 C 
BRANCH  33  34
ATOM     34  O   UNL     1       7.298   5.386  20.019  0.00  0.00    +0.000 OA
ATOM     35  H   UNL     1       7.386   4.413  19.941  0.00  0.00    +0.000 HD
ENDBRANCH  33  34
ENDBRANCH   1  33
TORSDOF 12
ENDMDL
MODEL 6
REMARK VINA RESULT:      -6.4      3.339      6.718
REMARK  Name = 
REMARK  13 active torsions:
REMARK  status: ('A' for Active; 'I' for Inactive)
REMARK    1  A    between atoms: C_1  and  O_2
REMARK    2  A    between atoms: O_2  and  C_3
REMARK    3  A    between atoms: C_6  and  C_7
REMARK    4  A    between atoms: N_11  and  CA_12
REMARK    5  A    between atoms: CA_12  and  C_13
REMARK    6  A    between atoms: CA_12  and  C_15
REMARK    7  A    between atoms: C_13  and  O_14
REMARK    8  A    between atoms: N_23  and  C_24
REMARK    9  A    between atoms: C_24  and  C_25
REMARK   10  A    between atoms: C_25  and  O_26
REMARK   11  A    between atoms: O_26  and  C_27
REMARK   12  A    between atoms: C_27  and  C_28
REMARK   13  A    between atoms: C_28  and  O_29
REMARK                            x       y       z     vdW  Elec       q    Type
REMARK                         _______ _______ _______ _____ _____    ______ ____
ROOT
ATOM      1  CA  UNL     1       6.039   5.939  17.764  0.00  0.00    +0.000 C 
ENDROOT
BRANCH   1   2
ATOM      2  C   UNL     1       6.333   5.283  16.429  0.00  0.00    +0.000 A 
ATOM      3  N   UNL     1       7.329   5.645  15.644  0.00  0.00    +0.000 NA
ATOM      4  C   UNL     1       7.108   5.002  14.462  0.00  0.00    +0.000 A 
ATOM      5  C   UNL     1       7.833   5.131  13.268  0.00  0.00    +0.000 A 
ATOM      6  C   UNL     1       7.378   4.467  12.129  0.00  0.00    +0.000 A 
ATOM      7  C   UNL     1       6.219   3.693  12.189  0.00  0.00    +0.000 A 
ATOM      8  C   UNL     1       5.505   3.511  13.391  0.00  0.00    +0.000 A 
ATOM      9  C   UNL     1       5.985   4.169  14.535  0.00  0.00    +0.000 A 
ATOM     10  N   UNL     1       5.610   4.240  15.861  0.00  0.00    +0.000 N 
BRANCH  10  11
ATOM     11  C   UNL     1       4.710   3.437  16.657  0.00  0.00    +0.000 C 
BRANCH  11  12
ATOM     12  C   UNL     1       3.193   3.405  16.469  0.00  0.00    +0.000 C 
BRANCH  12  13
ATOM     13  O   UNL     1       2.710   2.554  17.532  0.00  0.00    +0.000 OA
BRANCH  13  14
ATOM     14  C   UNL     1       1.473   2.977  18.111  0.00  0.00    +0.000 C 
BRANCH  14  15
ATOM     15  C   UNL     1       1.250   2.194  19.412  0.00  0.00    +0.000 C 
BRANCH  15  16
ATOM     16  O   UNL     1       0.333   2.881  20.262  0.00  0.00    +0.000 OA
ATOM     17  H   UNL     1      -0.277   2.198  20.598  0.00  0.00    +0.000 HD
ENDBRANCH  15  16
ENDBRANCH  14  15
ENDBRANCH  13  14
ENDBRANCH  12  13
ENDBRANCH  11  12
ENDBRANCH  10  11
ENDBRANCH   1   2
BRANCH   1  22
ATOM     18  C   UNL     1       2.401   6.988  19.594  0.00  0.00    +0.000 A 
ATOM     19  C   UNL     1       2.206   6.081  20.615  0.00  0.00    +0.000 A 
ATOM     20  S   UNL     1       3.333   4.800  20.483  0.00  0.00    +0.000 S 
ATOM     21  C   UNL     1       4.030   5.563  19.108  0.00  0.00    +0.000 A 
ATOM     22  N   UNL     1       5.162   5.077  18.562  0.00  0.00    +0.000 N 
ATOM     23  N   UNL     1       3.423   6.658  18.713  0.00  0.00    +0.000 NA
ATOM     24  H   UNL     1       5.693   4.415  19.126  0.00  0.00    +0.000 HD
BRANCH  18  28
ATOM     25  C   UNL     1       0.114  10.581  19.164  0.00  0.00    +0.000 A 
ATOM     26  C   UNL     1       0.807  10.057  18.076  0.00  0.00    +0.000 A 
ATOM     27  C   UNL     1       1.558   8.881  18.207  0.00  0.00    +0.000 A 
ATOM     28  C   UNL     1       1.656   8.232  19.444  0.00  0.00    +0.000 A 
ATOM     29  C   UNL     1       0.975   8.777  20.541  0.00  0.00    +0.000 A 
ATOM     30  C   UNL     1       0.212   9.948  20.407  0.00  0.00    +0.000 A 
BRANCH  25  32
ATOM     31  C   UNL     1       0.176  12.867  18.575  0.00  0.00    +0.000 C 
ATOM     32  O   UNL     1      -0.595  11.719  18.912  0.00  0.00    +0.000 OA
ENDBRANCH  25  32
ENDBRANCH  18  28
ENDBRANCH   1  22
BRANCH   1  33
ATOM     33  C   UNL     1       7.419   6.185  18.457  0.00  0.00    +0.000 C 
BRANCH  33  34
ATOM     34  O   UNL     1       7.860   5.131  19.317  0.00  0.00    +0.000 OA
ATOM     35  H   UNL     1       8.050   5.519  20.196  0.00  0.00    +0.000 HD
ENDBRANCH  33  34
ENDBRANCH   1  33
TORSDOF 12
ENDMDL
MODEL 7
REMARK VINA RESULT:      -6.4      2.648      8.510
REMARK  Name = 
REMARK  13 active torsions:
REMARK  status: ('A' for Active; 'I' for Inactive)
REMARK    1  A    between atoms: C_1  and  O_2
REMARK    2  A    between atoms: O_2  and  C_3
REMARK    3  A    between atoms: C_6  and  C_7
REMARK    4  A    between atoms: N_11  and  CA_12
REMARK    5  A    between atoms: CA_12  and  C_13
REMARK    6  A    between atoms: CA_12  and  C_15
REMARK    7  A    between atoms: C_13  and  O_14
REMARK    8  A    between atoms: N_23  and  C_24
REMARK    9  A    between atoms: C_24  and  C_25
REMARK   10  A    between atoms: C_25  and  O_26
REMARK   11  A    between atoms: O_26  and  C_27
REMARK   12  A    between atoms: C_27  and  C_28
REMARK   13  A    between atoms: C_28  and  O_29
REMARK                            x       y       z     vdW  Elec       q    Type
REMARK                         _______ _______ _______ _____ _____    ______ ____
ROOT
ATOM      1  CA  UNL     1       1.492   9.248  19.984  0.00  0.00    +0.000 C 
ENDROOT
BRANCH   1   2
ATOM      2  C   UNL     1       0.719  10.286  20.775  0.00  0.00    +0.000 A 
ATOM      3  N   UNL     1       0.031  10.007  21.865  0.00  0.00    +0.000 NA
ATOM      4  C   UNL     1      -0.700  11.127  22.126  0.00  0.00    +0.000 A 
ATOM      5  C   UNL     1      -1.668  11.304  23.126  0.00  0.00    +0.000 A 
ATOM      6  C   UNL     1      -2.391  12.498  23.160  0.00  0.00    +0.000 A 
ATOM      7  C   UNL     1      -2.146  13.488  22.210  0.00  0.00    +0.000 A 
ATOM      8  C   UNL     1      -1.144  13.349  21.228  0.00  0.00    +0.000 A 
ATOM      9  C   UNL     1      -0.410  12.151  21.216  0.00  0.00    +0.000 A 
ATOM     10  N   UNL     1       0.629  11.639  20.467  0.00  0.00    +0.000 N 
BRANCH  10  11
ATOM     11  C   UNL     1       1.558  12.259  19.551  0.00  0.00    +0.000 C 
BRANCH  11  12
ATOM     12  C   UNL     1       2.495  13.408  19.923  0.00  0.00    +0.000 C 
BRANCH  12  13
ATOM     13  O   UNL     1       2.010  14.537  19.163  0.00  0.00    +0.000 OA
BRANCH  13  14
ATOM     14  C   UNL     1       2.890  14.970  18.122  0.00  0.00    +0.000 C 
BRANCH  14  15
ATOM     15  C   UNL     1       4.335  14.860  18.627  0.00  0.00    +0.000 C 
BRANCH  15  16
ATOM     16  O   UNL     1       5.186  14.336  17.608  0.00  0.00    +0.000 OA
ATOM     17  H   UNL     1       5.981  14.902  17.612  0.00  0.00    +0.000 HD
ENDBRANCH  15  16
ENDBRANCH  14  15
ENDBRANCH  13  14
ENDBRANCH  12  13
ENDBRANCH  11  12
ENDBRANCH  10  11
ENDBRANCH   1   2
BRANCH   1  22
ATOM     18  C   UNL     1       3.563   5.727  18.986  0.00  0.00    +0.000 A 
ATOM     19  C   UNL     1       2.830   4.684  19.512  0.00  0.00    +0.000 A 
ATOM     20  S   UNL     1       1.620   5.291  20.561  0.00  0.00    +0.000 S 
ATOM     21  C   UNL     1       2.125   6.896  20.205  0.00  0.00    +0.000 A 
ATOM     22  N   UNL     1       1.413   7.947  20.656  0.00  0.00    +0.000 N 
ATOM     23  N   UNL     1       3.175   6.988  19.423  0.00  0.00    +0.000 NA
ATOM     24  H   UNL     1       0.472   7.751  20.992  0.00  0.00    +0.000 HD
BRANCH  18  28
ATOM     25  C   UNL     1       6.627   5.201  16.042  0.00  0.00    +0.000 A 
ATOM     26  C   UNL     1       6.760   4.625  17.303  0.00  0.00    +0.000 A 
ATOM     27  C   UNL     1       5.762   4.792  18.273  0.00  0.00    +0.000 A 
ATOM     28  C   UNL     1       4.630   5.571  18.005  0.00  0.00    +0.000 A 
ATOM     29  C   UNL     1       4.513   6.167  16.741  0.00  0.00    +0.000 A 
ATOM     30  C   UNL     1       5.506   5.990  15.765  0.00  0.00    +0.000 A 
BRANCH  25  32
ATOM     31  C   UNL     1       7.292   4.855  13.803  0.00  0.00    +0.000 C 
ATOM     32  O   UNL     1       7.653   4.956  15.177  0.00  0.00    +0.000 OA
ENDBRANCH  25  32
ENDBRANCH  18  28
ENDBRANCH   1  22
BRANCH   1  33
ATOM     33  C   UNL     1       0.862   9.215  18.554  0.00  0.00    +0.000 C 
BRANCH  33  34
ATOM     34  O   UNL     1       1.804   9.193  17.478  0.00  0.00    +0.000 OA
ATOM     35  H   UNL     1       2.562   8.636  17.754  0.00  0.00    +0.000 HD
ENDBRANCH  33  34
ENDBRANCH   1  33
TORSDOF 12
ENDMDL
MODEL 8
REMARK VINA RESULT:      -6.4      2.819      8.705
REMARK  Name = 
REMARK  13 active torsions:
REMARK  status: ('A' for Active; 'I' for Inactive)
REMARK    1  A    between atoms: C_1  and  O_2
REMARK    2  A    between atoms: O_2  and  C_3
REMARK    3  A    between atoms: C_6  and  C_7
REMARK    4  A    between atoms: N_11  and  CA_12
REMARK    5  A    between atoms: CA_12  and  C_13
REMARK    6  A    between atoms: CA_12  and  C_15
REMARK    7  A    between atoms: C_13  and  O_14
REMARK    8  A    between atoms: N_23  and  C_24
REMARK    9  A    between atoms: C_24  and  C_25
REMARK   10  A    between atoms: C_25  and  O_26
REMARK   11  A    between atoms: O_26  and  C_27
REMARK   12  A    between atoms: C_27  and  C_28
REMARK   13  A    between atoms: C_28  and  O_29
REMARK                            x       y       z     vdW  Elec       q    Type
REMARK                         _______ _______ _______ _____ _____    ______ ____
ROOT
ATOM      1  CA  UNL     1       1.669   9.093  19.916  0.00  0.00    +0.000 C 
ENDROOT
BRANCH   1   2
ATOM      2  C   UNL     1       0.836  10.085  20.705  0.00  0.00    +0.000 A 
ATOM      3  N   UNL     1       0.260   9.799  21.856  0.00  0.00    +0.000 NA
ATOM      4  C   UNL     1      -0.577  10.844  22.110  0.00  0.00    +0.000 A 
ATOM      5  C   UNL     1      -1.489  10.974  23.168  0.00  0.00    +0.000 A 
ATOM      6  C   UNL     1      -2.342  12.078  23.191  0.00  0.00    +0.000 A 
ATOM      7  C   UNL     1      -2.279  13.028  22.172  0.00  0.00    +0.000 A 
ATOM      8  C   UNL     1      -1.336  12.941  21.127  0.00  0.00    +0.000 A 
ATOM      9  C   UNL     1      -0.471  11.835  21.127  0.00  0.00    +0.000 A 
ATOM     10  N   UNL     1       0.568  11.397  20.331  0.00  0.00    +0.000 N 
BRANCH  10  11
ATOM     11  C   UNL     1       1.355  12.058  19.316  0.00  0.00    +0.000 C 
BRANCH  11  12
ATOM     12  C   UNL     1       2.367  13.169  19.600  0.00  0.00    +0.000 C 
BRANCH  12  13
ATOM     13  O   UNL     1       2.456  13.224  21.041  0.00  0.00    +0.000 OA
BRANCH  13  14
ATOM     14  C   UNL     1       2.435  14.547  21.583  0.00  0.00    +0.000 C 
BRANCH  14  15
ATOM     15  C   UNL     1       3.863  15.110  21.552  0.00  0.00    +0.000 C 
BRANCH  15  16
ATOM     16  O   UNL     1       3.954  16.200  20.636  0.00  0.00    +0.000 OA
ATOM     17  H   UNL     1       4.891  16.472  20.642  0.00  0.00    +0.000 HD
ENDBRANCH  15  16
ENDBRANCH  14  15
ENDBRANCH  13  14
ENDBRANCH  12  13
ENDBRANCH  11  12
ENDBRANCH  10  11
ENDBRANCH   1   2
BRANCH   1  22
ATOM     18  C   UNL     1       3.366   5.495  18.552  0.00  0.00    +0.000 A 
ATOM     19  C   UNL     1       2.734   4.482  19.242  0.00  0.00    +0.000 A 
ATOM     20  S   UNL     1       1.800   5.139  20.518  0.00  0.00    +0.000 S 
ATOM     21  C   UNL     1       2.263   6.723  20.034  0.00  0.00    +0.000 A 
ATOM     22  N   UNL     1       1.699   7.802  20.611  0.00  0.00    +0.000 N 
ATOM     23  N   UNL     1       3.121   6.772  19.042  0.00  0.00    +0.000 NA
ATOM     24  H   UNL     1       0.848   7.640  21.146  0.00  0.00    +0.000 HD
BRANCH  18  28
ATOM     25  C   UNL     1       5.876   4.880  15.138  0.00  0.00    +0.000 A 
ATOM     26  C   UNL     1       5.439   6.161  15.465  0.00  0.00    +0.000 A 
ATOM     27  C   UNL     1       4.617   6.373  16.581  0.00  0.00    +0.000 A 
ATOM     28  C   UNL     1       4.190   5.294  17.366  0.00  0.00    +0.000 A 
ATOM     29  C   UNL     1       4.615   4.004  17.018  0.00  0.00    +0.000 A 
ATOM     30  C   UNL     1       5.448   3.793  15.908  0.00  0.00    +0.000 A 
BRANCH  25  32
ATOM     31  C   UNL     1       6.377   3.758  13.122  0.00  0.00    +0.000 C 
ATOM     32  O   UNL     1       6.684   4.800  14.042  0.00  0.00    +0.000 OA
ENDBRANCH  25  32
ENDBRANCH  18  28
ENDBRANCH   1  22
BRANCH   1  33
ATOM     33  C   UNL     1       1.018   8.987  18.499  0.00  0.00    +0.000 C 
BRANCH  33  34
ATOM     34  O   UNL     1       1.936   9.057  17.405  0.00  0.00    +0.000 OA
ATOM     35  H   UNL     1       2.056   8.150  17.054  0.00  0.00    +0.000 HD
ENDBRANCH  33  34
ENDBRANCH   1  33
TORSDOF 12
ENDMDL
MODEL 9
REMARK VINA RESULT:      -6.3      3.147      6.293
REMARK  Name = 
REMARK  13 active torsions:
REMARK  status: ('A' for Active; 'I' for Inactive)
REMARK    1  A    between atoms: C_1  and  O_2
REMARK    2  A    between atoms: O_2  and  C_3
REMARK    3  A    between atoms: C_6  and  C_7
REMARK    4  A    between atoms: N_11  and  CA_12
REMARK    5  A    between atoms: CA_12  and  C_13
REMARK    6  A    between atoms: CA_12  and  C_15
REMARK    7  A    between atoms: C_13  and  O_14
REMARK    8  A    between atoms: N_23  and  C_24
REMARK    9  A    between atoms: C_24  and  C_25
REMARK   10  A    between atoms: C_25  and  O_26
REMARK   11  A    between atoms: O_26  and  C_27
REMARK   12  A    between atoms: C_27  and  C_28
REMARK   13  A    between atoms: C_28  and  O_29
REMARK                            x       y       z     vdW  Elec       q    Type
REMARK                         _______ _______ _______ _____ _____    ______ ____
ROOT
ATOM      1  CA  UNL     1       5.801   5.242  18.690  0.00  0.00    +0.000 C 
ENDROOT
BRANCH   1   2
ATOM      2  C   UNL     1       5.884   5.138  17.179  0.00  0.00    +0.000 A 
ATOM      3  N   UNL     1       5.037   4.441  16.450  0.00  0.00    +0.000 NA
ATOM      4  C   UNL     1       5.585   4.397  15.202  0.00  0.00    +0.000 A 
ATOM      5  C   UNL     1       5.116   3.691  14.084  0.00  0.00    +0.000 A 
ATOM      6  C   UNL     1       5.885   3.685  12.921  0.00  0.00    +0.000 A 
ATOM      7  C   UNL     1       7.098   4.372  12.883  0.00  0.00    +0.000 A 
ATOM      8  C   UNL     1       7.562   5.127  13.979  0.00  0.00    +0.000 A 
ATOM      9  C   UNL     1       6.769   5.141  15.138  0.00  0.00    +0.000 A 
ATOM     10  N   UNL     1       6.844   5.745  16.376  0.00  0.00    +0.000 N 
BRANCH  10  11
ATOM     11  C   UNL     1       7.657   6.830  16.877  0.00  0.00    +0.000 C 
BRANCH  11  12
ATOM     12  C   UNL     1       7.097   8.083  17.551  0.00  0.00    +0.000 C 
BRANCH  12  13
ATOM     13  O   UNL     1       8.105   9.096  17.336  0.00  0.00    +0.000 OA
BRANCH  13  14
ATOM     14  C   UNL     1       8.658   9.642  18.536  0.00  0.00    +0.000 C 
BRANCH  14  15
ATOM     15  C   UNL     1       9.476  10.889  18.174  0.00  0.00    +0.000 C 
BRANCH  15  16
ATOM     16  O   UNL     1       9.132  11.982  19.024  0.00  0.00    +0.000 OA
ATOM     17  H   UNL     1       8.638  12.608  18.462  0.00  0.00    +0.000 HD
ENDBRANCH  15  16
ENDBRANCH  14  15
ENDBRANCH  13  14
ENDBRANCH  12  13
ENDBRANCH  11  12
ENDBRANCH  10  11
ENDBRANCH   1   2
BRANCH   1  22
ATOM     18  C   UNL     1       2.098   6.780  19.958  0.00  0.00    +0.000 A 
ATOM     19  C   UNL     1       1.543   5.824  20.782  0.00  0.00    +0.000 A 
ATOM     20  S   UNL     1       2.437   4.367  20.672  0.00  0.00    +0.000 S 
ATOM     21  C   UNL     1       3.524   5.125  19.575  0.00  0.00    +0.000 A 
ATOM     22  N   UNL     1       4.643   4.487  19.179  0.00  0.00    +0.000 N 
ATOM     23  N   UNL     1       3.209   6.354  19.240  0.00  0.00    +0.000 NA
ATOM     24  H   UNL     1       4.924   3.676  19.728  0.00  0.00    +0.000 HD
BRANCH  18  28
ATOM     25  C   UNL     1       0.599  10.780  19.670  0.00  0.00    +0.000 A 
ATOM     26  C   UNL     1       1.201  10.176  18.569  0.00  0.00    +0.000 A 
ATOM     27  C   UNL     1       1.695   8.867  18.653  0.00  0.00    +0.000 A 
ATOM     28  C   UNL     1       1.625   8.156  19.858  0.00  0.00    +0.000 A 
ATOM     29  C   UNL     1       1.038   8.777  20.969  0.00  0.00    +0.000 A 
ATOM     30  C   UNL     1       0.532  10.084  20.881  0.00  0.00    +0.000 A 
BRANCH  25  32
ATOM     31  C   UNL     1       1.110  12.988  19.009  0.00  0.00    +0.000 C 
ATOM     32  O   UNL     1       0.142  12.049  19.463  0.00  0.00    +0.000 OA
ENDBRANCH  25  32
ENDBRANCH  18  28
ENDBRANCH   1  22
BRANCH   1  33
ATOM     33  C   UNL     1       7.150   4.689  19.253  0.00  0.00    +0.000 C 
BRANCH  33  34
ATOM     34  O   UNL     1       7.737   5.473  20.295  0.00  0.00    +0.000 OA
ATOM     35  H   UNL     1       8.319   6.141  19.877  0.00  0.00    +0.000 HD
ENDBRANCH  33  34
ENDBRANCH   1  33
TORSDOF 12
ENDMDL
