MODEL 1
REMARK VINA RESULT:      -8.2      0.000      0.000
REMARK  Name = 
REMARK  9 active torsions:
REMARK  status: ('A' for Active; 'I' for Inactive)
REMARK    1  A    between atoms: N_1  and  C_2
REMARK    2  A    between atoms: C_2  and  C_3
REMARK    3  A    between atoms: C_3  and  C_4
REMARK    4  A    between atoms: C_4  and  C_5
REMARK    5  A    between atoms: C_5  and  C_6
REMARK    6  A    between atoms: C_6  and  N_7
REMARK    7  A    between atoms: N_7  and  C_20
REMARK    8  A    between atoms: C_8  and  C_10
REMARK    9  A    between atoms: C_10  and  C_11
REMARK                            x       y       z     vdW  Elec       q    Type
REMARK                         _______ _______ _______ _____ _____    ______ ____
ROOT
ATOM      1  N   UNL     1       3.952   4.909  16.969  0.00  0.00    +0.000 N 
ATOM      2  C   UNL     1       4.020   6.206  17.517  0.00  0.00    +0.000 C 
ATOM      3  O   UNL     1       4.768   7.055  17.028  0.00  0.00    +0.000 OA
ENDROOT
BRANCH   1   4
ATOM      4  C   UNL     1       3.106   3.792  17.503  0.00  0.00    +0.000 C 
ATOM      5  C   UNL     1       3.807   2.976  18.600  0.00  0.00    +0.000 C 
ATOM      6  C   UNL     1       3.651   3.473  20.034  0.00  0.00    +0.000 C 
ATOM      7  C   UNL     1       2.387   3.016  20.740  0.00  0.00    +0.000 C 
ATOM      8  C   UNL     1       1.121   3.640  20.170  0.00  0.00    +0.000 C 
ATOM      9  C   UNL     1       0.857   3.312  18.702  0.00  0.00    +0.000 C 
ATOM     10  C   UNL     1       1.641   4.205  17.738  0.00  0.00    +0.000 C 
ENDBRANCH   1   4
BRANCH   1  11
ATOM     11  C   UNL     1       4.878   4.635  15.857  0.00  0.00    +0.000 C 
BRANCH  11  12
ATOM     12  C   UNL     1       6.207   3.971  16.217  0.00  0.00    +0.000 C 
BRANCH  12  13
ATOM     13  C   UNL     1       7.367   4.858  16.655  0.00  0.00    +0.000 C 
BRANCH  13  14
ATOM     14  C   UNL     1       7.588   4.605  18.160  0.00  0.00    +0.000 C 
BRANCH  14  15
ATOM     15  C   UNL     1       7.639   5.875  18.992  0.00  0.00    +0.000 C 
BRANCH  15  16
ATOM     16  N   UNL     1       8.072   5.544  20.346  0.00  0.00    +0.000 NA
ATOM     17  H   UNL     1       8.558   6.342  20.750  0.00  0.00    +0.000 HD
ATOM     18  H   UNL     1       8.748   4.782  20.314  0.00  0.00    +0.000 HD
ENDBRANCH  15  16
ENDBRANCH  14  15
ENDBRANCH  13  14
ENDBRANCH  12  13
ENDBRANCH  11  12
ENDBRANCH   1  11
BRANCH   2  19
ATOM     19  C   UNL     1       3.210   6.514  18.776  0.00  0.00    +0.000 C 
BRANCH  19  20
ATOM     20  C   UNL     1       2.368   7.745  18.667  0.00  0.00    +0.000 A 
ATOM     21  C   UNL     1       2.246   8.581  17.575  0.00  0.00    +0.000 A 
ATOM     22  N   UNL     1       1.442   9.630  17.930  0.00  0.00    +0.000 N 
ATOM     23  C   UNL     1       1.050   9.510  19.244  0.00  0.00    +0.000 A 
ATOM     24  C   UNL     1       0.266  10.358  20.035  0.00  0.00    +0.000 A 
ATOM     25  C   UNL     1       0.028   9.971  21.359  0.00  0.00    +0.000 A 
ATOM     26  C   UNL     1       0.548   8.783  21.866  0.00  0.00    +0.000 A 
ATOM     27  C   UNL     1       1.331   7.949  21.061  0.00  0.00    +0.000 A 
ATOM     28  C   UNL     1       1.593   8.320  19.725  0.00  0.00    +0.000 A 
ATOM     29  H   UNL     1       1.187  10.398  17.325  0.00  0.00    +0.000 HD
ENDBRANCH  19  20
ENDBRANCH   2  19
TORSDOF 9
ENDMDL
MODEL 2
REMARK VINA RESULT:      -7.7      1.760      2.985
REMARK  Name = 
REMARK  9 active torsions:
REMARK  status: ('A' for Active; 'I' for Inactive)
REMARK    1  A    between atoms: N_1  and  C_2
REMARK    2  A    between atoms: C_2  and  C_3
REMARK    3  A    between atoms: C_3  and  C_4
REMARK    4  A    between atoms: C_4  and  C_5
REMARK    5  A    between atoms: C_5  and  C_6
REMARK    6  A    between atoms: C_6  and  N_7
REMARK    7  A    between atoms: N_7  and  C_20
REMARK    8  A    between atoms: C_8  and  C_10
REMARK    9  A    between atoms: C_10  and  C_11
REMARK                            x       y       z     vdW  Elec       q    Type
REMARK                         _______ _______ _______ _____ _____    ______ ____
ROOT
ATOM      1  N   UNL     1       4.892   4.732  17.802  0.00  0.00    +0.000 N 
ATOM      2  C   UNL     1       4.199   5.958  17.741  0.00  0.00    +0.000 C 
ATOM      3  O   UNL     1       4.808   7.016  17.569  0.00  0.00    +0.000 OA
ENDROOT
BRANCH   1   4
ATOM      4  C   UNL     1       4.257   3.395  18.041  0.00  0.00    +0.000 C 
ATOM      5  C   UNL     1       4.349   2.938  19.505  0.00  0.00    +0.000 C 
ATOM      6  C   UNL     1       3.225   3.382  20.436  0.00  0.00    +0.000 C 
ATOM      7  C   UNL     1       1.987   2.502  20.417  0.00  0.00    +0.000 C 
ATOM      8  C   UNL     1       1.212   2.584  19.111  0.00  0.00    +0.000 C 
ATOM      9  C   UNL     1       1.995   2.136  17.878  0.00  0.00    +0.000 C 
ATOM     10  C   UNL     1       2.907   3.230  17.317  0.00  0.00    +0.000 C 
ENDBRANCH   1   4
BRANCH   1  11
ATOM     11  C   UNL     1       6.361   4.823  17.729  0.00  0.00    +0.000 C 
BRANCH  11  12
ATOM     12  C   UNL     1       7.011   4.397  16.413  0.00  0.00    +0.000 C 
BRANCH  12  13
ATOM     13  C   UNL     1       6.607   5.122  15.135  0.00  0.00    +0.000 C 
BRANCH  13  14
ATOM     14  C   UNL     1       5.703   4.162  14.335  0.00  0.00    +0.000 C 
BRANCH  14  15
ATOM     15  C   UNL     1       6.310   3.707  13.019  0.00  0.00    +0.000 C 
BRANCH  15  16
ATOM     16  N   UNL     1       5.241   3.292  12.116  0.00  0.00    +0.000 NA
ATOM     17  H   UNL     1       4.619   4.080  11.944  0.00  0.00    +0.000 HD
ATOM     18  H   UNL     1       4.674   2.572  12.563  0.00  0.00    +0.000 HD
ENDBRANCH  15  16
ENDBRANCH  14  15
ENDBRANCH  13  14
ENDBRANCH  12  13
ENDBRANCH  11  12
ENDBRANCH   1  11
BRANCH   2  19
ATOM     19  C   UNL     1       2.688   5.959  17.974  0.00  0.00    +0.000 C 
BRANCH  19  20
ATOM     20  C   UNL     1       2.250   6.840  19.099  0.00  0.00    +0.000 A 
ATOM     21  C   UNL     1       2.059   6.479  20.418  0.00  0.00    +0.000 A 
ATOM     22  N   UNL     1       1.577   7.568  21.092  0.00  0.00    +0.000 N 
ATOM     23  C   UNL     1       1.428   8.634  20.235  0.00  0.00    +0.000 A 
ATOM     24  C   UNL     1       0.937   9.924  20.470  0.00  0.00    +0.000 A 
ATOM     25  C   UNL     1       0.903  10.812  19.390  0.00  0.00    +0.000 A 
ATOM     26  C   UNL     1       1.346  10.426  18.127  0.00  0.00    +0.000 A 
ATOM     27  C   UNL     1       1.832   9.132  17.909  0.00  0.00    +0.000 A 
ATOM     28  C   UNL     1       1.869   8.215  18.981  0.00  0.00    +0.000 A 
ATOM     29  H   UNL     1       1.343   7.587  22.074  0.00  0.00    +0.000 HD
ENDBRANCH  19  20
ENDBRANCH   2  19
TORSDOF 9
ENDMDL
MODEL 3
REMARK VINA RESULT:      -7.7      1.894      4.430
REMARK  Name = 
REMARK  9 active torsions:
REMARK  status: ('A' for Active; 'I' for Inactive)
REMARK    1  A    between atoms: N_1  and  C_2
REMARK    2  A    between atoms: C_2  and  C_3
REMARK    3  A    between atoms: C_3  and  C_4
REMARK    4  A    between atoms: C_4  and  C_5
REMARK    5  A    between atoms: C_5  and  C_6
REMARK    6  A    between atoms: C_6  and  N_7
REMARK    7  A    between atoms: N_7  and  C_20
REMARK    8  A    between atoms: C_8  and  C_10
REMARK    9  A    between atoms: C_10  and  C_11
REMARK                            x       y       z     vdW  Elec       q    Type
REMARK                         _______ _______ _______ _____ _____    ______ ____
ROOT
ATOM      1  N   UNL     1       3.720   3.912  17.726  0.00  0.00    +0.000 N 
ATOM      2  C   UNL     1       2.769   4.951  17.774  0.00  0.00    +0.000 C 
ATOM      3  O   UNL     1       1.571   4.714  17.610  0.00  0.00    +0.000 OA
ENDROOT
BRANCH   1   4
ATOM      4  C   UNL     1       5.201   4.092  17.876  0.00  0.00    +0.000 C 
ATOM      5  C   UNL     1       5.919   4.323  16.538  0.00  0.00    +0.000 C 
ATOM      6  C   UNL     1       6.024   5.766  16.054  0.00  0.00    +0.000 C 
ATOM      7  C   UNL     1       7.192   6.552  16.623  0.00  0.00    +0.000 C 
ATOM      8  C   UNL     1       7.054   6.847  18.109  0.00  0.00    +0.000 C 
ATOM      9  C   UNL     1       6.983   5.607  18.998  0.00  0.00    +0.000 C 
ATOM     10  C   UNL     1       5.581   4.996  19.064  0.00  0.00    +0.000 C 
ENDBRANCH   1   4
BRANCH   1  11
ATOM     11  C   UNL     1       3.193   2.577  17.391  0.00  0.00    +0.000 C 
BRANCH  11  12
ATOM     12  C   UNL     1       3.176   1.544  18.517  0.00  0.00    +0.000 C 
BRANCH  12  13
ATOM     13  C   UNL     1       2.085   1.642  19.577  0.00  0.00    +0.000 C 
BRANCH  13  14
ATOM     14  C   UNL     1       2.630   2.542  20.706  0.00  0.00    +0.000 C 
BRANCH  14  15
ATOM     15  C   UNL     1       1.575   3.438  21.333  0.00  0.00    +0.000 C 
BRANCH  15  16
ATOM     16  N   UNL     1       0.512   3.679  20.361  0.00  0.00    +0.000 NA
ATOM     17  H   UNL     1      -0.284   3.084  20.577  0.00  0.00    +0.000 HD
ATOM     18  H   UNL     1       0.830   3.408  19.431  0.00  0.00    +0.000 HD
ENDBRANCH  15  16
ENDBRANCH  14  15
ENDBRANCH  13  14
ENDBRANCH  12  13
ENDBRANCH  11  12
ENDBRANCH   1  11
BRANCH   2  19
ATOM     19  C   UNL     1       3.261   6.387  17.953  0.00  0.00    +0.000 C 
BRANCH  19  20
ATOM     20  C   UNL     1       2.578   7.128  19.057  0.00  0.00    +0.000 A 
ATOM     21  C   UNL     1       2.346   6.684  20.344  0.00  0.00    +0.000 A 
ATOM     22  N   UNL     1       1.620   7.640  21.000  0.00  0.00    +0.000 N 
ATOM     23  C   UNL     1       1.351   8.697  20.161  0.00  0.00    +0.000 A 
ATOM     24  C   UNL     1       0.615   9.866  20.386  0.00  0.00    +0.000 A 
ATOM     25  C   UNL     1       0.509  10.778  19.330  0.00  0.00    +0.000 A 
ATOM     26  C   UNL     1       1.119  10.531  18.102  0.00  0.00    +0.000 A 
ATOM     27  C   UNL     1       1.848   9.355  17.895  0.00  0.00    +0.000 A 
ATOM     28  C   UNL     1       1.964   8.416  18.942  0.00  0.00    +0.000 A 
ATOM     29  H   UNL     1       1.306   7.575  21.958  0.00  0.00    +0.000 HD
ENDBRANCH  19  20
ENDBRANCH   2  19
TORSDOF 9
ENDMDL
MODEL 4
REMARK VINA RESULT:      -7.6      1.723      4.068
REMARK  Name = 
REMARK  9 active torsions:
REMARK  status: ('A' for Active; 'I' for Inactive)
REMARK    1  A    between atoms: N_1  and  C_2
REMARK    2  A    between atoms: C_2  and  C_3
REMARK    3  A    between atoms: C_3  and  C_4
REMARK    4  A    between atoms: C_4  and  C_5
REMARK    5  A    between atoms: C_5  and  C_6
REMARK    6  A    between atoms: C_6  and  N_7
REMARK    7  A    between atoms: N_7  and  C_20
REMARK    8  A    between atoms: C_8  and  C_10
REMARK    9  A    between atoms: C_10  and  C_11
REMARK                            x       y       z     vdW  Elec       q    Type
REMARK                         _______ _______ _______ _____ _____    ______ ____
ROOT
ATOM      1  N   UNL     1       3.542   4.339  17.749  0.00  0.00    +0.000 N 
ATOM      2  C   UNL     1       2.725   5.444  18.062  0.00  0.00    +0.000 C 
ATOM      3  O   UNL     1       1.501   5.379  17.928  0.00  0.00    +0.000 OA
ENDROOT
BRANCH   1   4
ATOM      4  C   UNL     1       5.038   4.321  17.841  0.00  0.00    +0.000 C 
ATOM      5  C   UNL     1       5.728   4.588  16.494  0.00  0.00    +0.000 C 
ATOM      6  C   UNL     1       5.997   6.046  16.136  0.00  0.00    +0.000 C 
ATOM      7  C   UNL     1       7.276   6.625  16.713  0.00  0.00    +0.000 C 
ATOM      8  C   UNL     1       7.233   6.793  18.224  0.00  0.00    +0.000 C 
ATOM      9  C   UNL     1       7.039   5.493  19.002  0.00  0.00    +0.000 C 
ATOM     10  C   UNL     1       5.575   5.056  19.084  0.00  0.00    +0.000 C 
ENDBRANCH   1   4
BRANCH   1  11
ATOM     11  C   UNL     1       2.846   3.168  17.188  0.00  0.00    +0.000 C 
BRANCH  11  12
ATOM     12  C   UNL     1       2.919   1.873  17.998  0.00  0.00    +0.000 C 
BRANCH  12  13
ATOM     13  C   UNL     1       2.840   1.961  19.517  0.00  0.00    +0.000 C 
BRANCH  13  14
ATOM     14  C   UNL     1       1.411   2.424  19.871  0.00  0.00    +0.000 C 
BRANCH  14  15
ATOM     15  C   UNL     1       1.302   3.071  21.242  0.00  0.00    +0.000 C 
BRANCH  15  16
ATOM     16  N   UNL     1       2.487   2.733  22.026  0.00  0.00    +0.000 NA
ATOM     17  H   UNL     1       2.310   2.934  23.008  0.00  0.00    +0.000 HD
ATOM     18  H   UNL     1       3.266   3.328  21.746  0.00  0.00    +0.000 HD
ENDBRANCH  15  16
ENDBRANCH  14  15
ENDBRANCH  13  14
ENDBRANCH  12  13
ENDBRANCH  11  12
ENDBRANCH   1  11
BRANCH   2  19
ATOM     19  C   UNL     1       3.392   6.750  18.493  0.00  0.00    +0.000 C 
BRANCH  19  20
ATOM     20  C   UNL     1       2.475   7.931  18.478  0.00  0.00    +0.000 A 
ATOM     21  C   UNL     1       2.291   8.834  17.450  0.00  0.00    +0.000 A 
ATOM     22  N   UNL     1       1.428   9.804  17.885  0.00  0.00    +0.000 N 
ATOM     23  C   UNL     1       1.058   9.566  19.188  0.00  0.00    +0.000 A 
ATOM     24  C   UNL     1       0.232  10.305  20.044  0.00  0.00    +0.000 A 
ATOM     25  C   UNL     1       0.031   9.810  21.337  0.00  0.00    +0.000 A 
ATOM     26  C   UNL     1       0.629   8.624  21.754  0.00  0.00    +0.000 A 
ATOM     27  C   UNL     1       1.453   7.899  20.887  0.00  0.00    +0.000 A 
ATOM     28  C   UNL     1       1.678   8.381  19.579  0.00  0.00    +0.000 A 
ATOM     29  H   UNL     1       1.120  10.595  17.337  0.00  0.00    +0.000 HD
ENDBRANCH  19  20
ENDBRANCH   2  19
TORSDOF 9
ENDMDL
MODEL 5
REMARK VINA RESULT:      -7.6      1.541      2.188
REMARK  Name = 
REMARK  9 active torsions:
REMARK  status: ('A' for Active; 'I' for Inactive)
REMARK    1  A    between atoms: N_1  and  C_2
REMARK    2  A    between atoms: C_2  and  C_3
REMARK    3  A    between atoms: C_3  and  C_4
REMARK    4  A    between atoms: C_4  and  C_5
REMARK    5  A    between atoms: C_5  and  C_6
REMARK    6  A    between atoms: C_6  and  N_7
REMARK    7  A    between atoms: N_7  and  C_20
REMARK    8  A    between atoms: C_8  and  C_10
REMARK    9  A    between atoms: C_10  and  C_11
REMARK                            x       y       z     vdW  Elec       q    Type
REMARK                         _______ _______ _______ _____ _____    ______ ____
ROOT
ATOM      1  N   UNL     1       3.346   6.026  18.728  0.00  0.00    +0.000 N 
ATOM      2  C   UNL     1       3.368   7.201  17.950  0.00  0.00    +0.000 C 
ATOM      3  O   UNL     1       4.437   7.739  17.654  0.00  0.00    +0.000 OA
ENDROOT
BRANCH   1   4
ATOM      4  C   UNL     1       2.106   5.311  19.173  0.00  0.00    +0.000 C 
ATOM      5  C   UNL     1       1.511   4.402  18.086  0.00  0.00    +0.000 C 
ATOM      6  C   UNL     1       2.037   2.972  18.022  0.00  0.00    +0.000 C 
ATOM      7  C   UNL     1       1.362   1.995  18.968  0.00  0.00    +0.000 C 
ATOM      8  C   UNL     1       1.677   2.260  20.433  0.00  0.00    +0.000 C 
ATOM      9  C   UNL     1       1.227   3.629  20.941  0.00  0.00    +0.000 C 
ATOM     10  C   UNL     1       2.215   4.748  20.603  0.00  0.00    +0.000 C 
ENDBRANCH   1   4
BRANCH   1  11
ATOM     11  C   UNL     1       4.655   5.556  19.213  0.00  0.00    +0.000 C 
BRANCH  11  12
ATOM     12  C   UNL     1       5.241   4.323  18.524  0.00  0.00    +0.000 C 
BRANCH  12  13
ATOM     13  C   UNL     1       5.172   4.240  17.004  0.00  0.00    +0.000 C 
BRANCH  13  14
ATOM     14  C   UNL     1       6.623   4.282  16.481  0.00  0.00    +0.000 C 
BRANCH  14  15
ATOM     15  C   UNL     1       6.946   5.534  15.683  0.00  0.00    +0.000 C 
BRANCH  15  16
ATOM     16  N   UNL     1       7.321   6.605  16.602  0.00  0.00    +0.000 NA
ATOM     17  H   UNL     1       6.969   6.389  17.533  0.00  0.00    +0.000 HD
ATOM     18  H   UNL     1       6.870   7.474  16.319  0.00  0.00    +0.000 HD
ENDBRANCH  15  16
ENDBRANCH  14  15
ENDBRANCH  13  14
ENDBRANCH  12  13
ENDBRANCH  11  12
ENDBRANCH   1  11
BRANCH   2  19
ATOM     19  C   UNL     1       2.038   7.840  17.549  0.00  0.00    +0.000 C 
BRANCH  19  20
ATOM     20  C   UNL     1       1.738   9.114  18.270  0.00  0.00    +0.000 A 
ATOM     21  C   UNL     1       2.010  10.399  17.846  0.00  0.00    +0.000 A 
ATOM     22  N   UNL     1       1.647  11.263  18.844  0.00  0.00    +0.000 N 
ATOM     23  C   UNL     1       1.161  10.567  19.926  0.00  0.00    +0.000 A 
ATOM     24  C   UNL     1       0.714  11.025  21.171  0.00  0.00    +0.000 A 
ATOM     25  C   UNL     1       0.267  10.071  22.091  0.00  0.00    +0.000 A 
ATOM     26  C   UNL     1       0.264   8.714  21.775  0.00  0.00    +0.000 A 
ATOM     27  C   UNL     1       0.716   8.273  20.527  0.00  0.00    +0.000 A 
ATOM     28  C   UNL     1       1.179   9.216  19.584  0.00  0.00    +0.000 A 
ATOM     29  H   UNL     1       1.741  12.268  18.805  0.00  0.00    +0.000 HD
ENDBRANCH  19  20
ENDBRANCH   2  19
TORSDOF 9
ENDMDL
MODEL 6
REMARK VINA RESULT:      -7.6      1.695      2.669
REMARK  Name = 
REMARK  9 active torsions:
REMARK  status: ('A' for Active; 'I' for Inactive)
REMARK    1  A    between atoms: N_1  and  C_2
REMARK    2  A    between atoms: C_2  and  C_3
REMARK    3  A    between atoms: C_3  and  C_4
REMARK    4  A    between atoms: C_4  and  C_5
REMARK    5  A    between atoms: C_5  and  C_6
REMARK    6  A    between atoms: C_6  and  N_7
REMARK    7  A    between atoms: N_7  and  C_20
REMARK    8  A    between atoms: C_8  and  C_10
REMARK    9  A    between atoms: C_10  and  C_11
REMARK                            x       y       z     vdW  Elec       q    Type
REMARK                         _______ _______ _______ _____ _____    ______ ____
ROOT
ATOM      1  N   UNL     1       4.254   4.969  17.572  0.00  0.00    +0.000 N 
ATOM      2  C   UNL     1       3.940   6.272  18.008  0.00  0.00    +0.000 C 
ATOM      3  O   UNL     1       4.678   7.221  17.737  0.00  0.00    +0.000 OA
ENDROOT
BRANCH   1   4
ATOM      4  C   UNL     1       3.447   3.742  17.874  0.00  0.00    +0.000 C 
ATOM      5  C   UNL     1       3.945   2.984  19.115  0.00  0.00    +0.000 C 
ATOM      6  C   UNL     1       3.369   3.414  20.460  0.00  0.00    +0.000 C 
ATOM      7  C   UNL     1       2.035   2.785  20.820  0.00  0.00    +0.000 C 
ATOM      8  C   UNL     1       0.887   3.266  19.946  0.00  0.00    +0.000 C 
ATOM      9  C   UNL     1       1.047   2.954  18.459  0.00  0.00    +0.000 C 
ATOM     10  C   UNL     1       1.931   3.965  17.726  0.00  0.00    +0.000 C 
ENDBRANCH   1   4
BRANCH   1  11
ATOM     11  C   UNL     1       5.536   4.825  16.861  0.00  0.00    +0.000 C 
BRANCH  11  12
ATOM     12  C   UNL     1       5.587   3.786  15.740  0.00  0.00    +0.000 C 
BRANCH  12  13
ATOM     13  C   UNL     1       6.499   4.047  14.548  0.00  0.00    +0.000 C 
BRANCH  13  14
ATOM     14  C   UNL     1       5.643   3.881  13.276  0.00  0.00    +0.000 C 
BRANCH  14  15
ATOM     15  C   UNL     1       6.429   3.393  12.071  0.00  0.00    +0.000 C 
BRANCH  15  16
ATOM     16  N   UNL     1       6.126   1.983  11.840  0.00  0.00    +0.000 NA
ATOM     17  H   UNL     1       6.236   1.772  10.850  0.00  0.00    +0.000 HD
ATOM     18  H   UNL     1       5.148   1.801  12.066  0.00  0.00    +0.000 HD
ENDBRANCH  15  16
ENDBRANCH  14  15
ENDBRANCH  13  14
ENDBRANCH  12  13
ENDBRANCH  11  12
ENDBRANCH   1  11
BRANCH   2  19
ATOM     19  C   UNL     1       2.709   6.472  18.893  0.00  0.00    +0.000 C 
BRANCH  19  20
ATOM     20  C   UNL     1       2.074   7.818  18.750  0.00  0.00    +0.000 A 
ATOM     21  C   UNL     1       2.010   8.595  17.611  0.00  0.00    +0.000 A 
ATOM     22  N   UNL     1       1.416   9.784  17.940  0.00  0.00    +0.000 N 
ATOM     23  C   UNL     1       1.108   9.811  19.281  0.00  0.00    +0.000 A 
ATOM     24  C   UNL     1       0.535  10.824  20.058  0.00  0.00    +0.000 A 
ATOM     25  C   UNL     1       0.336  10.563  21.418  0.00  0.00    +0.000 A 
ATOM     26  C   UNL     1       0.691   9.337  21.975  0.00  0.00    +0.000 A 
ATOM     27  C   UNL     1       1.266   8.337  21.184  0.00  0.00    +0.000 A 
ATOM     28  C   UNL     1       1.484   8.578  19.811  0.00  0.00    +0.000 A 
ATOM     29  H   UNL     1       1.245  10.545  17.299  0.00  0.00    +0.000 HD
ENDBRANCH  19  20
ENDBRANCH   2  19
TORSDOF 9
ENDMDL
MODEL 7
REMARK VINA RESULT:      -7.5      2.247      6.909
REMARK  Name = 
REMARK  9 active torsions:
REMARK  status: ('A' for Active; 'I' for Inactive)
REMARK    1  A    between atoms: N_1  and  C_2
REMARK    2  A    between atoms: C_2  and  C_3
REMARK    3  A    between atoms: C_3  and  C_4
REMARK    4  A    between atoms: C_4  and  C_5
REMARK    5  A    between atoms: C_5  and  C_6
REMARK    6  A    between atoms: C_6  and  N_7
REMARK    7  A    between atoms: N_7  and  C_20
REMARK    8  A    between atoms: C_8  and  C_10
REMARK    9  A    between atoms: C_10  and  C_11
REMARK                            x       y       z     vdW  Elec       q    Type
REMARK                         _______ _______ _______ _____ _____    ______ ____
ROOT
ATOM      1  N   UNL     1       3.203   5.148  17.886  0.00  0.00    +0.000 N 
ATOM      2  C   UNL     1       4.295   5.392  17.028  0.00  0.00    +0.000 C 
ATOM      3  O   UNL     1       4.563   6.539  16.663  0.00  0.00    +0.000 OA
ENDROOT
BRANCH   1   4
ATOM      4  C   UNL     1       2.768   3.795  18.363  0.00  0.00    +0.000 C 
ATOM      5  C   UNL     1       3.632   3.255  19.513  0.00  0.00    +0.000 C 
ATOM      6  C   UNL     1       3.210   3.637  20.928  0.00  0.00    +0.000 C 
ATOM      7  C   UNL     1       2.140   2.751  21.542  0.00  0.00    +0.000 C 
ATOM      8  C   UNL     1       0.780   2.901  20.877  0.00  0.00    +0.000 C 
ATOM      9  C   UNL     1       0.752   2.531  19.395  0.00  0.00    +0.000 C 
ATOM     10  C   UNL     1       1.238   3.663  18.486  0.00  0.00    +0.000 C 
ENDBRANCH   1   4
BRANCH   1  11
ATOM     11  C   UNL     1       2.386   6.325  18.230  0.00  0.00    +0.000 C 
BRANCH  11  12
ATOM     12  C   UNL     1       2.606   6.932  19.616  0.00  0.00    +0.000 C 
BRANCH  12  13
ATOM     13  C   UNL     1       1.457   6.894  20.617  0.00  0.00    +0.000 C 
BRANCH  13  14
ATOM     14  C   UNL     1       1.316   8.315  21.199  0.00  0.00    +0.000 C 
BRANCH  14  15
ATOM     15  C   UNL     1      -0.115   8.694  21.541  0.00  0.00    +0.000 C 
BRANCH  15  16
ATOM     16  N   UNL     1      -0.449   9.951  20.877  0.00  0.00    +0.000 NA
ATOM     17  H   UNL     1      -1.185  10.423  21.398  0.00  0.00    +0.000 HD
ATOM     18  H   UNL     1      -0.831   9.758  19.951  0.00  0.00    +0.000 HD
ENDBRANCH  15  16
ENDBRANCH  14  15
ENDBRANCH  13  14
ENDBRANCH  12  13
ENDBRANCH  11  12
ENDBRANCH   1  11
BRANCH   2  19
ATOM     19  C   UNL     1       5.090   4.200  16.496  0.00  0.00    +0.000 C 
BRANCH  19  20
ATOM     20  C   UNL     1       6.149   4.571  15.508  0.00  0.00    +0.000 A 
ATOM     21  C   UNL     1       7.229   5.406  15.714  0.00  0.00    +0.000 A 
ATOM     22  N   UNL     1       7.897   5.538  14.527  0.00  0.00    +0.000 N 
ATOM     23  C   UNL     1       7.263   4.822  13.538  0.00  0.00    +0.000 A 
ATOM     24  C   UNL     1       7.564   4.697  12.177  0.00  0.00    +0.000 A 
ATOM     25  C   UNL     1       6.728   3.886  11.401  0.00  0.00    +0.000 A 
ATOM     26  C   UNL     1       5.641   3.225  11.966  0.00  0.00    +0.000 A 
ATOM     27  C   UNL     1       5.354   3.363  13.328  0.00  0.00    +0.000 A 
ATOM     28  C   UNL     1       6.177   4.181  14.131  0.00  0.00    +0.000 A 
ATOM     29  H   UNL     1       8.727   6.097  14.387  0.00  0.00    +0.000 HD
ENDBRANCH  19  20
ENDBRANCH   2  19
TORSDOF 9
ENDMDL
MODEL 8
REMARK VINA RESULT:      -7.5      1.877      4.260
REMARK  Name = 
REMARK  9 active torsions:
REMARK  status: ('A' for Active; 'I' for Inactive)
REMARK    1  A    between atoms: N_1  and  C_2
REMARK    2  A    between atoms: C_2  and  C_3
REMARK    3  A    between atoms: C_3  and  C_4
REMARK    4  A    between atoms: C_4  and  C_5
REMARK    5  A    between atoms: C_5  and  C_6
REMARK    6  A    between atoms: C_6  and  N_7
REMARK    7  A    between atoms: N_7  and  C_20
REMARK    8  A    between atoms: C_8  and  C_10
REMARK    9  A    between atoms: C_10  and  C_11
REMARK                            x       y       z     vdW  Elec       q    Type
REMARK                         _______ _______ _______ _____ _____    ______ ____
ROOT
ATOM      1  N   UNL     1       3.460   4.657  17.407  0.00  0.00    +0.000 N 
ATOM      2  C   UNL     1       2.275   5.329  17.767  0.00  0.00    +0.000 C 
ATOM      3  O   UNL     1       1.250   4.697  18.032  0.00  0.00    +0.000 OA
ENDROOT
BRANCH   1   4
ATOM      4  C   UNL     1       4.749   5.326  17.032  0.00  0.00    +0.000 C 
ATOM      5  C   UNL     1       5.335   6.184  18.164  0.00  0.00    +0.000 C 
ATOM      6  C   UNL     1       6.254   5.479  19.157  0.00  0.00    +0.000 C 
ATOM      7  C   UNL     1       7.705   5.366  18.722  0.00  0.00    +0.000 C 
ATOM      8  C   UNL     1       7.910   4.420  17.549  0.00  0.00    +0.000 C 
ATOM      9  C   UNL     1       7.177   4.825  16.271  0.00  0.00    +0.000 C 
ATOM     10  C   UNL     1       5.707   4.398  16.261  0.00  0.00    +0.000 C 
ENDBRANCH   1   4
BRANCH   1  11
ATOM     11  C   UNL     1       3.356   3.192  17.295  0.00  0.00    +0.000 C 
BRANCH  11  12
ATOM     12  C   UNL     1       3.765   2.378  18.523  0.00  0.00    +0.000 C 
BRANCH  12  13
ATOM     13  C   UNL     1       2.681   1.954  19.507  0.00  0.00    +0.000 C 
BRANCH  13  14
ATOM     14  C   UNL     1       2.892   2.775  20.795  0.00  0.00    +0.000 C 
BRANCH  14  15
ATOM     15  C   UNL     1       1.599   3.259  21.429  0.00  0.00    +0.000 C 
BRANCH  15  16
ATOM     16  N   UNL     1       0.538   3.241  20.425  0.00  0.00    +0.000 NA
ATOM     17  H   UNL     1       0.951   3.155  19.499  0.00  0.00    +0.000 HD
ATOM     18  H   UNL     1       0.040   4.131  20.436  0.00  0.00    +0.000 HD
ENDBRANCH  15  16
ENDBRANCH  14  15
ENDBRANCH  13  14
ENDBRANCH  12  13
ENDBRANCH  11  12
ENDBRANCH   1  11
BRANCH   2  19
ATOM     19  C   UNL     1       2.262   6.858  17.744  0.00  0.00    +0.000 C 
BRANCH  19  20
ATOM     20  C   UNL     1       1.991   7.480  19.076  0.00  0.00    +0.000 A 
ATOM     21  C   UNL     1       2.152   6.901  20.318  0.00  0.00    +0.000 A 
ATOM     22  N   UNL     1       1.711   7.788  21.262  0.00  0.00    +0.000 N 
ATOM     23  C   UNL     1       1.242   8.933  20.661  0.00  0.00    +0.000 A 
ATOM     24  C   UNL     1       0.667  10.080  21.222  0.00  0.00    +0.000 A 
ATOM     25  C   UNL     1       0.279  11.103  20.350  0.00  0.00    +0.000 A 
ATOM     26  C   UNL     1       0.464  10.984  18.975  0.00  0.00    +0.000 A 
ATOM     27  C   UNL     1       1.038   9.831  18.431  0.00  0.00    +0.000 A 
ATOM     28  C   UNL     1       1.431   8.781  19.289  0.00  0.00    +0.000 A 
ATOM     29  H   UNL     1       1.708   7.623  22.259  0.00  0.00    +0.000 HD
ENDBRANCH  19  20
ENDBRANCH   2  19
TORSDOF 9
ENDMDL
MODEL 9
REMARK VINA RESULT:      -7.5      2.404      8.052
REMARK  Name = 
REMARK  9 active torsions:
REMARK  status: ('A' for Active; 'I' for Inactive)
REMARK    1  A    between atoms: N_1  and  C_2
REMARK    2  A    between atoms: C_2  and  C_3
REMARK    3  A    between atoms: C_3  and  C_4
REMARK    4  A    between atoms: C_4  and  C_5
REMARK    5  A    between atoms: C_5  and  C_6
REMARK    6  A    between atoms: C_6  and  N_7
REMARK    7  A    between atoms: N_7  and  C_20
REMARK    8  A    between atoms: C_8  and  C_10
REMARK    9  A    between atoms: C_10  and  C_11
REMARK                            x       y       z     vdW  Elec       q    Type
REMARK                         _______ _______ _______ _____ _____    ______ ____
ROOT
ATOM      1  N   UNL     1       1.303   9.252  19.823  0.00  0.00    +0.000 N 
ATOM      2  C   UNL     1       1.882   8.006  19.508  0.00  0.00    +0.000 C 
ATOM      3  O   UNL     1       2.144   7.193  20.397  0.00  0.00    +0.000 OA
ENDROOT
BRANCH   1   4
ATOM      4  C   UNL     1       0.977  10.326  18.828  0.00  0.00    +0.000 C 
ATOM      5  C   UNL     1      -0.373  10.108  18.127  0.00  0.00    +0.000 C 
ATOM      6  C   UNL     1      -1.606  10.688  18.814  0.00  0.00    +0.000 C 
ATOM      7  C   UNL     1      -1.880  12.151  18.515  0.00  0.00    +0.000 C 
ATOM      8  C   UNL     1      -0.849  13.092  19.121  0.00  0.00    +0.000 C 
ATOM      9  C   UNL     1       0.578  12.880  18.619  0.00  0.00    +0.000 C 
ATOM     10  C   UNL     1       1.304  11.741  19.340  0.00  0.00    +0.000 C 
ENDBRANCH   1   4
BRANCH   1  11
ATOM     11  C   UNL     1       1.121   9.529  21.258  0.00  0.00    +0.000 C 
BRANCH  11  12
ATOM     12  C   UNL     1      -0.234   9.159  21.862  0.00  0.00    +0.000 C 
BRANCH  12  13
ATOM     13  C   UNL     1      -0.752   9.975  23.040  0.00  0.00    +0.000 C 
BRANCH  13  14
ATOM     14  C   UNL     1      -0.789  11.449  22.589  0.00  0.00    +0.000 C 
BRANCH  14  15
ATOM     15  C   UNL     1      -2.191  11.974  22.333  0.00  0.00    +0.000 C 
BRANCH  15  16
ATOM     16  N   UNL     1      -2.983  11.841  23.553  0.00  0.00    +0.000 NA
ATOM     17  H   UNL     1      -3.465  12.717  23.740  0.00  0.00    +0.000 HD
ATOM     18  H   UNL     1      -2.364  11.678  24.347  0.00  0.00    +0.000 HD
ENDBRANCH  15  16
ENDBRANCH  14  15
ENDBRANCH  13  14
ENDBRANCH  12  13
ENDBRANCH  11  12
ENDBRANCH   1  11
BRANCH   2  19
ATOM     19  C   UNL     1       2.253   7.716  18.054  0.00  0.00    +0.000 C 
BRANCH  19  20
ATOM     20  C   UNL     1       3.187   6.561  17.887  0.00  0.00    +0.000 A 
ATOM     21  C   UNL     1       4.534   6.611  17.590  0.00  0.00    +0.000 A 
ATOM     22  N   UNL     1       4.986   5.327  17.445  0.00  0.00    +0.000 N 
ATOM     23  C   UNL     1       3.955   4.433  17.621  0.00  0.00    +0.000 A 
ATOM     24  C   UNL     1       3.942   3.037  17.530  0.00  0.00    +0.000 A 
ATOM     25  C   UNL     1       2.727   2.383  17.765  0.00  0.00    +0.000 A 
ATOM     26  C   UNL     1       1.575   3.099  18.084  0.00  0.00    +0.000 A 
ATOM     27  C   UNL     1       1.606   4.495  18.169  0.00  0.00    +0.000 A 
ATOM     28  C   UNL     1       2.818   5.178  17.928  0.00  0.00    +0.000 A 
ATOM     29  H   UNL     1       5.936   5.067  17.221  0.00  0.00    +0.000 HD
ENDBRANCH  19  20
ENDBRANCH   2  19
TORSDOF 9
ENDMDL
