MODEL 1
REMARK VINA RESULT:      -7.9      0.000      0.000
REMARK  Name = 
REMARK  7 active torsions:
REMARK  status: ('A' for Active; 'I' for Inactive)
REMARK    1  A    between atoms: C_1  and  O_2
REMARK    2  A    between atoms: O_2  and  C_3
REMARK    3  A    between atoms: C_6  and  N_7
REMARK    4  A    between atoms: C_9  and  C_10
REMARK    5  A    between atoms: N_14  and  C_15
REMARK    6  A    between atoms: N_14  and  C_16
REMARK    7  A    between atoms: C_16  and  C_17
REMARK                            x       y       z     vdW  Elec       q    Type
REMARK                         _______ _______ _______ _____ _____    ______ ____
ROOT
ATOM      1  N   UNL     1      -2.508  11.811  19.488  0.00  0.00    +0.000 N 
ATOM      2  N   UNL     1      -2.962  13.030  19.994  0.00  0.00    +0.000 NA
ATOM      3  C   UNL     1      -2.400  13.029  21.210  0.00  0.00    +0.000 A 
ATOM      4  C   UNL     1      -2.495  14.178  22.135  0.00  0.00    +0.000 C 
ATOM      5  C   UNL     1      -1.635  11.879  21.514  0.00  0.00    +0.000 A 
ATOM      6  S   UNL     1      -0.683  11.120  22.703  0.00  0.00    +0.000 S 
ATOM      7  C   UNL     1      -0.143   9.985  21.457  0.00  0.00    +0.000 A 
ATOM      8  N   UNL     1       0.971   9.219  21.680  0.00  0.00    +0.000 N 
ATOM      9  C   UNL     1       1.958   9.628  22.680  0.00  0.00    +0.000 C 
ATOM     10  N   UNL     1      -0.866  10.016  20.332  0.00  0.00    +0.000 NA
ATOM     11  C   UNL     1      -1.658  11.129  20.381  0.00  0.00    +0.000 A 
ENDROOT
BRANCH   1  15
ATOM     12  C   UNL     1      -3.755  10.747  15.560  0.00  0.00    +0.000 A 
ATOM     13  C   UNL     1      -2.444  10.533  15.976  0.00  0.00    +0.000 A 
ATOM     14  C   UNL     1      -2.059  10.873  17.275  0.00  0.00    +0.000 A 
ATOM     15  C   UNL     1      -2.969  11.457  18.180  0.00  0.00    +0.000 A 
ATOM     16  C   UNL     1      -4.278  11.687  17.755  0.00  0.00    +0.000 A 
ATOM     17  C   UNL     1      -4.669  11.329  16.450  0.00  0.00    +0.000 A 
BRANCH  12  19
ATOM     18  C   UNL     1      -2.951   9.765  13.562  0.00  0.00    +0.000 C 
ATOM     19  O   UNL     1      -4.012  10.396  14.267  0.00  0.00    +0.000 OA
ENDBRANCH  12  19
ENDBRANCH   1  15
BRANCH   8  20
ATOM     20  C   UNL     1       0.995   7.800  21.286  0.00  0.00    +0.000 C 
BRANCH  20  21
ATOM     21  C   UNL     1       1.866   7.504  20.033  0.00  0.00    +0.000 C 
ATOM     22  O   UNL     1       2.016   8.340  19.136  0.00  0.00    +0.000 OA
ATOM     23  N   UNL     1       2.438   6.231  19.921  0.00  0.00    +0.000 N 
ATOM     24  C   UNL     1       3.442   5.980  18.883  0.00  0.00    +0.000 C 
ATOM     25  C   UNL     1       3.101   4.741  18.062  0.00  0.00    +0.000 C 
ATOM     26  C   UNL     1       2.876   3.529  18.966  0.00  0.00    +0.000 C 
ATOM     27  C   UNL     1       1.839   3.848  20.045  0.00  0.00    +0.000 C 
ATOM     28  C   UNL     1       2.202   5.108  20.826  0.00  0.00    +0.000 C 
ATOM     29  O   UNL     1       4.122   3.153  19.578  0.00  0.00    +0.000 OA
ATOM     30  C   UNL     1       4.214   1.740  19.402  0.00  0.00    +0.000 C 
ATOM     31  C   UNL     1       3.463   1.493  18.124  0.00  0.00    +0.000 C 
ATOM     32  O   UNL     1       2.386   2.427  18.181  0.00  0.00    +0.000 OA
ENDBRANCH  20  21
ENDBRANCH   8  20
TORSDOF 4
ENDMDL
MODEL 2
REMARK VINA RESULT:      -7.9      4.096      9.794
REMARK  Name = 
REMARK  7 active torsions:
REMARK  status: ('A' for Active; 'I' for Inactive)
REMARK    1  A    between atoms: C_1  and  O_2
REMARK    2  A    between atoms: O_2  and  C_3
REMARK    3  A    between atoms: C_6  and  N_7
REMARK    4  A    between atoms: C_9  and  C_10
REMARK    5  A    between atoms: N_14  and  C_15
REMARK    6  A    between atoms: N_14  and  C_16
REMARK    7  A    between atoms: C_16  and  C_17
REMARK                            x       y       z     vdW  Elec       q    Type
REMARK                         _______ _______ _______ _____ _____    ______ ____
ROOT
ATOM      1  N   UNL     1       3.363   5.668  18.549  0.00  0.00    +0.000 N 
ATOM      2  N   UNL     1       3.239   4.511  19.320  0.00  0.00    +0.000 NA
ATOM      3  C   UNL     1       2.499   4.961  20.341  0.00  0.00    +0.000 A 
ATOM      4  C   UNL     1       1.995   4.077  21.413  0.00  0.00    +0.000 C 
ATOM      5  C   UNL     1       2.163   6.334  20.277  0.00  0.00    +0.000 A 
ATOM      6  S   UNL     1       1.349   7.601  21.068  0.00  0.00    +0.000 S 
ATOM      7  C   UNL     1       1.501   8.545  19.579  0.00  0.00    +0.000 A 
ATOM      8  N   UNL     1       0.722   9.659  19.404  0.00  0.00    +0.000 N 
ATOM      9  C   UNL     1      -0.514   9.821  20.170  0.00  0.00    +0.000 C 
ATOM     10  N   UNL     1       2.361   8.036  18.689  0.00  0.00    +0.000 NA
ATOM     11  C   UNL     1       2.669   6.766  19.093  0.00  0.00    +0.000 A 
ENDROOT
BRANCH   1  15
ATOM     12  C   UNL     1       5.748   5.216  15.053  0.00  0.00    +0.000 A 
ATOM     13  C   UNL     1       5.308   4.104  15.766  0.00  0.00    +0.000 A 
ATOM     14  C   UNL     1       4.512   4.273  16.901  0.00  0.00    +0.000 A 
ATOM     15  C   UNL     1       4.157   5.557  17.363  0.00  0.00    +0.000 A 
ATOM     16  C   UNL     1       4.615   6.670  16.656  0.00  0.00    +0.000 A 
ATOM     17  C   UNL     1       5.404   6.498  15.503  0.00  0.00    +0.000 A 
BRANCH  12  19
ATOM     18  C   UNL     1       6.209   3.754  13.247  0.00  0.00    +0.000 C 
ATOM     19  O   UNL     1       6.536   4.932  13.975  0.00  0.00    +0.000 OA
ENDBRANCH  12  19
ENDBRANCH   1  15
BRANCH   8  20
ATOM     20  C   UNL     1       1.291  10.886  18.820  0.00  0.00    +0.000 C 
BRANCH  20  21
ATOM     21  C   UNL     1       0.272  12.051  18.675  0.00  0.00    +0.000 C 
ATOM     22  O   UNL     1      -0.752  11.935  17.993  0.00  0.00    +0.000 OA
ATOM     23  N   UNL     1       0.576  13.266  19.301  0.00  0.00    +0.000 N 
ATOM     24  C   UNL     1      -0.449  14.310  19.382  0.00  0.00    +0.000 C 
ATOM     25  C   UNL     1       0.077  15.651  18.881  0.00  0.00    +0.000 C 
ATOM     26  C   UNL     1       1.368  16.038  19.601  0.00  0.00    +0.000 C 
ATOM     27  C   UNL     1       2.396  14.908  19.508  0.00  0.00    +0.000 C 
ATOM     28  C   UNL     1       1.823  13.579  19.994  0.00  0.00    +0.000 C 
ATOM     29  O   UNL     1       1.077  16.324  20.981  0.00  0.00    +0.000 OA
ATOM     30  C   UNL     1       1.742  17.557  21.255  0.00  0.00    +0.000 C 
ATOM     31  C   UNL     1       1.738  18.264  19.928  0.00  0.00    +0.000 C 
ATOM     32  O   UNL     1       1.931  17.211  18.985  0.00  0.00    +0.000 OA
ENDBRANCH  20  21
ENDBRANCH   8  20
TORSDOF 4
ENDMDL
MODEL 3
REMARK VINA RESULT:      -7.9      4.013      9.818
REMARK  Name = 
REMARK  7 active torsions:
REMARK  status: ('A' for Active; 'I' for Inactive)
REMARK    1  A    between atoms: C_1  and  O_2
REMARK    2  A    between atoms: O_2  and  C_3
REMARK    3  A    between atoms: C_6  and  N_7
REMARK    4  A    between atoms: C_9  and  C_10
REMARK    5  A    between atoms: N_14  and  C_15
REMARK    6  A    between atoms: N_14  and  C_16
REMARK    7  A    between atoms: C_16  and  C_17
REMARK                            x       y       z     vdW  Elec       q    Type
REMARK                         _______ _______ _______ _____ _____    ______ ____
ROOT
ATOM      1  N   UNL     1       3.258   5.682  18.662  0.00  0.00    +0.000 N 
ATOM      2  N   UNL     1       3.083   4.487  19.363  0.00  0.00    +0.000 NA
ATOM      3  C   UNL     1       2.300   4.893  20.371  0.00  0.00    +0.000 A 
ATOM      4  C   UNL     1       1.734   3.961  21.368  0.00  0.00    +0.000 C 
ATOM      5  C   UNL     1       1.985   6.272  20.366  0.00  0.00    +0.000 A 
ATOM      6  S   UNL     1       1.149   7.507  21.185  0.00  0.00    +0.000 S 
ATOM      7  C   UNL     1       1.385   8.527  19.757  0.00  0.00    +0.000 A 
ATOM      8  N   UNL     1       0.629   9.660  19.606  0.00  0.00    +0.000 N 
ATOM      9  C   UNL     1      -0.640   9.800  20.320  0.00  0.00    +0.000 C 
ATOM     10  N   UNL     1       2.280   8.054  18.882  0.00  0.00    +0.000 NA
ATOM     11  C   UNL     1       2.553   6.760  19.231  0.00  0.00    +0.000 A 
ENDROOT
BRANCH   1  15
ATOM     12  C   UNL     1       5.796   5.379  15.259  0.00  0.00    +0.000 A 
ATOM     13  C   UNL     1       5.255   4.240  15.850  0.00  0.00    +0.000 A 
ATOM     14  C   UNL     1       4.410   4.362  16.955  0.00  0.00    +0.000 A 
ATOM     15  C   UNL     1       4.107   5.623  17.511  0.00  0.00    +0.000 A 
ATOM     16  C   UNL     1       4.665   6.761  16.928  0.00  0.00    +0.000 A 
ATOM     17  C   UNL     1       5.504   6.638  15.803  0.00  0.00    +0.000 A 
BRANCH  12  19
ATOM     18  C   UNL     1       6.397   3.931  13.485  0.00  0.00    +0.000 C 
ATOM     19  O   UNL     1       6.623   5.139  14.200  0.00  0.00    +0.000 OA
ENDBRANCH  12  19
ENDBRANCH   1  15
BRANCH   8  20
ATOM     20  C   UNL     1       1.241  10.909  19.117  0.00  0.00    +0.000 C 
BRANCH  20  21
ATOM     21  C   UNL     1       1.461  11.981  20.220  0.00  0.00    +0.000 C 
ATOM     22  O   UNL     1       1.660  11.667  21.398  0.00  0.00    +0.000 OA
ATOM     23  N   UNL     1       1.374  13.328  19.847  0.00  0.00    +0.000 N 
ATOM     24  C   UNL     1       1.794  14.366  20.793  0.00  0.00    +0.000 C 
ATOM     25  C   UNL     1       0.723  15.438  20.960  0.00  0.00    +0.000 C 
ATOM     26  C   UNL     1       0.305  16.012  19.607  0.00  0.00    +0.000 C 
ATOM     27  C   UNL     1      -0.102  14.889  18.649  0.00  0.00    +0.000 C 
ATOM     28  C   UNL     1       0.985  13.824  18.529  0.00  0.00    +0.000 C 
ATOM     29  O   UNL     1       1.398  16.761  19.048  0.00  0.00    +0.000 OA
ATOM     30  C   UNL     1       0.823  17.994  18.615  0.00  0.00    +0.000 C 
ATOM     31  C   UNL     1      -0.323  18.203  19.566  0.00  0.00    +0.000 C 
ATOM     32  O   UNL     1      -0.825  16.886  19.782  0.00  0.00    +0.000 OA
ENDBRANCH  20  21
ENDBRANCH   8  20
TORSDOF 4
ENDMDL
MODEL 4
REMARK VINA RESULT:      -7.7      5.543     10.034
REMARK  Name = 
REMARK  7 active torsions:
REMARK  status: ('A' for Active; 'I' for Inactive)
REMARK    1  A    between atoms: C_1  and  O_2
REMARK    2  A    between atoms: O_2  and  C_3
REMARK    3  A    between atoms: C_6  and  N_7
REMARK    4  A    between atoms: C_9  and  C_10
REMARK    5  A    between atoms: N_14  and  C_15
REMARK    6  A    between atoms: N_14  and  C_16
REMARK    7  A    between atoms: C_16  and  C_17
REMARK                            x       y       z     vdW  Elec       q    Type
REMARK                         _______ _______ _______ _____ _____    ______ ____
ROOT
ATOM      1  N   UNL     1      -0.545  11.857  20.221  0.00  0.00    +0.000 N 
ATOM      2  N   UNL     1       0.771  11.469  19.965  0.00  0.00    +0.000 NA
ATOM      3  C   UNL     1       0.610  10.721  18.866  0.00  0.00    +0.000 A 
ATOM      4  C   UNL     1       1.746  10.142  18.120  0.00  0.00    +0.000 C 
ATOM      5  C   UNL     1      -0.727  10.593  18.420  0.00  0.00    +0.000 A 
ATOM      6  S   UNL     1      -1.735   9.896  17.241  0.00  0.00    +0.000 S 
ATOM      7  C   UNL     1      -3.027  10.968  17.801  0.00  0.00    +0.000 A 
ATOM      8  N   UNL     1      -4.131  11.163  17.012  0.00  0.00    +0.000 N 
ATOM      9  C   UNL     1      -4.067  10.893  15.576  0.00  0.00    +0.000 C 
ATOM     10  N   UNL     1      -2.778  11.567  18.971  0.00  0.00    +0.000 NA
ATOM     11  C   UNL     1      -1.455  11.375  19.259  0.00  0.00    +0.000 A 
ENDROOT
BRANCH   1  15
ATOM     12  C   UNL     1      -1.059  14.300  23.668  0.00  0.00    +0.000 A 
ATOM     13  C   UNL     1      -0.157  14.655  22.670  0.00  0.00    +0.000 A 
ATOM     14  C   UNL     1      -0.015  13.849  21.538  0.00  0.00    +0.000 A 
ATOM     15  C   UNL     1      -0.755  12.657  21.389  0.00  0.00    +0.000 A 
ATOM     16  C   UNL     1      -1.646  12.294  22.400  0.00  0.00    +0.000 A 
ATOM     17  C   UNL     1      -1.799  13.116  23.533  0.00  0.00    +0.000 A 
BRANCH  12  19
ATOM     18  C   UNL     1      -2.331  15.220  25.440  0.00  0.00    +0.000 C 
ATOM     19  O   UNL     1      -1.099  15.149  24.736  0.00  0.00    +0.000 OA
ENDBRANCH  12  19
ENDBRANCH   1  15
BRANCH   8  20
ATOM     20  C   UNL     1      -5.478  11.201  17.607  0.00  0.00    +0.000 C 
BRANCH  20  21
ATOM     21  C   UNL     1      -6.010  12.636  17.882  0.00  0.00    +0.000 C 
ATOM     22  O   UNL     1      -6.166  13.454  16.970  0.00  0.00    +0.000 OA
ATOM     23  N   UNL     1      -6.258  12.996  19.212  0.00  0.00    +0.000 N 
ATOM     24  C   UNL     1      -6.968  14.246  19.499  0.00  0.00    +0.000 C 
ATOM     25  C   UNL     1      -6.216  15.095  20.519  0.00  0.00    +0.000 C 
ATOM     26  C   UNL     1      -5.908  14.291  21.782  0.00  0.00    +0.000 C 
ATOM     27  C   UNL     1      -5.190  12.987  21.428  0.00  0.00    +0.000 C 
ATOM     28  C   UNL     1      -5.960  12.179  20.386  0.00  0.00    +0.000 C 
ATOM     29  O   UNL     1      -7.135  14.003  22.474  0.00  0.00    +0.000 OA
ATOM     30  C   UNL     1      -6.882  14.336  23.839  0.00  0.00    +0.000 C 
ATOM     31  C   UNL     1      -5.866  15.441  23.750  0.00  0.00    +0.000 C 
ATOM     32  O   UNL     1      -5.049  15.059  22.644  0.00  0.00    +0.000 OA
ENDBRANCH  20  21
ENDBRANCH   8  20
TORSDOF 4
ENDMDL
MODEL 5
REMARK VINA RESULT:      -7.7      6.091      8.501
REMARK  Name = 
REMARK  7 active torsions:
REMARK  status: ('A' for Active; 'I' for Inactive)
REMARK    1  A    between atoms: C_1  and  O_2
REMARK    2  A    between atoms: O_2  and  C_3
REMARK    3  A    between atoms: C_6  and  N_7
REMARK    4  A    between atoms: C_9  and  C_10
REMARK    5  A    between atoms: N_14  and  C_15
REMARK    6  A    between atoms: N_14  and  C_16
REMARK    7  A    between atoms: C_16  and  C_17
REMARK                            x       y       z     vdW  Elec       q    Type
REMARK                         _______ _______ _______ _____ _____    ______ ____
ROOT
ATOM      1  N   UNL     1       0.371  10.971  19.626  0.00  0.00    +0.000 N 
ATOM      2  N   UNL     1      -1.020  10.869  19.677  0.00  0.00    +0.000 NA
ATOM      3  C   UNL     1      -1.360  12.136  19.947  0.00  0.00    +0.000 A 
ATOM      4  C   UNL     1      -2.764  12.591  20.007  0.00  0.00    +0.000 C 
ATOM      5  C   UNL     1      -0.272  13.030  20.090  0.00  0.00    +0.000 A 
ATOM      6  S   UNL     1       0.165  14.643  20.410  0.00  0.00    +0.000 S 
ATOM      7  C   UNL     1       1.798  14.244  19.854  0.00  0.00    +0.000 A 
ATOM      8  N   UNL     1       2.666  15.255  19.533  0.00  0.00    +0.000 N 
ATOM      9  C   UNL     1       2.157  16.586  19.202  0.00  0.00    +0.000 C 
ATOM     10  N   UNL     1       2.035  12.933  19.734  0.00  0.00    +0.000 NA
ATOM     11  C   UNL     1       0.833  12.287  19.821  0.00  0.00    +0.000 A 
ENDROOT
BRANCH   1  15
ATOM     12  C   UNL     1       2.495   7.374  18.804  0.00  0.00    +0.000 A 
ATOM     13  C   UNL     1       2.359   8.361  17.832  0.00  0.00    +0.000 A 
ATOM     14  C   UNL     1       1.673   9.542  18.126  0.00  0.00    +0.000 A 
ATOM     15  C   UNL     1       1.087   9.753  19.392  0.00  0.00    +0.000 A 
ATOM     16  C   UNL     1       1.209   8.754  20.359  0.00  0.00    +0.000 A 
ATOM     17  C   UNL     1       1.915   7.571  20.066  0.00  0.00    +0.000 A 
BRANCH  12  19
ATOM     18  C   UNL     1       3.860   5.537  19.409  0.00  0.00    +0.000 C 
ATOM     19  O   UNL     1       3.165   6.257  18.399  0.00  0.00    +0.000 OA
ENDBRANCH  12  19
ENDBRANCH   1  15
BRANCH   8  20
ATOM     20  C   UNL     1       4.082  15.181  19.936  0.00  0.00    +0.000 C 
BRANCH  20  21
ATOM     21  C   UNL     1       5.067  14.964  18.755  0.00  0.00    +0.000 C 
ATOM     22  O   UNL     1       4.665  14.732  17.610  0.00  0.00    +0.000 OA
ATOM     23  N   UNL     1       6.439  14.985  19.036  0.00  0.00    +0.000 N 
ATOM     24  C   UNL     1       7.401  15.012  17.930  0.00  0.00    +0.000 C 
ATOM     25  C   UNL     1       8.461  13.928  18.085  0.00  0.00    +0.000 C 
ATOM     26  C   UNL     1       9.137  14.012  19.454  0.00  0.00    +0.000 C 
ATOM     27  C   UNL     1       8.092  14.004  20.571  0.00  0.00    +0.000 C 
ATOM     28  C   UNL     1       7.034  15.086  20.367  0.00  0.00    +0.000 C 
ATOM     29  O   UNL     1       9.922  15.215  19.525  0.00  0.00    +0.000 OA
ATOM     30  C   UNL     1      11.186  14.806  20.046  0.00  0.00    +0.000 C 
ATOM     31  C   UNL     1      11.328  13.390  19.562  0.00  0.00    +0.000 C 
ATOM     32  O   UNL     1      10.000  12.875  19.637  0.00  0.00    +0.000 OA
ENDBRANCH  20  21
ENDBRANCH   8  20
TORSDOF 4
ENDMDL
MODEL 6
REMARK VINA RESULT:      -7.7      5.694     10.163
REMARK  Name = 
REMARK  7 active torsions:
REMARK  status: ('A' for Active; 'I' for Inactive)
REMARK    1  A    between atoms: C_1  and  O_2
REMARK    2  A    between atoms: O_2  and  C_3
REMARK    3  A    between atoms: C_6  and  N_7
REMARK    4  A    between atoms: C_9  and  C_10
REMARK    5  A    between atoms: N_14  and  C_15
REMARK    6  A    between atoms: N_14  and  C_16
REMARK    7  A    between atoms: C_16  and  C_17
REMARK                            x       y       z     vdW  Elec       q    Type
REMARK                         _______ _______ _______ _____ _____    ______ ____
ROOT
ATOM      1  N   UNL     1      -0.849  12.022  20.467  0.00  0.00    +0.000 N 
ATOM      2  N   UNL     1       0.499  11.711  20.282  0.00  0.00    +0.000 NA
ATOM      3  C   UNL     1       0.444  10.993  19.153  0.00  0.00    +0.000 A 
ATOM      4  C   UNL     1       1.653  10.497  18.462  0.00  0.00    +0.000 C 
ATOM      5  C   UNL     1      -0.854  10.812  18.621  0.00  0.00    +0.000 A 
ATOM      6  S   UNL     1      -1.751  10.104  17.361  0.00  0.00    +0.000 S 
ATOM      7  C   UNL     1      -3.129  11.091  17.872  0.00  0.00    +0.000 A 
ATOM      8  N   UNL     1      -4.192  11.256  17.022  0.00  0.00    +0.000 N 
ATOM      9  C   UNL     1      -4.027  11.038  15.584  0.00  0.00    +0.000 C 
ATOM     10  N   UNL     1      -2.984  11.662  19.072  0.00  0.00    +0.000 NA
ATOM     11  C   UNL     1      -1.672  11.528  19.437  0.00  0.00    +0.000 A 
ENDROOT
BRANCH   1  15
ATOM     12  C   UNL     1      -1.921  14.191  23.969  0.00  0.00    +0.000 A 
ATOM     13  C   UNL     1      -2.653  13.077  23.567  0.00  0.00    +0.000 A 
ATOM     14  C   UNL     1      -2.275  12.369  22.424  0.00  0.00    +0.000 A 
ATOM     15  C   UNL     1      -1.171  12.771  21.644  0.00  0.00    +0.000 A 
ATOM     16  C   UNL     1      -0.450  13.898  22.040  0.00  0.00    +0.000 A 
ATOM     17  C   UNL     1      -0.822  14.602  23.201  0.00  0.00    +0.000 A 
BRANCH  12  19
ATOM     18  C   UNL     1      -1.456  15.594  25.819  0.00  0.00    +0.000 C 
ATOM     19  O   UNL     1      -2.394  14.816  25.086  0.00  0.00    +0.000 OA
ENDBRANCH  12  19
ENDBRANCH   1  15
BRANCH   8  20
ATOM     20  C   UNL     1      -5.573  11.206  17.532  0.00  0.00    +0.000 C 
BRANCH  20  21
ATOM     21  C   UNL     1      -6.187  12.600  17.839  0.00  0.00    +0.000 C 
ATOM     22  O   UNL     1      -6.260  13.480  16.975  0.00  0.00    +0.000 OA
ATOM     23  N   UNL     1      -6.609  12.853  19.150  0.00  0.00    +0.000 N 
ATOM     24  C   UNL     1      -7.394  14.058  19.434  0.00  0.00    +0.000 C 
ATOM     25  C   UNL     1      -6.805  14.849  20.596  0.00  0.00    +0.000 C 
ATOM     26  C   UNL     1      -6.625  13.962  21.828  0.00  0.00    +0.000 C 
ATOM     27  C   UNL     1      -5.821  12.709  21.476  0.00  0.00    +0.000 C 
ATOM     28  C   UNL     1      -6.428  11.960  20.292  0.00  0.00    +0.000 C 
ATOM     29  O   UNL     1      -7.917  13.589  22.340  0.00  0.00    +0.000 OA
ATOM     30  C   UNL     1      -7.844  13.826  23.745  0.00  0.00    +0.000 C 
ATOM     31  C   UNL     1      -6.867  14.962  23.863  0.00  0.00    +0.000 C 
ATOM     32  O   UNL     1      -5.907  14.687  22.843  0.00  0.00    +0.000 OA
ENDBRANCH  20  21
ENDBRANCH   8  20
TORSDOF 4
ENDMDL
MODEL 7
REMARK VINA RESULT:      -7.7      5.827      8.518
REMARK  Name = 
REMARK  7 active torsions:
REMARK  status: ('A' for Active; 'I' for Inactive)
REMARK    1  A    between atoms: C_1  and  O_2
REMARK    2  A    between atoms: O_2  and  C_3
REMARK    3  A    between atoms: C_6  and  N_7
REMARK    4  A    between atoms: C_9  and  C_10
REMARK    5  A    between atoms: N_14  and  C_15
REMARK    6  A    between atoms: N_14  and  C_16
REMARK    7  A    between atoms: C_16  and  C_17
REMARK                            x       y       z     vdW  Elec       q    Type
REMARK                         _______ _______ _______ _____ _____    ______ ____
ROOT
ATOM      1  N   UNL     1       0.631  10.565  20.537  0.00  0.00    +0.000 N 
ATOM      2  N   UNL     1      -0.344  10.212  21.471  0.00  0.00    +0.000 NA
ATOM      3  C   UNL     1      -0.641  11.407  21.997  0.00  0.00    +0.000 A 
ATOM      4  C   UNL     1      -1.718  11.598  22.990  0.00  0.00    +0.000 C 
ATOM      5  C   UNL     1       0.098  12.493  21.470  0.00  0.00    +0.000 A 
ATOM      6  S   UNL     1       0.348  14.173  21.557  0.00  0.00    +0.000 S 
ATOM      7  C   UNL     1       1.260  14.053  20.045  0.00  0.00    +0.000 A 
ATOM      8  N   UNL     1       1.515  15.187  19.319  0.00  0.00    +0.000 N 
ATOM      9  C   UNL     1       0.691  16.382  19.505  0.00  0.00    +0.000 C 
ATOM     10  N   UNL     1       1.586  12.804  19.695  0.00  0.00    +0.000 NA
ATOM     11  C   UNL     1       0.869  11.952  20.490  0.00  0.00    +0.000 A 
ENDROOT
BRANCH   1  15
ATOM     12  C   UNL     1       2.418   7.312  18.453  0.00  0.00    +0.000 A 
ATOM     13  C   UNL     1       2.168   7.233  19.820  0.00  0.00    +0.000 A 
ATOM     14  C   UNL     1       1.565   8.305  20.482  0.00  0.00    +0.000 A 
ATOM     15  C   UNL     1       1.220   9.489  19.798  0.00  0.00    +0.000 A 
ATOM     16  C   UNL     1       1.488   9.572  18.431  0.00  0.00    +0.000 A 
ATOM     17  C   UNL     1       2.081   8.485  17.762  0.00  0.00    +0.000 A 
BRANCH  12  19
ATOM     18  C   UNL     1       4.101   5.660  18.668  0.00  0.00    +0.000 C 
ATOM     19  O   UNL     1       3.029   6.216  17.916  0.00  0.00    +0.000 OA
ENDBRANCH  12  19
ENDBRANCH   1  15
BRANCH   8  20
ATOM     20  C   UNL     1       2.835  15.399  18.700  0.00  0.00    +0.000 C 
BRANCH  20  21
ATOM     21  C   UNL     1       3.994  15.572  19.720  0.00  0.00    +0.000 C 
ATOM     22  O   UNL     1       3.836  16.182  20.783  0.00  0.00    +0.000 OA
ATOM     23  N   UNL     1       5.250  15.059  19.375  0.00  0.00    +0.000 N 
ATOM     24  C   UNL     1       6.307  14.997  20.389  0.00  0.00    +0.000 C 
ATOM     25  C   UNL     1       7.601  15.628  19.887  0.00  0.00    +0.000 C 
ATOM     26  C   UNL     1       8.030  15.016  18.554  0.00  0.00    +0.000 C 
ATOM     27  C   UNL     1       6.888  15.083  17.539  0.00  0.00    +0.000 C 
ATOM     28  C   UNL     1       5.604  14.465  18.087  0.00  0.00    +0.000 C 
ATOM     29  O   UNL     1       8.422  13.648  18.762  0.00  0.00    +0.000 OA
ATOM     30  C   UNL     1       9.666  13.507  18.077  0.00  0.00    +0.000 C 
ATOM     31  C   UNL     1      10.271  14.881  18.156  0.00  0.00    +0.000 C 
ATOM     32  O   UNL     1       9.148  15.751  18.024  0.00  0.00    +0.000 OA
ENDBRANCH  20  21
ENDBRANCH   8  20
TORSDOF 4
ENDMDL
MODEL 8
REMARK VINA RESULT:      -7.7      3.991      8.231
REMARK  Name = 
REMARK  7 active torsions:
REMARK  status: ('A' for Active; 'I' for Inactive)
REMARK    1  A    between atoms: C_1  and  O_2
REMARK    2  A    between atoms: O_2  and  C_3
REMARK    3  A    between atoms: C_6  and  N_7
REMARK    4  A    between atoms: C_9  and  C_10
REMARK    5  A    between atoms: N_14  and  C_15
REMARK    6  A    between atoms: N_14  and  C_16
REMARK    7  A    between atoms: C_16  and  C_17
REMARK                            x       y       z     vdW  Elec       q    Type
REMARK                         _______ _______ _______ _____ _____    ______ ____
ROOT
ATOM      1  N   UNL     1      -1.931  13.127  22.881  0.00  0.00    +0.000 N 
ATOM      2  N   UNL     1      -1.193  13.716  23.909  0.00  0.00    +0.000 NA
ATOM      3  C   UNL     1      -2.095  14.564  24.419  0.00  0.00    +0.000 A 
ATOM      4  C   UNL     1      -1.834  15.377  25.625  0.00  0.00    +0.000 C 
ATOM      5  C   UNL     1      -3.351  14.566  23.768  0.00  0.00    +0.000 A 
ATOM      6  S   UNL     1      -4.903  15.261  23.750  0.00  0.00    +0.000 S 
ATOM      7  C   UNL     1      -5.403  13.965  22.653  0.00  0.00    +0.000 A 
ATOM      8  N   UNL     1      -6.738  13.722  22.460  0.00  0.00    +0.000 N 
ATOM      9  C   UNL     1      -7.719  14.171  23.448  0.00  0.00    +0.000 C 
ATOM     10  N   UNL     1      -4.390  13.266  22.128  0.00  0.00    +0.000 NA
ATOM     11  C   UNL     1      -3.258  13.596  22.820  0.00  0.00    +0.000 A 
ENDROOT
BRANCH   1  15
ATOM     12  C   UNL     1       0.163  10.219  20.584  0.00  0.00    +0.000 A 
ATOM     13  C   UNL     1      -0.111  10.002  21.932  0.00  0.00    +0.000 A 
ATOM     14  C   UNL     1      -0.815  10.961  22.664  0.00  0.00    +0.000 A 
ATOM     15  C   UNL     1      -1.240  12.170  22.072  0.00  0.00    +0.000 A 
ATOM     16  C   UNL     1      -0.948  12.391  20.726  0.00  0.00    +0.000 A 
ATOM     17  C   UNL     1      -0.253  11.416  19.985  0.00  0.00    +0.000 A 
BRANCH  12  19
ATOM     18  C   UNL     1       1.398   8.214  20.827  0.00  0.00    +0.000 C 
ATOM     19  O   UNL     1       0.873   9.225  19.976  0.00  0.00    +0.000 OA
ENDBRANCH  12  19
ENDBRANCH   1  15
BRANCH   8  20
ATOM     20  C   UNL     1      -7.258  13.431  21.112  0.00  0.00    +0.000 C 
BRANCH  20  21
ATOM     21  C   UNL     1      -7.084  11.951  20.671  0.00  0.00    +0.000 C 
ATOM     22  O   UNL     1      -7.536  11.017  21.341  0.00  0.00    +0.000 OA
ATOM     23  N   UNL     1      -6.346  11.700  19.508  0.00  0.00    +0.000 N 
ATOM     24  C   UNL     1      -6.345  10.352  18.932  0.00  0.00    +0.000 C 
ATOM     25  C   UNL     1      -4.928   9.855  18.671  0.00  0.00    +0.000 C 
ATOM     26  C   UNL     1      -4.143  10.855  17.823  0.00  0.00    +0.000 C 
ATOM     27  C   UNL     1      -4.192  12.249  18.453  0.00  0.00    +0.000 C 
ATOM     28  C   UNL     1      -5.626  12.700  18.722  0.00  0.00    +0.000 C 
ATOM     29  O   UNL     1      -4.698  10.896  16.497  0.00  0.00    +0.000 OA
ATOM     30  C   UNL     1      -3.576  10.804  15.619  0.00  0.00    +0.000 C 
ATOM     31  C   UNL     1      -2.578   9.999  16.403  0.00  0.00    +0.000 C 
ATOM     32  O   UNL     1      -2.766  10.445  17.745  0.00  0.00    +0.000 OA
ENDBRANCH  20  21
ENDBRANCH   8  20
TORSDOF 4
ENDMDL
MODEL 9
REMARK VINA RESULT:      -7.5      5.937      8.360
REMARK  Name = 
REMARK  7 active torsions:
REMARK  status: ('A' for Active; 'I' for Inactive)
REMARK    1  A    between atoms: C_1  and  O_2
REMARK    2  A    between atoms: O_2  and  C_3
REMARK    3  A    between atoms: C_6  and  N_7
REMARK    4  A    between atoms: C_9  and  C_10
REMARK    5  A    between atoms: N_14  and  C_15
REMARK    6  A    between atoms: N_14  and  C_16
REMARK    7  A    between atoms: C_16  and  C_17
REMARK                            x       y       z     vdW  Elec       q    Type
REMARK                         _______ _______ _______ _____ _____    ______ ____
ROOT
ATOM      1  N   UNL     1       0.350  10.991  20.583  0.00  0.00    +0.000 N 
ATOM      2  N   UNL     1      -0.983  10.835  20.968  0.00  0.00    +0.000 NA
ATOM      3  C   UNL     1      -1.233  12.030  21.518  0.00  0.00    +0.000 A 
ATOM      4  C   UNL     1      -2.573  12.421  22.005  0.00  0.00    +0.000 C 
ATOM      5  C   UNL     1      -0.139  12.927  21.525  0.00  0.00    +0.000 A 
ATOM      6  S   UNL     1       0.379  14.481  21.984  0.00  0.00    +0.000 S 
ATOM      7  C   UNL     1       1.812  14.233  20.975  0.00  0.00    +0.000 A 
ATOM      8  N   UNL     1       2.577  15.312  20.615  0.00  0.00    +0.000 N 
ATOM      9  C   UNL     1       2.011  16.661  20.645  0.00  0.00    +0.000 C 
ATOM     10  N   UNL     1       2.001  12.967  20.586  0.00  0.00    +0.000 NA
ATOM     11  C   UNL     1       0.856  12.274  20.868  0.00  0.00    +0.000 A 
ENDROOT
BRANCH   1  15
ATOM     12  C   UNL     1       2.228   7.558  18.909  0.00  0.00    +0.000 A 
ATOM     13  C   UNL     1       1.866   7.590  20.253  0.00  0.00    +0.000 A 
ATOM     14  C   UNL     1       1.234   8.719  20.779  0.00  0.00    +0.000 A 
ATOM     15  C   UNL     1       0.973   9.852  19.981  0.00  0.00    +0.000 A 
ATOM     16  C   UNL     1       1.354   9.824  18.638  0.00  0.00    +0.000 A 
ATOM     17  C   UNL     1       1.975   8.678  18.105  0.00  0.00    +0.000 A 
BRANCH  12  19
ATOM     18  C   UNL     1       3.286   5.538  19.545  0.00  0.00    +0.000 C 
ATOM     19  O   UNL     1       2.856   6.414  18.511  0.00  0.00    +0.000 OA
ENDBRANCH  12  19
ENDBRANCH   1  15
BRANCH   8  20
ATOM     20  C   UNL     1       4.048  15.224  20.629  0.00  0.00    +0.000 C 
BRANCH  20  21
ATOM     21  C   UNL     1       4.678  14.907  19.245  0.00  0.00    +0.000 C 
ATOM     22  O   UNL     1       3.986  14.563  18.281  0.00  0.00    +0.000 OA
ATOM     23  N   UNL     1       6.072  14.969  19.132  0.00  0.00    +0.000 N 
ATOM     24  C   UNL     1       6.692  14.901  17.805  0.00  0.00    +0.000 C 
ATOM     25  C   UNL     1       7.793  13.848  17.755  0.00  0.00    +0.000 C 
ATOM     26  C   UNL     1       8.815  14.068  18.870  0.00  0.00    +0.000 C 
ATOM     27  C   UNL     1       8.118  14.155  20.229  0.00  0.00    +0.000 C 
ATOM     28  C   UNL     1       7.007  15.201  20.232  0.00  0.00    +0.000 C 
ATOM     29  O   UNL     1       9.545  15.281  18.615  0.00  0.00    +0.000 OA
ATOM     30  C   UNL     1      10.918  14.936  18.799  0.00  0.00    +0.000 C 
ATOM     31  C   UNL     1      10.972  13.483  18.421  0.00  0.00    +0.000 C 
ATOM     32  O   UNL     1       9.736  12.962  18.905  0.00  0.00    +0.000 OA
ENDBRANCH  20  21
ENDBRANCH   8  20
TORSDOF 4
ENDMDL
