MODEL 1
REMARK VINA RESULT:      -8.0      0.000      0.000
REMARK  Name = 
REMARK  6 active torsions:
REMARK  status: ('A' for Active; 'I' for Inactive)
REMARK    1  A    between atoms: C_1  and  C_2
REMARK    2  A    between atoms: C_2  and  C_3
REMARK    3  A    between atoms: C_2  and  O_4
REMARK    4  A    between atoms: O_4  and  C_5
REMARK    5  A    between atoms: C_8  and  C_9
REMARK    6  A    between atoms: C_11  and  C_12
REMARK                            x       y       z     vdW  Elec       q    Type
REMARK                         _______ _______ _______ _____ _____    ______ ____
ROOT
ATOM      1  C   UNL     1       3.003   5.706  19.700  0.00  0.00    +0.000 C 
ATOM      2  C   UNL     1       2.378   4.978  20.930  0.00  0.00    +0.000 C 
ATOM      3  C   UNL     1       2.031   3.528  20.520  0.00  0.00    +0.000 C 
ATOM      4  C   UNL     1       1.373   2.773  21.664  0.00  0.00    +0.000 C 
ATOM      5  N   UNL     1       1.177   3.576  19.360  0.00  0.00    +0.000 N 
ATOM      6  C   UNL     1       1.703   4.175  18.231  0.00  0.00    +0.000 C 
ATOM      7  O   UNL     1       1.092   4.271  17.178  0.00  0.00    +0.000 OA
ATOM      8  C   UNL     1       3.092   4.716  18.505  0.00  0.00    +0.000 C 
ATOM      9  C   UNL     1       3.908   3.534  19.026  0.00  0.00    +0.000 C 
ATOM     10  O   UNL     1       5.015   3.202  18.632  0.00  0.00    +0.000 OA
ATOM     11  N   UNL     1       3.253   2.905  20.073  0.00  0.00    +0.000 N 
ATOM     12  H   UNL     1       0.244   3.186  19.321  0.00  0.00    +0.000 HD
ATOM     13  H   UNL     1       3.705   2.135  20.549  0.00  0.00    +0.000 HD
ENDROOT
BRANCH   1  17
ATOM     14  C   UNL     1       1.186   9.573  18.885  0.00  0.00    +0.000 A 
ATOM     15  C   UNL     1       1.858   8.870  17.889  0.00  0.00    +0.000 A 
ATOM     16  C   UNL     1       2.395   7.604  18.150  0.00  0.00    +0.000 A 
ATOM     17  C   UNL     1       2.290   7.020  19.420  0.00  0.00    +0.000 A 
ATOM     18  C   UNL     1       1.595   7.732  20.409  0.00  0.00    +0.000 A 
ATOM     19  C   UNL     1       1.049   8.990  20.143  0.00  0.00    +0.000 A 
BRANCH  14  20
ATOM     20  O   UNL     1       0.648  10.823  18.776  0.00  0.00    +0.000 OA
BRANCH  20  22
ATOM     21  C   UNL     1      -1.044  12.482  18.887  0.00  0.00    +0.000 C 
ATOM     22  C   UNL     1      -0.766  10.983  18.924  0.00  0.00    +0.000 C 
ATOM     23  C   UNL     1      -1.493  10.282  17.779  0.00  0.00    +0.000 C 
ENDBRANCH  20  22
ENDBRANCH  14  20
ENDBRANCH   1  17
TORSDOF 3
ENDMDL
MODEL 2
REMARK VINA RESULT:      -8.0      0.246      1.075
REMARK  Name = 
REMARK  6 active torsions:
REMARK  status: ('A' for Active; 'I' for Inactive)
REMARK    1  A    between atoms: C_1  and  C_2
REMARK    2  A    between atoms: C_2  and  C_3
REMARK    3  A    between atoms: C_2  and  O_4
REMARK    4  A    between atoms: O_4  and  C_5
REMARK    5  A    between atoms: C_8  and  C_9
REMARK    6  A    between atoms: C_11  and  C_12
REMARK                            x       y       z     vdW  Elec       q    Type
REMARK                         _______ _______ _______ _____ _____    ______ ____
ROOT
ATOM      1  C   UNL     1       3.080   5.708  19.615  0.00  0.00    +0.000 C 
ATOM      2  C   UNL     1       2.439   5.019  20.859  0.00  0.00    +0.000 C 
ATOM      3  C   UNL     1       1.989   3.595  20.457  0.00  0.00    +0.000 C 
ATOM      4  C   UNL     1       1.311   2.883  21.615  0.00  0.00    +0.000 C 
ATOM      5  N   UNL     1       1.112   3.703  19.317  0.00  0.00    +0.000 N 
ATOM      6  C   UNL     1       1.649   4.268  18.177  0.00  0.00    +0.000 C 
ATOM      7  O   UNL     1       1.020   4.407  17.138  0.00  0.00    +0.000 OA
ATOM      8  C   UNL     1       3.076   4.717  18.417  0.00  0.00    +0.000 C 
ATOM      9  C   UNL     1       3.826   3.483  18.917  0.00  0.00    +0.000 C 
ATOM     10  O   UNL     1       4.899   3.081  18.496  0.00  0.00    +0.000 OA
ATOM     11  N   UNL     1       3.156   2.895  19.980  0.00  0.00    +0.000 N 
ATOM     12  H   UNL     1       0.155   3.374  19.300  0.00  0.00    +0.000 HD
ATOM     13  H   UNL     1       3.569   2.096  20.444  0.00  0.00    +0.000 HD
ENDROOT
BRANCH   1  17
ATOM     14  C   UNL     1       1.053   9.484  18.876  0.00  0.00    +0.000 A 
ATOM     15  C   UNL     1       1.023   8.886  20.132  0.00  0.00    +0.000 A 
ATOM     16  C   UNL     1       1.720   7.696  20.371  0.00  0.00    +0.000 A 
ATOM     17  C   UNL     1       2.449   7.067  19.353  0.00  0.00    +0.000 A 
ATOM     18  C   UNL     1       2.485   7.690  18.097  0.00  0.00    +0.000 A 
ATOM     19  C   UNL     1       1.798   8.883  17.863  0.00  0.00    +0.000 A 
BRANCH  14  20
ATOM     20  O   UNL     1       0.394  10.619  18.499  0.00  0.00    +0.000 OA
BRANCH  20  22
ATOM     21  C   UNL     1      -1.410  12.146  18.705  0.00  0.00    +0.000 C 
ATOM     22  C   UNL     1      -1.029  10.671  18.634  0.00  0.00    +0.000 C 
ATOM     23  C   UNL     1      -1.692  10.011  17.428  0.00  0.00    +0.000 C 
ENDBRANCH  20  22
ENDBRANCH  14  20
ENDBRANCH   1  17
TORSDOF 3
ENDMDL
MODEL 3
REMARK VINA RESULT:      -7.7      1.284      1.402
REMARK  Name = 
REMARK  6 active torsions:
REMARK  status: ('A' for Active; 'I' for Inactive)
REMARK    1  A    between atoms: C_1  and  C_2
REMARK    2  A    between atoms: C_2  and  C_3
REMARK    3  A    between atoms: C_2  and  O_4
REMARK    4  A    between atoms: O_4  and  C_5
REMARK    5  A    between atoms: C_8  and  C_9
REMARK    6  A    between atoms: C_11  and  C_12
REMARK                            x       y       z     vdW  Elec       q    Type
REMARK                         _______ _______ _______ _____ _____    ______ ____
ROOT
ATOM      1  C   UNL     1       3.775   5.754  18.466  0.00  0.00    +0.000 C 
ATOM      2  C   UNL     1       3.943   4.923  19.775  0.00  0.00    +0.000 C 
ATOM      3  C   UNL     1       3.610   3.445  19.468  0.00  0.00    +0.000 C 
ATOM      4  C   UNL     1       3.710   2.585  20.717  0.00  0.00    +0.000 C 
ATOM      5  N   UNL     1       2.290   3.388  18.892  0.00  0.00    +0.000 N 
ATOM      6  C   UNL     1       2.104   4.074  17.707  0.00  0.00    +0.000 C 
ATOM      7  O   UNL     1       1.040   4.097  17.107  0.00  0.00    +0.000 OA
ATOM      8  C   UNL     1       3.367   4.806  17.303  0.00  0.00    +0.000 C 
ATOM      9  C   UNL     1       4.467   3.747  17.247  0.00  0.00    +0.000 C 
ATOM     10  O   UNL     1       5.256   3.585  16.329  0.00  0.00    +0.000 OA
ATOM     11  N   UNL     1       4.505   3.013  18.423  0.00  0.00    +0.000 N 
ATOM     12  H   UNL     1       1.517   2.867  19.286  0.00  0.00    +0.000 HD
ATOM     13  H   UNL     1       5.223   2.309  18.544  0.00  0.00    +0.000 HD
ENDROOT
BRANCH   1  17
ATOM     14  C   UNL     1       1.388   9.330  19.119  0.00  0.00    +0.000 A 
ATOM     15  C   UNL     1       2.040   9.113  17.909  0.00  0.00    +0.000 A 
ATOM     16  C   UNL     1       2.764   7.934  17.692  0.00  0.00    +0.000 A 
ATOM     17  C   UNL     1       2.869   6.956  18.689  0.00  0.00    +0.000 A 
ATOM     18  C   UNL     1       2.192   7.180  19.897  0.00  0.00    +0.000 A 
ATOM     19  C   UNL     1       1.460   8.351  20.107  0.00  0.00    +0.000 A 
BRANCH  14  20
ATOM     20  O   UNL     1       0.679  10.443  19.472  0.00  0.00    +0.000 OA
BRANCH  20  22
ATOM     21  C   UNL     1      -1.157  11.531  20.508  0.00  0.00    +0.000 C 
ATOM     22  C   UNL     1      -0.733  10.333  19.665  0.00  0.00    +0.000 C 
ATOM     23  C   UNL     1      -1.447  10.357  18.315  0.00  0.00    +0.000 C 
ENDBRANCH  20  22
ENDBRANCH  14  20
ENDBRANCH   1  17
TORSDOF 3
ENDMDL
MODEL 4
REMARK VINA RESULT:      -7.6      0.821      1.019
REMARK  Name = 
REMARK  6 active torsions:
REMARK  status: ('A' for Active; 'I' for Inactive)
REMARK    1  A    between atoms: C_1  and  C_2
REMARK    2  A    between atoms: C_2  and  C_3
REMARK    3  A    between atoms: C_2  and  O_4
REMARK    4  A    between atoms: O_4  and  C_5
REMARK    5  A    between atoms: C_8  and  C_9
REMARK    6  A    between atoms: C_11  and  C_12
REMARK                            x       y       z     vdW  Elec       q    Type
REMARK                         _______ _______ _______ _____ _____    ______ ____
ROOT
ATOM      1  C   UNL     1       3.008   5.719  19.667  0.00  0.00    +0.000 C 
ATOM      2  C   UNL     1       2.412   4.965  20.897  0.00  0.00    +0.000 C 
ATOM      3  C   UNL     1       2.052   3.525  20.465  0.00  0.00    +0.000 C 
ATOM      4  C   UNL     1       1.422   2.748  21.609  0.00  0.00    +0.000 C 
ATOM      5  N   UNL     1       1.169   3.600  19.328  0.00  0.00    +0.000 N 
ATOM      6  C   UNL     1       1.668   4.222  18.199  0.00  0.00    +0.000 C 
ATOM      7  O   UNL     1       1.031   4.342  17.164  0.00  0.00    +0.000 OA
ATOM      8  C   UNL     1       3.064   4.754  18.450  0.00  0.00    +0.000 C 
ATOM      9  C   UNL     1       3.891   3.560  18.924  0.00  0.00    +0.000 C 
ATOM     10  O   UNL     1       4.986   3.235  18.495  0.00  0.00    +0.000 OA
ATOM     11  N   UNL     1       3.261   2.910  19.974  0.00  0.00    +0.000 N 
ATOM     12  H   UNL     1       0.235   3.212  19.304  0.00  0.00    +0.000 HD
ATOM     13  H   UNL     1       3.723   2.129  20.422  0.00  0.00    +0.000 HD
ENDROOT
BRANCH   1  17
ATOM     14  C   UNL     1       1.180   9.606  18.984  0.00  0.00    +0.000 A 
ATOM     15  C   UNL     1       1.836   8.931  17.960  0.00  0.00    +0.000 A 
ATOM     16  C   UNL     1       2.377   7.658  18.178  0.00  0.00    +0.000 A 
ATOM     17  C   UNL     1       2.291   7.040  19.433  0.00  0.00    +0.000 A 
ATOM     18  C   UNL     1       1.611   7.725  20.452  0.00  0.00    +0.000 A 
ATOM     19  C   UNL     1       1.061   8.989  20.228  0.00  0.00    +0.000 A 
BRANCH  14  20
ATOM     20  O   UNL     1       0.640  10.858  18.917  0.00  0.00    +0.000 OA
BRANCH  20  22
ATOM     21  C   UNL     1       1.561  12.714  20.072  0.00  0.00    +0.000 C 
ATOM     22  C   UNL     1       0.501  11.618  20.121  0.00  0.00    +0.000 C 
ATOM     23  C   UNL     1      -0.894  12.234  20.192  0.00  0.00    +0.000 C 
ENDBRANCH  20  22
ENDBRANCH  14  20
ENDBRANCH   1  17
TORSDOF 3
ENDMDL
MODEL 5
REMARK VINA RESULT:      -7.6      0.754      1.434
REMARK  Name = 
REMARK  6 active torsions:
REMARK  status: ('A' for Active; 'I' for Inactive)
REMARK    1  A    between atoms: C_1  and  C_2
REMARK    2  A    between atoms: C_2  and  C_3
REMARK    3  A    between atoms: C_2  and  O_4
REMARK    4  A    between atoms: O_4  and  C_5
REMARK    5  A    between atoms: C_8  and  C_9
REMARK    6  A    between atoms: C_11  and  C_12
REMARK                            x       y       z     vdW  Elec       q    Type
REMARK                         _______ _______ _______ _____ _____    ______ ____
ROOT
ATOM      1  C   UNL     1       3.094   5.675  19.679  0.00  0.00    +0.000 C 
ATOM      2  C   UNL     1       2.423   5.003  20.916  0.00  0.00    +0.000 C 
ATOM      3  C   UNL     1       1.980   3.575  20.523  0.00  0.00    +0.000 C 
ATOM      4  C   UNL     1       1.274   2.879  21.675  0.00  0.00    +0.000 C 
ATOM      5  N   UNL     1       1.129   3.668  19.363  0.00  0.00    +0.000 N 
ATOM      6  C   UNL     1       1.694   4.218  18.227  0.00  0.00    +0.000 C 
ATOM      7  O   UNL     1       1.090   4.343  17.173  0.00  0.00    +0.000 OA
ATOM      8  C   UNL     1       3.116   4.668  18.495  0.00  0.00    +0.000 C 
ATOM      9  C   UNL     1       3.852   3.440  19.029  0.00  0.00    +0.000 C 
ATOM     10  O   UNL     1       4.933   3.030  18.637  0.00  0.00    +0.000 OA
ATOM     11  N   UNL     1       3.157   2.867  20.083  0.00  0.00    +0.000 N 
ATOM     12  H   UNL     1       0.173   3.340  19.328  0.00  0.00    +0.000 HD
ATOM     13  H   UNL     1       3.557   2.074  20.567  0.00  0.00    +0.000 HD
ENDROOT
BRANCH   1  17
ATOM     14  C   UNL     1       1.090   9.445  18.851  0.00  0.00    +0.000 A 
ATOM     15  C   UNL     1       1.067   8.884  20.124  0.00  0.00    +0.000 A 
ATOM     16  C   UNL     1       1.758   7.695  20.390  0.00  0.00    +0.000 A 
ATOM     17  C   UNL     1       2.471   7.031  19.384  0.00  0.00    +0.000 A 
ATOM     18  C   UNL     1       2.500   7.617  18.110  0.00  0.00    +0.000 A 
ATOM     19  C   UNL     1       1.820   8.809  17.849  0.00  0.00    +0.000 A 
BRANCH  14  20
ATOM     20  O   UNL     1       0.437  10.574  18.448  0.00  0.00    +0.000 OA
BRANCH  20  22
ATOM     21  C   UNL     1       1.930  12.396  18.724  0.00  0.00    +0.000 C 
ATOM     22  C   UNL     1       0.616  11.781  19.193  0.00  0.00    +0.000 C 
ATOM     23  C   UNL     1      -0.542  12.739  18.923  0.00  0.00    +0.000 C 
ENDBRANCH  20  22
ENDBRANCH  14  20
ENDBRANCH   1  17
TORSDOF 3
ENDMDL
MODEL 6
REMARK VINA RESULT:      -7.5      1.358      1.946
REMARK  Name = 
REMARK  6 active torsions:
REMARK  status: ('A' for Active; 'I' for Inactive)
REMARK    1  A    between atoms: C_1  and  C_2
REMARK    2  A    between atoms: C_2  and  C_3
REMARK    3  A    between atoms: C_2  and  O_4
REMARK    4  A    between atoms: O_4  and  C_5
REMARK    5  A    between atoms: C_8  and  C_9
REMARK    6  A    between atoms: C_11  and  C_12
REMARK                            x       y       z     vdW  Elec       q    Type
REMARK                         _______ _______ _______ _____ _____    ______ ____
ROOT
ATOM      1  C   UNL     1       3.878   5.774  18.433  0.00  0.00    +0.000 C 
ATOM      2  C   UNL     1       4.149   4.865  19.671  0.00  0.00    +0.000 C 
ATOM      3  C   UNL     1       3.792   3.407  19.299  0.00  0.00    +0.000 C 
ATOM      4  C   UNL     1       3.991   2.472  20.481  0.00  0.00    +0.000 C 
ATOM      5  N   UNL     1       2.429   3.381  18.829  0.00  0.00    +0.000 N 
ATOM      6  C   UNL     1       2.149   4.138  17.707  0.00  0.00    +0.000 C 
ATOM      7  O   UNL     1       1.041   4.195  17.197  0.00  0.00    +0.000 OA
ATOM      8  C   UNL     1       3.377   4.899  17.250  0.00  0.00    +0.000 C 
ATOM      9  C   UNL     1       4.468   3.850  17.040  0.00  0.00    +0.000 C 
ATOM     10  O   UNL     1       5.181   3.749  16.054  0.00  0.00    +0.000 OA
ATOM     11  N   UNL     1       4.600   3.045  18.161  0.00  0.00    +0.000 N 
ATOM     12  H   UNL     1       1.690   2.833  19.250  0.00  0.00    +0.000 HD
ATOM     13  H   UNL     1       5.324   2.337  18.180  0.00  0.00    +0.000 HD
ENDROOT
BRANCH   1  17
ATOM     14  C   UNL     1       1.157   9.002  19.480  0.00  0.00    +0.000 A 
ATOM     15  C   UNL     1       1.459   7.993  20.390  0.00  0.00    +0.000 A 
ATOM     16  C   UNL     1       2.374   6.987  20.059  0.00  0.00    +0.000 A 
ATOM     17  C   UNL     1       2.994   6.956  18.803  0.00  0.00    +0.000 A 
ATOM     18  C   UNL     1       2.695   7.990  17.903  0.00  0.00    +0.000 A 
ATOM     19  C   UNL     1       1.790   8.999  18.239  0.00  0.00    +0.000 A 
BRANCH  14  20
ATOM     20  O   UNL     1       0.262  10.018  19.660  0.00  0.00    +0.000 OA
BRANCH  20  22
ATOM     21  C   UNL     1      -1.698  10.267  18.348  0.00  0.00    +0.000 C 
ATOM     22  C   UNL     1      -0.247  10.703  18.512  0.00  0.00    +0.000 C 
ATOM     23  C   UNL     1      -0.169  12.213  18.729  0.00  0.00    +0.000 C 
ENDBRANCH  20  22
ENDBRANCH  14  20
ENDBRANCH   1  17
TORSDOF 3
ENDMDL
MODEL 7
REMARK VINA RESULT:      -7.5      3.337      4.373
REMARK  Name = 
REMARK  6 active torsions:
REMARK  status: ('A' for Active; 'I' for Inactive)
REMARK    1  A    between atoms: C_1  and  C_2
REMARK    2  A    between atoms: C_2  and  C_3
REMARK    3  A    between atoms: C_2  and  O_4
REMARK    4  A    between atoms: O_4  and  C_5
REMARK    5  A    between atoms: C_8  and  C_9
REMARK    6  A    between atoms: C_11  and  C_12
REMARK                            x       y       z     vdW  Elec       q    Type
REMARK                         _______ _______ _______ _____ _____    ______ ____
ROOT
ATOM      1  C   UNL     1       5.114   5.231  17.980  0.00  0.00    +0.000 C 
ATOM      2  C   UNL     1       4.890   4.566  16.587  0.00  0.00    +0.000 C 
ATOM      3  C   UNL     1       6.152   4.794  15.723  0.00  0.00    +0.000 C 
ATOM      4  C   UNL     1       5.981   4.207  14.332  0.00  0.00    +0.000 C 
ATOM      5  N   UNL     1       6.415   6.210  15.671  0.00  0.00    +0.000 N 
ATOM      6  C   UNL     1       6.662   6.837  16.877  0.00  0.00    +0.000 C 
ATOM      7  O   UNL     1       6.912   8.029  16.974  0.00  0.00    +0.000 OA
ATOM      8  C   UNL     1       6.535   5.860  18.029  0.00  0.00    +0.000 C 
ATOM      9  C   UNL     1       7.491   4.711  17.712  0.00  0.00    +0.000 C 
ATOM     10  O   UNL     1       8.309   4.232  18.481  0.00  0.00    +0.000 OA
ATOM     11  N   UNL     1       7.268   4.221  16.435  0.00  0.00    +0.000 N 
ATOM     12  H   UNL     1       6.450   6.753  14.817  0.00  0.00    +0.000 HD
ATOM     13  H   UNL     1       7.797   3.421  16.112  0.00  0.00    +0.000 HD
ENDROOT
BRANCH   1  17
ATOM     14  C   UNL     1       1.995   8.073  19.037  0.00  0.00    +0.000 A 
ATOM     15  C   UNL     1       2.689   8.181  17.836  0.00  0.00    +0.000 A 
ATOM     16  C   UNL     1       3.656   7.232  17.484  0.00  0.00    +0.000 A 
ATOM     17  C   UNL     1       3.965   6.163  18.335  0.00  0.00    +0.000 A 
ATOM     18  C   UNL     1       3.245   6.056  19.535  0.00  0.00    +0.000 A 
ATOM     19  C   UNL     1       2.272   6.997  19.879  0.00  0.00    +0.000 A 
BRANCH  14  20
ATOM     20  O   UNL     1       1.057   8.942  19.516  0.00  0.00    +0.000 OA
BRANCH  20  22
ATOM     21  C   UNL     1      -0.558  10.179  18.297  0.00  0.00    +0.000 C 
ATOM     22  C   UNL     1       0.864  10.191  18.846  0.00  0.00    +0.000 C 
ATOM     23  C   UNL     1       1.042  11.344  19.831  0.00  0.00    +0.000 C 
ENDBRANCH  20  22
ENDBRANCH  14  20
ENDBRANCH   1  17
TORSDOF 3
ENDMDL
MODEL 8
REMARK VINA RESULT:      -7.5      1.701      1.917
REMARK  Name = 
REMARK  6 active torsions:
REMARK  status: ('A' for Active; 'I' for Inactive)
REMARK    1  A    between atoms: C_1  and  C_2
REMARK    2  A    between atoms: C_2  and  C_3
REMARK    3  A    between atoms: C_2  and  O_4
REMARK    4  A    between atoms: O_4  and  C_5
REMARK    5  A    between atoms: C_8  and  C_9
REMARK    6  A    between atoms: C_11  and  C_12
REMARK                            x       y       z     vdW  Elec       q    Type
REMARK                         _______ _______ _______ _____ _____    ______ ____
ROOT
ATOM      1  C   UNL     1       3.749   5.802  18.466  0.00  0.00    +0.000 C 
ATOM      2  C   UNL     1       4.018   4.927  19.729  0.00  0.00    +0.000 C 
ATOM      3  C   UNL     1       3.746   3.448  19.371  0.00  0.00    +0.000 C 
ATOM      4  C   UNL     1       3.945   2.543  20.576  0.00  0.00    +0.000 C 
ATOM      5  N   UNL     1       2.405   3.346  18.852  0.00  0.00    +0.000 N 
ATOM      6  C   UNL     1       2.130   4.071  17.708  0.00  0.00    +0.000 C 
ATOM      7  O   UNL     1       1.040   4.065  17.156  0.00  0.00    +0.000 OA
ATOM      8  C   UNL     1       3.336   4.884  17.282  0.00  0.00    +0.000 C 
ATOM      9  C   UNL     1       4.484   3.886  17.131  0.00  0.00    +0.000 C 
ATOM     10  O   UNL     1       5.236   3.805  16.173  0.00  0.00    +0.000 OA
ATOM     11  N   UNL     1       4.612   3.107  18.270  0.00  0.00    +0.000 N 
ATOM     12  H   UNL     1       1.678   2.770  19.256  0.00  0.00    +0.000 HD
ATOM     13  H   UNL     1       5.368   2.436  18.328  0.00  0.00    +0.000 HD
ENDROOT
BRANCH   1  17
ATOM     14  C   UNL     1       1.218   9.221  19.375  0.00  0.00    +0.000 A 
ATOM     15  C   UNL     1       1.801   9.072  18.120  0.00  0.00    +0.000 A 
ATOM     16  C   UNL     1       2.573   7.942  17.824  0.00  0.00    +0.000 A 
ATOM     17  C   UNL     1       2.796   6.945  18.782  0.00  0.00    +0.000 A 
ATOM     18  C   UNL     1       2.187   7.099  20.037  0.00  0.00    +0.000 A 
ATOM     19  C   UNL     1       1.407   8.221  20.327  0.00  0.00    +0.000 A 
BRANCH  14  20
ATOM     20  O   UNL     1       0.475  10.282  19.806  0.00  0.00    +0.000 OA
BRANCH  20  22
ATOM     21  C   UNL     1       1.262  12.353  20.653  0.00  0.00    +0.000 C 
ATOM     22  C   UNL     1       0.841  10.935  21.024  0.00  0.00    +0.000 C 
ATOM     23  C   UNL     1      -0.351  10.969  21.977  0.00  0.00    +0.000 C 
ENDBRANCH  20  22
ENDBRANCH  14  20
ENDBRANCH   1  17
TORSDOF 3
ENDMDL
MODEL 9
REMARK VINA RESULT:      -7.4      3.778      6.531
REMARK  Name = 
REMARK  6 active torsions:
REMARK  status: ('A' for Active; 'I' for Inactive)
REMARK    1  A    between atoms: C_1  and  C_2
REMARK    2  A    between atoms: C_2  and  C_3
REMARK    3  A    between atoms: C_2  and  O_4
REMARK    4  A    between atoms: O_4  and  C_5
REMARK    5  A    between atoms: C_8  and  C_9
REMARK    6  A    between atoms: C_11  and  C_12
REMARK                            x       y       z     vdW  Elec       q    Type
REMARK                         _______ _______ _______ _____ _____    ______ ____
ROOT
ATOM      1  C   UNL     1       4.437   4.570  18.676  0.00  0.00    +0.000 C 
ATOM      2  C   UNL     1       4.045   6.007  19.141  0.00  0.00    +0.000 C 
ATOM      3  C   UNL     1       2.576   5.986  19.623  0.00  0.00    +0.000 C 
ATOM      4  C   UNL     1       2.115   7.370  20.049  0.00  0.00    +0.000 C 
ATOM      5  N   UNL     1       1.758   5.461  18.558  0.00  0.00    +0.000 N 
ATOM      6  C   UNL     1       2.039   4.174  18.141  0.00  0.00    +0.000 C 
ATOM      7  O   UNL     1       1.415   3.605  17.258  0.00  0.00    +0.000 OA
ATOM      8  C   UNL     1       3.231   3.613  18.889  0.00  0.00    +0.000 C 
ATOM      9  C   UNL     1       2.888   3.728  20.374  0.00  0.00    +0.000 C 
ATOM     10  O   UNL     1       2.996   2.838  21.202  0.00  0.00    +0.000 OA
ATOM     11  N   UNL     1       2.489   5.018  20.689  0.00  0.00    +0.000 N 
ATOM     12  H   UNL     1       0.992   5.962  18.127  0.00  0.00    +0.000 HD
ATOM     13  H   UNL     1       2.281   5.250  21.652  0.00  0.00    +0.000 HD
ENDROOT
BRANCH   1  17
ATOM     14  C   UNL     1       5.897   4.646  14.579  0.00  0.00    +0.000 A 
ATOM     15  C   UNL     1       5.406   5.796  15.188  0.00  0.00    +0.000 A 
ATOM     16  C   UNL     1       4.985   5.771  16.523  0.00  0.00    +0.000 A 
ATOM     17  C   UNL     1       5.028   4.589  17.274  0.00  0.00    +0.000 A 
ATOM     18  C   UNL     1       5.542   3.441  16.653  0.00  0.00    +0.000 A 
ATOM     19  C   UNL     1       5.973   3.471  15.325  0.00  0.00    +0.000 A 
BRANCH  14  20
ATOM     20  O   UNL     1       6.307   4.523  13.283  0.00  0.00    +0.000 OA
BRANCH  20  22
ATOM     21  C   UNL     1       4.703   3.497  11.867  0.00  0.00    +0.000 C 
ATOM     22  C   UNL     1       6.036   3.305  12.583  0.00  0.00    +0.000 C 
ATOM     23  C   UNL     1       7.145   3.027  11.571  0.00  0.00    +0.000 C 
ENDBRANCH  20  22
ENDBRANCH  14  20
ENDBRANCH   1  17
TORSDOF 3
ENDMDL
