MODEL 1
REMARK VINA RESULT:      -6.2      0.000      0.000
REMARK  Name = 
REMARK  4 active torsions:
REMARK  status: ('A' for Active; 'I' for Inactive)
REMARK    1  A    between atoms: C_1  and  C_2
REMARK    2  A    between atoms: C_3  and  C_4
REMARK    3  A    between atoms: C_6  and  C_7
REMARK    4  A    between atoms: C_9  and  C_10
REMARK                            x       y       z     vdW  Elec       q    Type
REMARK                         _______ _______ _______ _____ _____    ______ ____
ROOT
ATOM      1  C   UNL     1       2.169   2.205  19.573  0.00  0.00    +0.000 C 
ATOM      2  C   UNL     1       3.103   3.262  19.122  0.00  0.00    +0.000 A 
ATOM      3  C   UNL     1       2.919   4.393  18.406  0.00  0.00    +0.000 A 
ATOM      4  C   UNL     1       1.625   4.889  17.859  0.00  0.00    +0.000 C 
ATOM      5  N   UNL     1       4.114   5.059  18.237  0.00  0.00    +0.000 N 
ATOM      6  C   UNL     1       4.633   6.201  17.639  0.00  0.00    +0.000 A 
ATOM      7  C   UNL     1       5.972   6.253  17.865  0.00  0.00    +0.000 A 
ATOM      8  C   UNL     1       7.089   7.166  17.521  0.00  0.00    +0.000 C 
ATOM      9  C   UNL     1       6.318   5.023  18.679  0.00  0.00    +0.000 A 
ATOM     10  O   UNL     1       7.435   4.739  19.066  0.00  0.00    +0.000 OA
ATOM     11  N   UNL     1       5.109   4.355  18.856  0.00  0.00    +0.000 N 
ATOM     12  C   UNL     1       4.572   3.204  19.442  0.00  0.00    +0.000 A 
ATOM     13  O   UNL     1       5.105   2.316  20.079  0.00  0.00    +0.000 OA
ENDROOT
BRANCH   6  14
ATOM     14  C   UNL     1       3.682   7.098  16.908  0.00  0.00    +0.000 C 
ATOM     15 BR   UNL     1       2.627   8.351  17.922  0.00  0.00    +0.000 Br
ENDBRANCH   6  14
TORSDOF 1
ENDMDL
MODEL 2
REMARK VINA RESULT:      -6.1      3.218      4.173
REMARK  Name = 
REMARK  4 active torsions:
REMARK  status: ('A' for Active; 'I' for Inactive)
REMARK    1  A    between atoms: C_1  and  C_2
REMARK    2  A    between atoms: C_3  and  C_4
REMARK    3  A    between atoms: C_6  and  C_7
REMARK    4  A    between atoms: C_9  and  C_10
REMARK                            x       y       z     vdW  Elec       q    Type
REMARK                         _______ _______ _______ _____ _____    ______ ____
ROOT
ATOM      1  C   UNL     1       1.516   8.045  20.013  0.00  0.00    +0.000 C 
ATOM      2  C   UNL     1       2.437   7.174  19.248  0.00  0.00    +0.000 A 
ATOM      3  C   UNL     1       2.879   5.914  19.454  0.00  0.00    +0.000 A 
ATOM      4  C   UNL     1       2.511   5.027  20.594  0.00  0.00    +0.000 C 
ATOM      5  N   UNL     1       3.741   5.532  18.449  0.00  0.00    +0.000 N 
ATOM      6  C   UNL     1       4.522   4.452  18.055  0.00  0.00    +0.000 A 
ATOM      7  C   UNL     1       5.165   4.765  16.900  0.00  0.00    +0.000 A 
ATOM      8  C   UNL     1       6.115   4.096  15.979  0.00  0.00    +0.000 C 
ATOM      9  C   UNL     1       4.746   6.177  16.544  0.00  0.00    +0.000 A 
ATOM     10  O   UNL     1       5.130   6.790  15.566  0.00  0.00    +0.000 OA
ATOM     11  N   UNL     1       3.869   6.560  17.557  0.00  0.00    +0.000 N 
ATOM     12  C   UNL     1       3.087   7.642  17.975  0.00  0.00    +0.000 A 
ATOM     13  O   UNL     1       2.920   8.738  17.476  0.00  0.00    +0.000 OA
ENDROOT
BRANCH   6  14
ATOM     14  C   UNL     1       4.507   3.229  18.920  0.00  0.00    +0.000 C 
ATOM     15 BR   UNL     1       3.339   1.773  18.442  0.00  0.00    +0.000 Br
ENDBRANCH   6  14
TORSDOF 1
ENDMDL
MODEL 3
REMARK VINA RESULT:      -6.1      3.084      4.389
REMARK  Name = 
REMARK  4 active torsions:
REMARK  status: ('A' for Active; 'I' for Inactive)
REMARK    1  A    between atoms: C_1  and  C_2
REMARK    2  A    between atoms: C_3  and  C_4
REMARK    3  A    between atoms: C_6  and  C_7
REMARK    4  A    between atoms: C_9  and  C_10
REMARK                            x       y       z     vdW  Elec       q    Type
REMARK                         _______ _______ _______ _____ _____    ______ ____
ROOT
ATOM      1  C   UNL     1       5.904   3.985  16.046  0.00  0.00    +0.000 C 
ATOM      2  C   UNL     1       5.009   4.738  16.953  0.00  0.00    +0.000 A 
ATOM      3  C   UNL     1       4.374   4.396  18.094  0.00  0.00    +0.000 A 
ATOM      4  C   UNL     1       4.432   3.069  18.772  0.00  0.00    +0.000 C 
ATOM      5  N   UNL     1       3.640   5.458  18.579  0.00  0.00    +0.000 N 
ATOM      6  C   UNL     1       2.795   5.790  19.630  0.00  0.00    +0.000 A 
ATOM      7  C   UNL     1       2.393   7.080  19.489  0.00  0.00    +0.000 A 
ATOM      8  C   UNL     1       1.521   8.026  20.227  0.00  0.00    +0.000 C 
ATOM      9  C   UNL     1       3.049   7.598  18.225  0.00  0.00    +0.000 A 
ATOM     10  O   UNL     1       2.913   8.722  17.783  0.00  0.00    +0.000 OA
ATOM     11  N   UNL     1       3.796   6.526  17.741  0.00  0.00    +0.000 N 
ATOM     12  C   UNL     1       4.640   6.172  16.683  0.00  0.00    +0.000 A 
ATOM     13  O   UNL     1       5.031   6.818  15.730  0.00  0.00    +0.000 OA
ENDROOT
BRANCH   6  14
ATOM     14  C   UNL     1       2.507   4.734  20.653  0.00  0.00    +0.000 C 
ATOM     15 BR   UNL     1       1.026   3.539  20.356  0.00  0.00    +0.000 Br
ENDBRANCH   6  14
TORSDOF 1
ENDMDL
MODEL 4
REMARK VINA RESULT:      -6.1      1.475      1.638
REMARK  Name = 
REMARK  4 active torsions:
REMARK  status: ('A' for Active; 'I' for Inactive)
REMARK    1  A    between atoms: C_1  and  C_2
REMARK    2  A    between atoms: C_3  and  C_4
REMARK    3  A    between atoms: C_6  and  C_7
REMARK    4  A    between atoms: C_9  and  C_10
REMARK                            x       y       z     vdW  Elec       q    Type
REMARK                         _______ _______ _______ _____ _____    ______ ____
ROOT
ATOM      1  C   UNL     1       2.474   2.221  21.687  0.00  0.00    +0.000 C 
ATOM      2  C   UNL     1       2.934   3.151  20.631  0.00  0.00    +0.000 A 
ATOM      3  C   UNL     1       2.370   4.243  20.072  0.00  0.00    +0.000 A 
ATOM      4  C   UNL     1       1.041   4.823  20.417  0.00  0.00    +0.000 C 
ATOM      5  N   UNL     1       3.199   4.780  19.111  0.00  0.00    +0.000 N 
ATOM      6  C   UNL     1       3.250   5.825  18.196  0.00  0.00    +0.000 A 
ATOM      7  C   UNL     1       4.424   5.765  17.516  0.00  0.00    +0.000 A 
ATOM      8  C   UNL     1       5.090   6.542  16.442  0.00  0.00    +0.000 C 
ATOM      9  C   UNL     1       5.174   4.565  18.058  0.00  0.00    +0.000 A 
ATOM     10  O   UNL     1       6.271   4.202  17.679  0.00  0.00    +0.000 OA
ATOM     11  N   UNL     1       4.338   4.028  19.035  0.00  0.00    +0.000 N 
ATOM     12  C   UNL     1       4.265   2.975  19.953  0.00  0.00    +0.000 A 
ATOM     13  O   UNL     1       5.056   2.085  20.202  0.00  0.00    +0.000 OA
ENDROOT
BRANCH   6  14
ATOM     14  C   UNL     1       2.079   6.757  18.138  0.00  0.00    +0.000 C 
ATOM     15 BR   UNL     1       2.406   8.637  17.872  0.00  0.00    +0.000 Br
ENDBRANCH   6  14
TORSDOF 1
ENDMDL
MODEL 5
REMARK VINA RESULT:      -5.9      1.943      2.044
REMARK  Name = 
REMARK  4 active torsions:
REMARK  status: ('A' for Active; 'I' for Inactive)
REMARK    1  A    between atoms: C_1  and  C_2
REMARK    2  A    between atoms: C_3  and  C_4
REMARK    3  A    between atoms: C_6  and  C_7
REMARK    4  A    between atoms: C_9  and  C_10
REMARK                            x       y       z     vdW  Elec       q    Type
REMARK                         _______ _______ _______ _____ _____    ______ ____
ROOT
ATOM      1  C   UNL     1       1.645   2.225  20.553  0.00  0.00    +0.000 C 
ATOM      2  C   UNL     1       2.349   3.182  19.671  0.00  0.00    +0.000 A 
ATOM      3  C   UNL     1       2.405   4.531  19.653  0.00  0.00    +0.000 A 
ATOM      4  C   UNL     1       1.717   5.454  20.601  0.00  0.00    +0.000 C 
ATOM      5  N   UNL     1       3.205   4.971  18.620  0.00  0.00    +0.000 N 
ATOM      6  C   UNL     1       3.667   6.148  18.045  0.00  0.00    +0.000 A 
ATOM      7  C   UNL     1       4.462   5.844  16.985  0.00  0.00    +0.000 A 
ATOM      8  C   UNL     1       5.244   6.594  15.973  0.00  0.00    +0.000 C 
ATOM      9  C   UNL     1       4.492   4.332  16.892  0.00  0.00    +0.000 A 
ATOM     10  O   UNL     1       5.108   3.701  16.055  0.00  0.00    +0.000 OA
ATOM     11  N   UNL     1       3.690   3.889  17.941  0.00  0.00    +0.000 N 
ATOM     12  C   UNL     1       3.206   2.714  18.526  0.00  0.00    +0.000 A 
ATOM     13  O   UNL     1       3.391   1.548  18.233  0.00  0.00    +0.000 OA
ENDROOT
BRANCH   6  14
ATOM     14  C   UNL     1       3.233   7.443  18.661  0.00  0.00    +0.000 C 
ATOM     15 BR   UNL     1       1.929   8.516  17.734  0.00  0.00    +0.000 Br
ENDBRANCH   6  14
TORSDOF 1
ENDMDL
MODEL 6
REMARK VINA RESULT:      -5.9      2.927      3.377
REMARK  Name = 
REMARK  4 active torsions:
REMARK  status: ('A' for Active; 'I' for Inactive)
REMARK    1  A    between atoms: C_1  and  C_2
REMARK    2  A    between atoms: C_3  and  C_4
REMARK    3  A    between atoms: C_6  and  C_7
REMARK    4  A    between atoms: C_9  and  C_10
REMARK                            x       y       z     vdW  Elec       q    Type
REMARK                         _______ _______ _______ _____ _____    ______ ____
ROOT
ATOM      1  C   UNL     1       1.473   2.664  21.090  0.00  0.00    +0.000 C 
ATOM      2  C   UNL     1       2.168   3.488  20.075  0.00  0.00    +0.000 A 
ATOM      3  C   UNL     1       3.009   3.172  19.067  0.00  0.00    +0.000 A 
ATOM      4  C   UNL     1       3.471   1.802  18.702  0.00  0.00    +0.000 C 
ATOM      5  N   UNL     1       3.401   4.305  18.388  0.00  0.00    +0.000 N 
ATOM      6  C   UNL     1       4.206   4.697  17.325  0.00  0.00    +0.000 A 
ATOM      7  C   UNL     1       4.140   6.048  17.191  0.00  0.00    +0.000 A 
ATOM      8  C   UNL     1       4.730   7.073  16.296  0.00  0.00    +0.000 C 
ATOM      9  C   UNL     1       3.207   6.542  18.278  0.00  0.00    +0.000 A 
ATOM     10  O   UNL     1       2.911   7.707  18.462  0.00  0.00    +0.000 OA
ATOM     11  N   UNL     1       2.805   5.395  18.958  0.00  0.00    +0.000 N 
ATOM     12  C   UNL     1       2.009   4.984  20.032  0.00  0.00    +0.000 A 
ATOM     13  O   UNL     1       1.318   5.627  20.799  0.00  0.00    +0.000 OA
ENDROOT
BRANCH   6  14
ATOM     14  C   UNL     1       4.944   3.629  16.578  0.00  0.00    +0.000 C 
ATOM     15 BR   UNL     1       6.437   4.137  15.472  0.00  0.00    +0.000 Br
ENDBRANCH   6  14
TORSDOF 1
ENDMDL
MODEL 7
REMARK VINA RESULT:      -5.8      2.785      4.441
REMARK  Name = 
REMARK  4 active torsions:
REMARK  status: ('A' for Active; 'I' for Inactive)
REMARK    1  A    between atoms: C_1  and  C_2
REMARK    2  A    between atoms: C_3  and  C_4
REMARK    3  A    between atoms: C_6  and  C_7
REMARK    4  A    between atoms: C_9  and  C_10
REMARK                            x       y       z     vdW  Elec       q    Type
REMARK                         _______ _______ _______ _____ _____    ______ ____
ROOT
ATOM      1  C   UNL     1       2.331   8.927  18.039  0.00  0.00    +0.000 C 
ATOM      2  C   UNL     1       2.821   7.571  18.374  0.00  0.00    +0.000 A 
ATOM      3  C   UNL     1       3.724   6.759  17.782  0.00  0.00    +0.000 A 
ATOM      4  C   UNL     1       4.510   7.062  16.552  0.00  0.00    +0.000 C 
ATOM      5  N   UNL     1       3.839   5.574  18.477  0.00  0.00    +0.000 N 
ATOM      6  C   UNL     1       4.523   4.365  18.435  0.00  0.00    +0.000 A 
ATOM      7  C   UNL     1       4.134   3.596  19.485  0.00  0.00    +0.000 A 
ATOM      8  C   UNL     1       4.456   2.247  20.012  0.00  0.00    +0.000 C 
ATOM      9  C   UNL     1       3.107   4.404  20.251  0.00  0.00    +0.000 A 
ATOM     10  O   UNL     1       2.537   4.027  21.257  0.00  0.00    +0.000 OA
ATOM     11  N   UNL     1       2.997   5.604  19.553  0.00  0.00    +0.000 N 
ATOM     12  C   UNL     1       2.308   6.822  19.574  0.00  0.00    +0.000 A 
ATOM     13  O   UNL     1       1.475   7.248  20.350  0.00  0.00    +0.000 OA
ENDROOT
BRANCH   6  14
ATOM     14  C   UNL     1       5.496   4.153  17.315  0.00  0.00    +0.000 C 
ATOM     15 BR   UNL     1       7.337   4.652  17.582  0.00  0.00    +0.000 Br
ENDBRANCH   6  14
TORSDOF 1
ENDMDL
MODEL 8
REMARK VINA RESULT:      -5.7      2.840      4.430
REMARK  Name = 
REMARK  4 active torsions:
REMARK  status: ('A' for Active; 'I' for Inactive)
REMARK    1  A    between atoms: C_1  and  C_2
REMARK    2  A    between atoms: C_3  and  C_4
REMARK    3  A    between atoms: C_6  and  C_7
REMARK    4  A    between atoms: C_9  and  C_10
REMARK                            x       y       z     vdW  Elec       q    Type
REMARK                         _______ _______ _______ _____ _____    ______ ____
ROOT
ATOM      1  C   UNL     1       2.457   8.889  17.841  0.00  0.00    +0.000 C 
ATOM      2  C   UNL     1       2.824   7.526  18.286  0.00  0.00    +0.000 A 
ATOM      3  C   UNL     1       2.451   6.785  19.352  0.00  0.00    +0.000 A 
ATOM      4  C   UNL     1       1.499   7.198  20.422  0.00  0.00    +0.000 C 
ATOM      5  N   UNL     1       3.077   5.557  19.333  0.00  0.00    +0.000 N 
ATOM      6  C   UNL     1       3.162   4.382  20.070  0.00  0.00    +0.000 A 
ATOM      7  C   UNL     1       4.020   3.529  19.452  0.00  0.00    +0.000 A 
ATOM      8  C   UNL     1       4.545   2.163  19.694  0.00  0.00    +0.000 C 
ATOM      9  C   UNL     1       4.517   4.245  18.212  0.00  0.00    +0.000 A 
ATOM     10  O   UNL     1       5.306   3.780  17.412  0.00  0.00    +0.000 OA
ATOM     11  N   UNL     1       3.879   5.483  18.229  0.00  0.00    +0.000 N 
ATOM     12  C   UNL     1       3.790   6.677  17.505  0.00  0.00    +0.000 A 
ATOM     13  O   UNL     1       4.336   7.021  16.474  0.00  0.00    +0.000 OA
ENDROOT
BRANCH   6  14
ATOM     14  C   UNL     1       2.347   4.285  21.323  0.00  0.00    +0.000 C 
ATOM     15 BR   UNL     1       1.416   2.640  21.696  0.00  0.00    +0.000 Br
ENDBRANCH   6  14
TORSDOF 1
ENDMDL
MODEL 9
REMARK VINA RESULT:      -5.6      2.130      3.571
REMARK  Name = 
REMARK  4 active torsions:
REMARK  status: ('A' for Active; 'I' for Inactive)
REMARK    1  A    between atoms: C_1  and  C_2
REMARK    2  A    between atoms: C_3  and  C_4
REMARK    3  A    between atoms: C_6  and  C_7
REMARK    4  A    between atoms: C_9  and  C_10
REMARK                            x       y       z     vdW  Elec       q    Type
REMARK                         _______ _______ _______ _____ _____    ______ ____
ROOT
ATOM      1  C   UNL     1       5.749   3.529  15.506  0.00  0.00    +0.000 C 
ATOM      2  C   UNL     1       4.887   4.198  16.507  0.00  0.00    +0.000 A 
ATOM      3  C   UNL     1       4.564   5.494  16.709  0.00  0.00    +0.000 A 
ATOM      4  C   UNL     1       5.035   6.655  15.902  0.00  0.00    +0.000 C 
ATOM      5  N   UNL     1       3.715   5.621  17.787  0.00  0.00    +0.000 N 
ATOM      6  C   UNL     1       3.040   6.593  18.515  0.00  0.00    +0.000 A 
ATOM      7  C   UNL     1       2.344   5.995  19.518  0.00  0.00    +0.000 A 
ATOM      8  C   UNL     1       1.450   6.430  20.618  0.00  0.00    +0.000 C 
ATOM      9  C   UNL     1       2.616   4.509  19.403  0.00  0.00    +0.000 A 
ATOM     10  O   UNL     1       2.155   3.660  20.141  0.00  0.00    +0.000 OA
ATOM     11  N   UNL     1       3.468   4.381  18.308  0.00  0.00    +0.000 N 
ATOM     12  C   UNL     1       4.164   3.417  17.571  0.00  0.00    +0.000 A 
ATOM     13  O   UNL     1       4.220   2.209  17.700  0.00  0.00    +0.000 OA
ENDROOT
BRANCH   6  14
ATOM     14  C   UNL     1       3.196   8.019  18.086  0.00  0.00    +0.000 C 
ATOM     15 BR   UNL     1       1.618   9.109  17.908  0.00  0.00    +0.000 Br
ENDBRANCH   6  14
TORSDOF 1
ENDMDL
