MODEL 1
REMARK VINA RESULT:      -8.1      0.000      0.000
REMARK  Name = 
REMARK  8 active torsions:
REMARK  status: ('A' for Active; 'I' for Inactive)
REMARK    1  A    between atoms: C_1  and  O_2
REMARK    2  A    between atoms: O_2  and  C_3
REMARK    3  A    between atoms: N_13  and  C_14
REMARK    4  A    between atoms: C_14  and  C_15
REMARK    5  A    between atoms: C_15  and  C_16
REMARK    6  A    between atoms: C_16  and  N_17
REMARK    7  A    between atoms: N_20  and  C_21
REMARK    8  A    between atoms: C_25  and  C_26
REMARK                            x       y       z     vdW  Elec       q    Type
REMARK                         _______ _______ _______ _____ _____    ______ ____
ROOT
ATOM      1  C   UNL     1       1.459   5.484  19.968  0.00  0.00    +0.000 C 
ENDROOT
BRANCH   1   2
ATOM      2  C   UNL     1       2.389   6.623  20.400  0.00  0.00    +0.000 C 
BRANCH   2  13
ATOM      3  C   UNL     1      -0.480  10.646  20.652  0.00  0.00    +0.000 A 
ATOM      4  C   UNL     1      -0.604  10.472  22.034  0.00  0.00    +0.000 A 
ATOM      5  C   UNL     1       0.143   9.506  22.689  0.00  0.00    +0.000 A 
ATOM      6  C   UNL     1       0.991   8.674  21.965  0.00  0.00    +0.000 A 
ATOM      7  C   UNL     1       1.110   8.794  20.572  0.00  0.00    +0.000 A 
ATOM      8  C   UNL     1       0.375   9.801  19.912  0.00  0.00    +0.000 A 
ATOM      9  C   UNL     1       0.477   9.905  18.412  0.00  0.00    +0.000 C 
ATOM     10  C   UNL     1       1.873   9.528  17.964  0.00  0.00    +0.000 C 
ATOM     11  C   UNL     1       2.252   8.160  18.482  0.00  0.00    +0.000 C 
ATOM     12  O   UNL     1       2.867   7.370  17.763  0.00  0.00    +0.000 OA
ATOM     13  N   UNL     1       1.953   7.910  19.822  0.00  0.00    +0.000 N 
BRANCH   3  15
ATOM     14  C   UNL     1      -2.167  12.287  20.758  0.00  0.00    +0.000 C 
ATOM     15  O   UNL     1      -1.185  11.607  19.972  0.00  0.00    +0.000 OA
ENDBRANCH   3  15
ENDBRANCH   2  13
ENDBRANCH   1   2
BRANCH   1  16
ATOM     16  C   UNL     1       1.723   4.130  20.646  0.00  0.00    +0.000 C 
BRANCH  16  17
ATOM     17  N   UNL     1       2.296   3.071  19.800  0.00  0.00    +0.000 NA
ATOM     18  C   UNL     1       2.012   3.216  18.352  0.00  0.00    +0.000 C 
ATOM     19  C   UNL     1       2.780   4.327  17.589  0.00  0.00    +0.000 C 
ATOM     20  N   UNL     1       4.221   4.228  17.860  0.00  0.00    +0.000 N 
ATOM     21  C   UNL     1       4.576   4.143  19.286  0.00  0.00    +0.000 C 
ATOM     22  C   UNL     1       3.775   3.006  19.970  0.00  0.00    +0.000 C 
BRANCH  20  23
ATOM     23  C   UNL     1       5.168   4.356  16.866  0.00  0.00    +0.000 A 
ATOM     24  C   UNL     1       6.468   4.809  17.150  0.00  0.00    +0.000 A 
ATOM     25  C   UNL     1       7.458   4.891  16.167  0.00  0.00    +0.000 A 
ATOM     26  C   UNL     1       7.173   4.524  14.857  0.00  0.00    +0.000 A 
ATOM     27  C   UNL     1       5.891   4.077  14.538  0.00  0.00    +0.000 A 
ATOM     28  C   UNL     1       4.906   3.997  15.531  0.00  0.00    +0.000 A 
BRANCH  27  29
ATOM     29  C   UNL     1       5.583   3.693  13.187  0.00  0.00    +0.000 C 
ATOM     30  N   UNL     1       5.330   3.386  12.100  0.00  0.00    +0.000 NA
ENDBRANCH  27  29
ENDBRANCH  20  23
ENDBRANCH  16  17
ENDBRANCH   1  16
TORSDOF 7
ENDMDL
MODEL 2
REMARK VINA RESULT:      -7.7      3.029     10.113
REMARK  Name = 
REMARK  8 active torsions:
REMARK  status: ('A' for Active; 'I' for Inactive)
REMARK    1  A    between atoms: C_1  and  O_2
REMARK    2  A    between atoms: O_2  and  C_3
REMARK    3  A    between atoms: N_13  and  C_14
REMARK    4  A    between atoms: C_14  and  C_15
REMARK    5  A    between atoms: C_15  and  C_16
REMARK    6  A    between atoms: C_16  and  N_17
REMARK    7  A    between atoms: N_20  and  C_21
REMARK    8  A    between atoms: C_25  and  C_26
REMARK                            x       y       z     vdW  Elec       q    Type
REMARK                         _______ _______ _______ _____ _____    ______ ____
ROOT
ATOM      1  C   UNL     1       1.642   8.814  17.745  0.00  0.00    +0.000 C 
ENDROOT
BRANCH   1   2
ATOM      2  C   UNL     1       2.720   8.413  18.759  0.00  0.00    +0.000 C 
BRANCH   2  13
ATOM      3  C   UNL     1       3.259   3.645  17.553  0.00  0.00    +0.000 A 
ATOM      4  C   UNL     1       4.218   3.995  16.596  0.00  0.00    +0.000 A 
ATOM      5  C   UNL     1       4.677   5.299  16.508  0.00  0.00    +0.000 A 
ATOM      6  C   UNL     1       4.154   6.278  17.346  0.00  0.00    +0.000 A 
ATOM      7  C   UNL     1       3.163   5.971  18.291  0.00  0.00    +0.000 A 
ATOM      8  C   UNL     1       2.722   4.636  18.402  0.00  0.00    +0.000 A 
ATOM      9  C   UNL     1       1.633   4.315  19.393  0.00  0.00    +0.000 C 
ATOM     10  C   UNL     1       1.767   5.204  20.611  0.00  0.00    +0.000 C 
ATOM     11  C   UNL     1       1.783   6.662  20.213  0.00  0.00    +0.000 C 
ATOM     12  O   UNL     1       1.174   7.498  20.883  0.00  0.00    +0.000 OA
ATOM     13  N   UNL     1       2.596   6.988  19.127  0.00  0.00    +0.000 N 
BRANCH   3  15
ATOM     14  C   UNL     1       3.648   1.504  18.453  0.00  0.00    +0.000 C 
ATOM     15  O   UNL     1       2.797   2.360  17.687  0.00  0.00    +0.000 OA
ENDBRANCH   3  15
ENDBRANCH   2  13
ENDBRANCH   1   2
BRANCH   1  16
ATOM     16  C   UNL     1       0.494   9.664  18.313  0.00  0.00    +0.000 C 
BRANCH  16  17
ATOM     17  N   UNL     1       0.841  11.021  18.766  0.00  0.00    +0.000 NA
ATOM     18  C   UNL     1      -0.260  12.008  18.659  0.00  0.00    +0.000 C 
ATOM     19  C   UNL     1      -1.415  11.893  19.688  0.00  0.00    +0.000 C 
ATOM     20  N   UNL     1      -0.875  11.816  21.053  0.00  0.00    +0.000 N 
ATOM     21  C   UNL     1       0.181  10.809  21.242  0.00  0.00    +0.000 C 
ATOM     22  C   UNL     1       1.298  11.000  20.184  0.00  0.00    +0.000 C 
BRANCH  20  23
ATOM     23  C   UNL     1      -1.421  12.525  22.102  0.00  0.00    +0.000 A 
ATOM     24  C   UNL     1      -0.802  13.684  22.599  0.00  0.00    +0.000 A 
ATOM     25  C   UNL     1      -1.368  14.450  23.622  0.00  0.00    +0.000 A 
ATOM     26  C   UNL     1      -2.581  14.071  24.187  0.00  0.00    +0.000 A 
ATOM     27  C   UNL     1      -3.219  12.922  23.723  0.00  0.00    +0.000 A 
ATOM     28  C   UNL     1      -2.643  12.163  22.696  0.00  0.00    +0.000 A 
BRANCH  27  29
ATOM     29  C   UNL     1      -4.474  12.518  24.298  0.00  0.00    +0.000 C 
ATOM     30  N   UNL     1      -5.486  12.196  24.758  0.00  0.00    +0.000 NA
ENDBRANCH  27  29
ENDBRANCH  20  23
ENDBRANCH  16  17
ENDBRANCH   1  16
TORSDOF 7
ENDMDL
MODEL 3
REMARK VINA RESULT:      -7.7      3.008     10.062
REMARK  Name = 
REMARK  8 active torsions:
REMARK  status: ('A' for Active; 'I' for Inactive)
REMARK    1  A    between atoms: C_1  and  O_2
REMARK    2  A    between atoms: O_2  and  C_3
REMARK    3  A    between atoms: N_13  and  C_14
REMARK    4  A    between atoms: C_14  and  C_15
REMARK    5  A    between atoms: C_15  and  C_16
REMARK    6  A    between atoms: C_16  and  N_17
REMARK    7  A    between atoms: N_20  and  C_21
REMARK    8  A    between atoms: C_25  and  C_26
REMARK                            x       y       z     vdW  Elec       q    Type
REMARK                         _______ _______ _______ _____ _____    ______ ____
ROOT
ATOM      1  C   UNL     1       2.057   6.304  20.478  0.00  0.00    +0.000 C 
ENDROOT
BRANCH   1   2
ATOM      2  C   UNL     1       1.581   5.425  19.316  0.00  0.00    +0.000 C 
BRANCH   2  13
ATOM      3  C   UNL     1       5.285   4.481  16.174  0.00  0.00    +0.000 A 
ATOM      4  C   UNL     1       5.420   5.850  15.920  0.00  0.00    +0.000 A 
ATOM      5  C   UNL     1       4.698   6.774  16.659  0.00  0.00    +0.000 A 
ATOM      6  C   UNL     1       3.803   6.340  17.630  0.00  0.00    +0.000 A 
ATOM      7  C   UNL     1       3.612   4.973  17.884  0.00  0.00    +0.000 A 
ATOM      8  C   UNL     1       4.373   4.036  17.155  0.00  0.00    +0.000 A 
ATOM      9  C   UNL     1       4.142   2.567  17.404  0.00  0.00    +0.000 C 
ATOM     10  C   UNL     1       3.799   2.340  18.861  0.00  0.00    +0.000 C 
ATOM     11  C   UNL     1       2.623   3.195  19.274  0.00  0.00    +0.000 C 
ATOM     12  O   UNL     1       1.748   2.736  20.011  0.00  0.00    +0.000 OA
ATOM     13  N   UNL     1       2.659   4.526  18.857  0.00  0.00    +0.000 N 
BRANCH   3  15
ATOM     14  C   UNL     1       6.245   3.869  14.112  0.00  0.00    +0.000 C 
ATOM     15  O   UNL     1       6.000   3.537  15.481  0.00  0.00    +0.000 OA
ENDBRANCH   3  15
ENDBRANCH   2  13
ENDBRANCH   1   2
BRANCH   1  16
ATOM     16  C   UNL     1       1.056   7.375  20.940  0.00  0.00    +0.000 C 
BRANCH  16  17
ATOM     17  N   UNL     1       1.583   8.739  21.108  0.00  0.00    +0.000 NA
ATOM     18  C   UNL     1       0.905   9.767  20.283  0.00  0.00    +0.000 C 
ATOM     19  C   UNL     1      -0.520  10.197  20.719  0.00  0.00    +0.000 C 
ATOM     20  N   UNL     1      -0.533  10.542  22.148  0.00  0.00    +0.000 N 
ATOM     21  C   UNL     1       0.071   9.531  23.031  0.00  0.00    +0.000 C 
ATOM     22  C   UNL     1       1.492   9.166  22.533  0.00  0.00    +0.000 C 
BRANCH  20  23
ATOM     23  C   UNL     1      -1.193  11.652  22.632  0.00  0.00    +0.000 A 
ATOM     24  C   UNL     1      -0.625  12.934  22.541  0.00  0.00    +0.000 A 
ATOM     25  C   UNL     1      -1.302  14.079  22.973  0.00  0.00    +0.000 A 
ATOM     26  C   UNL     1      -2.576  13.971  23.518  0.00  0.00    +0.000 A 
ATOM     27  C   UNL     1      -3.166  12.713  23.631  0.00  0.00    +0.000 A 
ATOM     28  C   UNL     1      -2.480  11.573  23.194  0.00  0.00    +0.000 A 
BRANCH  27  29
ATOM     29  C   UNL     1      -4.483  12.588  24.193  0.00  0.00    +0.000 C 
ATOM     30  N   UNL     1      -5.545  12.485  24.643  0.00  0.00    +0.000 NA
ENDBRANCH  27  29
ENDBRANCH  20  23
ENDBRANCH  16  17
ENDBRANCH   1  16
TORSDOF 7
ENDMDL
MODEL 4
REMARK VINA RESULT:      -7.6      2.881      9.770
REMARK  Name = 
REMARK  8 active torsions:
REMARK  status: ('A' for Active; 'I' for Inactive)
REMARK    1  A    between atoms: C_1  and  O_2
REMARK    2  A    between atoms: O_2  and  C_3
REMARK    3  A    between atoms: N_13  and  C_14
REMARK    4  A    between atoms: C_14  and  C_15
REMARK    5  A    between atoms: C_15  and  C_16
REMARK    6  A    between atoms: C_16  and  N_17
REMARK    7  A    between atoms: N_20  and  C_21
REMARK    8  A    between atoms: C_25  and  C_26
REMARK                            x       y       z     vdW  Elec       q    Type
REMARK                         _______ _______ _______ _____ _____    ______ ____
ROOT
ATOM      1  C   UNL     1       2.039   8.372  17.678  0.00  0.00    +0.000 C 
ENDROOT
BRANCH   1   2
ATOM      2  C   UNL     1       3.312   7.881  18.378  0.00  0.00    +0.000 C 
BRANCH   2  13
ATOM      3  C   UNL     1       3.382   3.146  19.808  0.00  0.00    +0.000 A 
ATOM      4  C   UNL     1       2.444   3.433  20.806  0.00  0.00    +0.000 A 
ATOM      5  C   UNL     1       1.845   4.680  20.867  0.00  0.00    +0.000 A 
ATOM      6  C   UNL     1       2.207   5.670  19.960  0.00  0.00    +0.000 A 
ATOM      7  C   UNL     1       3.174   5.431  18.971  0.00  0.00    +0.000 A 
ATOM      8  C   UNL     1       3.756   4.149  18.889  0.00  0.00    +0.000 A 
ATOM      9  C   UNL     1       4.819   3.903  17.849  0.00  0.00    +0.000 C 
ATOM     10  C   UNL     1       4.519   4.713  16.605  0.00  0.00    +0.000 C 
ATOM     11  C   UNL     1       4.360   6.177  16.944  0.00  0.00    +0.000 C 
ATOM     12  O   UNL     1       4.833   7.043  16.205  0.00  0.00    +0.000 OA
ATOM     13  N   UNL     1       3.575   6.463  18.062  0.00  0.00    +0.000 N 
BRANCH   3  15
ATOM     14  C   UNL     1       4.849   1.583  20.784  0.00  0.00    +0.000 C 
ATOM     15  O   UNL     1       3.978   1.914  19.700  0.00  0.00    +0.000 OA
ENDBRANCH   3  15
ENDBRANCH   2  13
ENDBRANCH   1   2
BRANCH   1  16
ATOM     16  C   UNL     1       1.395   9.625  18.294  0.00  0.00    +0.000 C 
BRANCH  16  17
ATOM     17  N   UNL     1       0.108   9.433  18.980  0.00  0.00    +0.000 NA
ATOM     18  C   UNL     1       0.213   9.239  20.446  0.00  0.00    +0.000 C 
ATOM     19  C   UNL     1       0.555  10.486  21.303  0.00  0.00    +0.000 C 
ATOM     20  N   UNL     1      -0.340  11.600  20.958  0.00  0.00    +0.000 N 
ATOM     21  C   UNL     1      -0.440  11.887  19.519  0.00  0.00    +0.000 C 
ATOM     22  C   UNL     1      -0.794  10.595  18.739  0.00  0.00    +0.000 C 
BRANCH  20  23
ATOM     23  C   UNL     1      -0.917  12.405  21.918  0.00  0.00    +0.000 A 
ATOM     24  C   UNL     1      -0.381  13.666  22.231  0.00  0.00    +0.000 A 
ATOM     25  C   UNL     1      -0.984  14.521  23.158  0.00  0.00    +0.000 A 
ATOM     26  C   UNL     1      -2.148  14.132  23.811  0.00  0.00    +0.000 A 
ATOM     27  C   UNL     1      -2.703  12.884  23.531  0.00  0.00    +0.000 A 
ATOM     28  C   UNL     1      -2.091  12.036  22.598  0.00  0.00    +0.000 A 
BRANCH  27  29
ATOM     29  C   UNL     1      -3.907  12.469  24.199  0.00  0.00    +0.000 C 
ATOM     30  N   UNL     1      -4.875  12.131  24.736  0.00  0.00    +0.000 NA
ENDBRANCH  27  29
ENDBRANCH  20  23
ENDBRANCH  16  17
ENDBRANCH   1  16
TORSDOF 7
ENDMDL
MODEL 5
REMARK VINA RESULT:      -7.6      3.155      5.569
REMARK  Name = 
REMARK  8 active torsions:
REMARK  status: ('A' for Active; 'I' for Inactive)
REMARK    1  A    between atoms: C_1  and  O_2
REMARK    2  A    between atoms: O_2  and  C_3
REMARK    3  A    between atoms: N_13  and  C_14
REMARK    4  A    between atoms: C_14  and  C_15
REMARK    5  A    between atoms: C_15  and  C_16
REMARK    6  A    between atoms: C_16  and  N_17
REMARK    7  A    between atoms: N_20  and  C_21
REMARK    8  A    between atoms: C_25  and  C_26
REMARK                            x       y       z     vdW  Elec       q    Type
REMARK                         _______ _______ _______ _____ _____    ______ ____
ROOT
ATOM      1  C   UNL     1      -0.977  10.223  18.370  0.00  0.00    +0.000 C 
ENDROOT
BRANCH   1   2
ATOM      2  C   UNL     1      -1.424  11.689  18.338  0.00  0.00    +0.000 C 
BRANCH   2  13
ATOM      3  C   UNL     1      -5.997  12.081  20.186  0.00  0.00    +0.000 A 
ATOM      4  C   UNL     1      -5.474  12.621  21.366  0.00  0.00    +0.000 A 
ATOM      5  C   UNL     1      -4.128  12.935  21.457  0.00  0.00    +0.000 A 
ATOM      6  C   UNL     1      -3.280  12.676  20.387  0.00  0.00    +0.000 A 
ATOM      7  C   UNL     1      -3.761  12.098  19.202  0.00  0.00    +0.000 A 
ATOM      8  C   UNL     1      -5.138  11.811  19.098  0.00  0.00    +0.000 A 
ATOM      9  C   UNL     1      -5.648  11.158  17.839  0.00  0.00    +0.000 C 
ATOM     10  C   UNL     1      -4.855  11.651  16.647  0.00  0.00    +0.000 C 
ATOM     11  C   UNL     1      -3.375  11.433  16.860  0.00  0.00    +0.000 C 
ATOM     12  O   UNL     1      -2.663  11.044  15.933  0.00  0.00    +0.000 OA
ATOM     13  N   UNL     1      -2.880  11.794  18.114  0.00  0.00    +0.000 N 
BRANCH   3  15
ATOM     14  C   UNL     1      -7.868  10.992  21.114  0.00  0.00    +0.000 C 
ATOM     15  O   UNL     1      -7.329  11.778  20.049  0.00  0.00    +0.000 OA
ENDBRANCH   3  15
ENDBRANCH   2  13
ENDBRANCH   1   2
BRANCH   1  16
ATOM     16  C   UNL     1      -0.414   9.739  19.716  0.00  0.00    +0.000 C 
BRANCH  16  17
ATOM     17  N   UNL     1       1.047   9.799  19.878  0.00  0.00    +0.000 NA
ATOM     18  C   UNL     1       1.608   8.783  20.800  0.00  0.00    +0.000 C 
ATOM     19  C   UNL     1       1.661   7.318  20.293  0.00  0.00    +0.000 C 
ATOM     20  N   UNL     1       2.291   7.263  18.965  0.00  0.00    +0.000 N 
ATOM     21  C   UNL     1       1.736   8.205  17.981  0.00  0.00    +0.000 C 
ATOM     22  C   UNL     1       1.729   9.643  18.561  0.00  0.00    +0.000 C 
BRANCH  20  23
ATOM     23  C   UNL     1       3.221   6.301  18.631  0.00  0.00    +0.000 A 
ATOM     24  C   UNL     1       3.052   4.959  19.014  0.00  0.00    +0.000 A 
ATOM     25  C   UNL     1       3.952   3.959  18.636  0.00  0.00    +0.000 A 
ATOM     26  C   UNL     1       5.062   4.277  17.862  0.00  0.00    +0.000 A 
ATOM     27  C   UNL     1       5.265   5.599  17.470  0.00  0.00    +0.000 A 
ATOM     28  C   UNL     1       4.355   6.594  17.853  0.00  0.00    +0.000 A 
BRANCH  27  29
ATOM     29  C   UNL     1       6.409   5.941  16.669  0.00  0.00    +0.000 C 
ATOM     30  N   UNL     1       7.332   6.214  16.026  0.00  0.00    +0.000 NA
ENDBRANCH  27  29
ENDBRANCH  20  23
ENDBRANCH  16  17
ENDBRANCH   1  16
TORSDOF 7
ENDMDL
MODEL 6
REMARK VINA RESULT:      -7.5      3.432      9.203
REMARK  Name = 
REMARK  8 active torsions:
REMARK  status: ('A' for Active; 'I' for Inactive)
REMARK    1  A    between atoms: C_1  and  O_2
REMARK    2  A    between atoms: O_2  and  C_3
REMARK    3  A    between atoms: N_13  and  C_14
REMARK    4  A    between atoms: C_14  and  C_15
REMARK    5  A    between atoms: C_15  and  C_16
REMARK    6  A    between atoms: C_16  and  N_17
REMARK    7  A    between atoms: N_20  and  C_21
REMARK    8  A    between atoms: C_25  and  C_26
REMARK                            x       y       z     vdW  Elec       q    Type
REMARK                         _______ _______ _______ _____ _____    ______ ____
ROOT
ATOM      1  C   UNL     1       2.286   7.214  19.303  0.00  0.00    +0.000 C 
ENDROOT
BRANCH   1   2
ATOM      2  C   UNL     1       2.836   5.986  20.038  0.00  0.00    +0.000 C 
BRANCH   2  13
ATOM      3  C   UNL     1       5.910   4.217  16.588  0.00  0.00    +0.000 A 
ATOM      4  C   UNL     1       6.939   5.019  17.093  0.00  0.00    +0.000 A 
ATOM      5  C   UNL     1       6.759   5.734  18.266  0.00  0.00    +0.000 A 
ATOM      6  C   UNL     1       5.536   5.691  18.925  0.00  0.00    +0.000 A 
ATOM      7  C   UNL     1       4.468   4.929  18.426  0.00  0.00    +0.000 A 
ATOM      8  C   UNL     1       4.664   4.175  17.251  0.00  0.00    +0.000 A 
ATOM      9  C   UNL     1       3.507   3.385  16.697  0.00  0.00    +0.000 C 
ATOM     10  C   UNL     1       2.648   2.866  17.831  0.00  0.00    +0.000 C 
ATOM     11  C   UNL     1       2.206   3.998  18.730  0.00  0.00    +0.000 C 
ATOM     12  O   UNL     1       1.058   4.026  19.178  0.00  0.00    +0.000 OA
ATOM     13  N   UNL     1       3.195   4.917  19.085  0.00  0.00    +0.000 N 
BRANCH   3  15
ATOM     14  C   UNL     1       6.556   4.212  14.323  0.00  0.00    +0.000 C 
ATOM     15  O   UNL     1       6.058   3.476  15.442  0.00  0.00    +0.000 OA
ENDBRANCH   3  15
ENDBRANCH   2  13
ENDBRANCH   1   2
BRANCH   1  16
ATOM     16  C   UNL     1       1.790   8.351  20.210  0.00  0.00    +0.000 C 
BRANCH  16  17
ATOM     17  N   UNL     1       0.609   9.096  19.746  0.00  0.00    +0.000 NA
ATOM     18  C   UNL     1       0.139  10.151  20.675  0.00  0.00    +0.000 C 
ATOM     19  C   UNL     1       0.993  11.442  20.771  0.00  0.00    +0.000 C 
ATOM     20  N   UNL     1       1.263  11.974  19.427  0.00  0.00    +0.000 N 
ATOM     21  C   UNL     1       1.792  10.990  18.470  0.00  0.00    +0.000 C 
ATOM     22  C   UNL     1       0.878   9.739  18.428  0.00  0.00    +0.000 C 
BRANCH  20  23
ATOM     23  C   UNL     1       1.170  13.318  19.135  0.00  0.00    +0.000 A 
ATOM     24  C   UNL     1      -0.078  13.956  19.025  0.00  0.00    +0.000 A 
ATOM     25  C   UNL     1      -0.193  15.328  18.787  0.00  0.00    +0.000 A 
ATOM     26  C   UNL     1       0.948  16.110  18.645  0.00  0.00    +0.000 A 
ATOM     27  C   UNL     1       2.202  15.509  18.741  0.00  0.00    +0.000 A 
ATOM     28  C   UNL     1       2.306  14.132  18.981  0.00  0.00    +0.000 A 
BRANCH  27  29
ATOM     29  C   UNL     1       3.390  16.305  18.596  0.00  0.00    +0.000 C 
ATOM     30  N   UNL     1       4.345  16.949  18.477  0.00  0.00    +0.000 NA
ENDBRANCH  27  29
ENDBRANCH  20  23
ENDBRANCH  16  17
ENDBRANCH   1  16
TORSDOF 7
ENDMDL
MODEL 7
REMARK VINA RESULT:      -7.5      2.881      9.918
REMARK  Name = 
REMARK  8 active torsions:
REMARK  status: ('A' for Active; 'I' for Inactive)
REMARK    1  A    between atoms: C_1  and  O_2
REMARK    2  A    between atoms: O_2  and  C_3
REMARK    3  A    between atoms: N_13  and  C_14
REMARK    4  A    between atoms: C_14  and  C_15
REMARK    5  A    between atoms: C_15  and  C_16
REMARK    6  A    between atoms: C_16  and  N_17
REMARK    7  A    between atoms: N_20  and  C_21
REMARK    8  A    between atoms: C_25  and  C_26
REMARK                            x       y       z     vdW  Elec       q    Type
REMARK                         _______ _______ _______ _____ _____    ______ ____
ROOT
ATOM      1  C   UNL     1       1.616   7.778  18.676  0.00  0.00    +0.000 C 
ENDROOT
BRANCH   1   2
ATOM      2  C   UNL     1       2.511   6.931  19.587  0.00  0.00    +0.000 C 
BRANCH   2  13
ATOM      3  C   UNL     1       5.234   4.796  16.050  0.00  0.00    +0.000 A 
ATOM      4  C   UNL     1       6.081   5.909  16.030  0.00  0.00    +0.000 A 
ATOM      5  C   UNL     1       5.939   6.915  16.972  0.00  0.00    +0.000 A 
ATOM      6  C   UNL     1       4.924   6.842  17.919  0.00  0.00    +0.000 A 
ATOM      7  C   UNL     1       4.031   5.760  17.945  0.00  0.00    +0.000 A 
ATOM      8  C   UNL     1       4.198   4.720  17.007  0.00  0.00    +0.000 A 
ATOM      9  C   UNL     1       3.217   3.577  17.013  0.00  0.00    +0.000 C 
ATOM     10  C   UNL     1       2.767   3.293  18.431  0.00  0.00    +0.000 C 
ATOM     11  C   UNL     1       2.212   4.541  19.077  0.00  0.00    +0.000 C 
ATOM     12  O   UNL     1       1.208   4.481  19.789  0.00  0.00    +0.000 OA
ATOM     13  N   UNL     1       2.960   5.705  18.896  0.00  0.00    +0.000 N 
BRANCH   3  15
ATOM     14  C   UNL     1       6.227   4.049  14.050  0.00  0.00    +0.000 C 
ATOM     15  O   UNL     1       5.358   3.768  15.149  0.00  0.00    +0.000 OA
ENDBRANCH   3  15
ENDBRANCH   2  13
ENDBRANCH   1   2
BRANCH   1  16
ATOM     16  C   UNL     1       1.971   9.272  18.616  0.00  0.00    +0.000 C 
BRANCH  16  17
ATOM     17  N   UNL     1       0.860  10.203  18.361  0.00  0.00    +0.000 NA
ATOM     18  C   UNL     1      -0.388   9.891  19.097  0.00  0.00    +0.000 C 
ATOM     19  C   UNL     1      -0.406  10.190  20.619  0.00  0.00    +0.000 C 
ATOM     20  N   UNL     1       0.055  11.563  20.873  0.00  0.00    +0.000 N 
ATOM     21  C   UNL     1       1.324  11.918  20.220  0.00  0.00    +0.000 C 
ATOM     22  C   UNL     1       1.254  11.599  18.704  0.00  0.00    +0.000 C 
BRANCH  20  23
ATOM     23  C   UNL     1      -0.577  12.397  21.772  0.00  0.00    +0.000 A 
ATOM     24  C   UNL     1      -0.075  13.679  22.054  0.00  0.00    +0.000 A 
ATOM     25  C   UNL     1      -0.732  14.561  22.917  0.00  0.00    +0.000 A 
ATOM     26  C   UNL     1      -1.918  14.179  23.534  0.00  0.00    +0.000 A 
ATOM     27  C   UNL     1      -2.440  12.911  23.283  0.00  0.00    +0.000 A 
ATOM     28  C   UNL     1      -1.775  12.036  22.414  0.00  0.00    +0.000 A 
BRANCH  27  29
ATOM     29  C   UNL     1      -3.666  12.504  23.914  0.00  0.00    +0.000 C 
ATOM     30  N   UNL     1      -4.652  12.179  24.425  0.00  0.00    +0.000 NA
ENDBRANCH  27  29
ENDBRANCH  20  23
ENDBRANCH  16  17
ENDBRANCH   1  16
TORSDOF 7
ENDMDL
MODEL 8
REMARK VINA RESULT:      -7.5      2.670      9.754
REMARK  Name = 
REMARK  8 active torsions:
REMARK  status: ('A' for Active; 'I' for Inactive)
REMARK    1  A    between atoms: C_1  and  O_2
REMARK    2  A    between atoms: O_2  and  C_3
REMARK    3  A    between atoms: N_13  and  C_14
REMARK    4  A    between atoms: C_14  and  C_15
REMARK    5  A    between atoms: C_15  and  C_16
REMARK    6  A    between atoms: C_16  and  N_17
REMARK    7  A    between atoms: N_20  and  C_21
REMARK    8  A    between atoms: C_25  and  C_26
REMARK                            x       y       z     vdW  Elec       q    Type
REMARK                         _______ _______ _______ _____ _____    ______ ____
ROOT
ATOM      1  C   UNL     1       1.710   6.479  20.143  0.00  0.00    +0.000 C 
ENDROOT
BRANCH   1   2
ATOM      2  C   UNL     1       2.305   5.166  20.665  0.00  0.00    +0.000 C 
BRANCH   2  13
ATOM      3  C   UNL     1       5.402   4.196  16.930  0.00  0.00    +0.000 A 
ATOM      4  C   UNL     1       6.384   4.984  17.540  0.00  0.00    +0.000 A 
ATOM      5  C   UNL     1       6.186   5.491  18.814  0.00  0.00    +0.000 A 
ATOM      6  C   UNL     1       4.987   5.253  19.477  0.00  0.00    +0.000 A 
ATOM      7  C   UNL     1       3.963   4.501  18.881  0.00  0.00    +0.000 A 
ATOM      8  C   UNL     1       4.181   3.957  17.598  0.00  0.00    +0.000 A 
ATOM      9  C   UNL     1       3.068   3.179  16.944  0.00  0.00    +0.000 C 
ATOM     10  C   UNL     1       2.280   2.426  17.995  0.00  0.00    +0.000 C 
ATOM     11  C   UNL     1       1.783   3.366  19.069  0.00  0.00    +0.000 C 
ATOM     12  O   UNL     1       0.649   3.238  19.533  0.00  0.00    +0.000 OA
ATOM     13  N   UNL     1       2.713   4.289  19.549  0.00  0.00    +0.000 N 
BRANCH   3  15
ATOM     14  C   UNL     1       6.617   4.259  14.914  0.00  0.00    +0.000 C 
ATOM     15  O   UNL     1       5.571   3.657  15.679  0.00  0.00    +0.000 OA
ENDBRANCH   3  15
ENDBRANCH   2  13
ENDBRANCH   1   2
BRANCH   1  16
ATOM     16  C   UNL     1       1.052   7.369  21.209  0.00  0.00    +0.000 C 
BRANCH  16  17
ATOM     17  N   UNL     1       1.551   8.750  21.313  0.00  0.00    +0.000 NA
ATOM     18  C   UNL     1       1.014   9.679  20.290  0.00  0.00    +0.000 C 
ATOM     19  C   UNL     1      -0.460  10.133  20.451  0.00  0.00    +0.000 C 
ATOM     20  N   UNL     1      -0.696  10.623  21.817  0.00  0.00    +0.000 N 
ATOM     21  C   UNL     1      -0.241   9.717  22.883  0.00  0.00    +0.000 C 
ATOM     22  C   UNL     1       1.240   9.321  22.654  0.00  0.00    +0.000 C 
BRANCH  20  23
ATOM     23  C   UNL     1      -1.419  11.769  22.074  0.00  0.00    +0.000 A 
ATOM     24  C   UNL     1      -2.308  11.842  23.159  0.00  0.00    +0.000 A 
ATOM     25  C   UNL     1      -3.007  13.012  23.470  0.00  0.00    +0.000 A 
ATOM     26  C   UNL     1      -2.838  14.153  22.694  0.00  0.00    +0.000 A 
ATOM     27  C   UNL     1      -1.969  14.113  21.605  0.00  0.00    +0.000 A 
ATOM     28  C   UNL     1      -1.273  12.936  21.302  0.00  0.00    +0.000 A 
BRANCH  27  29
ATOM     29  C   UNL     1      -1.785  15.286  20.793  0.00  0.00    +0.000 C 
ATOM     30  N   UNL     1      -1.635  16.232  20.143  0.00  0.00    +0.000 NA
ENDBRANCH  27  29
ENDBRANCH  20  23
ENDBRANCH  16  17
ENDBRANCH   1  16
TORSDOF 7
ENDMDL
MODEL 9
REMARK VINA RESULT:      -7.5      3.375     10.032
REMARK  Name = 
REMARK  8 active torsions:
REMARK  status: ('A' for Active; 'I' for Inactive)
REMARK    1  A    between atoms: C_1  and  O_2
REMARK    2  A    between atoms: O_2  and  C_3
REMARK    3  A    between atoms: N_13  and  C_14
REMARK    4  A    between atoms: C_14  and  C_15
REMARK    5  A    between atoms: C_15  and  C_16
REMARK    6  A    between atoms: C_16  and  N_17
REMARK    7  A    between atoms: N_20  and  C_21
REMARK    8  A    between atoms: C_25  and  C_26
REMARK                            x       y       z     vdW  Elec       q    Type
REMARK                         _______ _______ _______ _____ _____    ______ ____
ROOT
ATOM      1  C   UNL     1       1.541   8.840  18.057  0.00  0.00    +0.000 C 
ENDROOT
BRANCH   1   2
ATOM      2  C   UNL     1       2.832   8.304  18.688  0.00  0.00    +0.000 C 
BRANCH   2  13
ATOM      3  C   UNL     1       3.235   3.493  17.603  0.00  0.00    +0.000 A 
ATOM      4  C   UNL     1       4.193   3.793  16.628  0.00  0.00    +0.000 A 
ATOM      5  C   UNL     1       4.685   5.082  16.501  0.00  0.00    +0.000 A 
ATOM      6  C   UNL     1       4.196   6.095  17.318  0.00  0.00    +0.000 A 
ATOM      7  C   UNL     1       3.207   5.840  18.280  0.00  0.00    +0.000 A 
ATOM      8  C   UNL     1       2.733   4.520  18.431  0.00  0.00    +0.000 A 
ATOM      9  C   UNL     1       1.645   4.253  19.439  0.00  0.00    +0.000 C 
ATOM     10  C   UNL     1       1.815   5.170  20.633  0.00  0.00    +0.000 C 
ATOM     11  C   UNL     1       1.864   6.616  20.196  0.00  0.00    +0.000 C 
ATOM     12  O   UNL     1       1.284   7.485  20.850  0.00  0.00    +0.000 OA
ATOM     13  N   UNL     1       2.675   6.892  19.094  0.00  0.00    +0.000 N 
BRANCH   3  15
ATOM     14  C   UNL     1       3.603   1.350  18.507  0.00  0.00    +0.000 C 
ATOM     15  O   UNL     1       2.741   2.224  17.775  0.00  0.00    +0.000 OA
ENDBRANCH   3  15
ENDBRANCH   2  13
ENDBRANCH   1   2
BRANCH   1  16
ATOM     16  C   UNL     1       1.352  10.362  18.148  0.00  0.00    +0.000 C 
BRANCH  16  17
ATOM     17  N   UNL     1       0.547  10.860  19.275  0.00  0.00    +0.000 NA
ATOM     18  C   UNL     1       0.018  12.233  19.097  0.00  0.00    +0.000 C 
ATOM     19  C   UNL     1      -1.153  12.417  18.098  0.00  0.00    +0.000 C 
ATOM     20  N   UNL     1      -2.222  11.449  18.383  0.00  0.00    +0.000 N 
ATOM     21  C   UNL     1      -1.772  10.054  18.510  0.00  0.00    +0.000 C 
ATOM     22  C   UNL     1      -0.611   9.957  19.532  0.00  0.00    +0.000 C 
BRANCH  20  23
ATOM     23  C   UNL     1      -3.555  11.802  18.381  0.00  0.00    +0.000 A 
ATOM     24  C   UNL     1      -4.340  11.684  17.222  0.00  0.00    +0.000 A 
ATOM     25  C   UNL     1      -5.706  11.982  17.214  0.00  0.00    +0.000 A 
ATOM     26  C   UNL     1      -6.331  12.416  18.377  0.00  0.00    +0.000 A 
ATOM     27  C   UNL     1      -5.581  12.552  19.544  0.00  0.00    +0.000 A 
ATOM     28  C   UNL     1      -4.213  12.250  19.541  0.00  0.00    +0.000 A 
BRANCH  27  29
ATOM     29  C   UNL     1      -6.215  13.001  20.754  0.00  0.00    +0.000 C 
ATOM     30  N   UNL     1      -6.727  13.366  21.726  0.00  0.00    +0.000 NA
ENDBRANCH  27  29
ENDBRANCH  20  23
ENDBRANCH  16  17
ENDBRANCH   1  16
TORSDOF 7
ENDMDL
