MODEL 1
REMARK VINA RESULT:      -6.2      0.000      0.000
REMARK  Name = 
REMARK  12 active torsions:
REMARK  status: ('A' for Active; 'I' for Inactive)
REMARK    1  A    between atoms: C_1  and  C_2
REMARK    2  A    between atoms: C_5  and  C_6
REMARK    3  A    between atoms: C_6  and  C_7
REMARK    4  A    between atoms: C_6  and  O_8
REMARK    5  A    between atoms: C_6  and  C_9
REMARK    6  A    between atoms: C_9  and  C_10
REMARK    7  A    between atoms: C_10  and  C_11
REMARK    8  A    between atoms: C_11  and  C_12
REMARK    9  A    between atoms: C_12  and  C_13
REMARK   10  A    between atoms: C_12  and  C_14
REMARK   11  A    between atoms: C_12  and  N_15
REMARK   12  A    between atoms: N_15  and  C_16
REMARK                            x       y       z     vdW  Elec       q    Type
REMARK                         _______ _______ _______ _____ _____    ______ ____
ROOT
ATOM      1  C   UNL     1       2.617   3.482  18.196  0.00  0.00    +0.000 C 
ATOM      2  C   UNL     1       2.432   2.266  19.119  0.00  0.00    +0.000 C 
ENDROOT
BRANCH   1   7
ATOM      3  C   UNL     1       1.488   8.579  21.025  0.00  0.00    +0.000 C 
ATOM      4  C   UNL     1       1.784   7.318  20.269  0.00  0.00    +0.000 C 
ATOM      5  C   UNL     1       2.310   7.329  19.032  0.00  0.00    +0.000 C 
ATOM      6  C   UNL     1       2.622   6.085  18.243  0.00  0.00    +0.000 C 
ATOM      7  C   UNL     1       2.019   4.787  18.829  0.00  0.00    +0.000 C 
ATOM      8  C   UNL     1       2.150   4.811  20.366  0.00  0.00    +0.000 C 
ATOM      9  C   UNL     1       1.469   6.034  20.982  0.00  0.00    +0.000 C 
ENDBRANCH   1   7
BRANCH   1  10
ATOM     10  O   UNL     1       1.938   3.191  16.962  0.00  0.00    +0.000 OA
ATOM     11  H   UNL     1       1.036   3.555  17.008  0.00  0.00    +0.000 HD
ENDBRANCH   1  10
BRANCH   1  12
ATOM     12  C   UNL     1       4.122   3.624  17.820  0.00  0.00    +0.000 C 
BRANCH  12  13
ATOM     13  C   UNL     1       4.359   3.790  16.316  0.00  0.00    +0.000 C 
BRANCH  13  14
ATOM     14  C   UNL     1       5.823   3.647  15.893  0.00  0.00    +0.000 C 
BRANCH  14  15
ATOM     15  C   UNL     1       6.488   4.993  15.473  0.00  0.00    +0.000 C 
ATOM     16  C   UNL     1       7.108   4.873  14.065  0.00  0.00    +0.000 C 
ATOM     17  C   UNL     1       5.444   6.128  15.479  0.00  0.00    +0.000 C 
BRANCH  15  18
ATOM     18  N   UNL     1       7.550   5.302  16.447  0.00  0.00    +0.000 N 
ATOM     19  H   UNL     1       8.264   5.985  16.196  0.00  0.00    +0.000 HD
BRANCH  18  20
ATOM     20  C   UNL     1       7.672   4.759  17.695  0.00  0.00    +0.000 C 
ATOM     21  S   UNL     1       7.450   5.679  19.060  0.00  0.00    +0.000 S 
ENDBRANCH  18  20
ENDBRANCH  15  18
ENDBRANCH  14  15
ENDBRANCH  13  14
ENDBRANCH  12  13
ENDBRANCH   1  12
TORSDOF 8
ENDMDL
MODEL 2
REMARK VINA RESULT:      -6.2      1.369      2.222
REMARK  Name = 
REMARK  12 active torsions:
REMARK  status: ('A' for Active; 'I' for Inactive)
REMARK    1  A    between atoms: C_1  and  C_2
REMARK    2  A    between atoms: C_5  and  C_6
REMARK    3  A    between atoms: C_6  and  C_7
REMARK    4  A    between atoms: C_6  and  O_8
REMARK    5  A    between atoms: C_6  and  C_9
REMARK    6  A    between atoms: C_9  and  C_10
REMARK    7  A    between atoms: C_10  and  C_11
REMARK    8  A    between atoms: C_11  and  C_12
REMARK    9  A    between atoms: C_12  and  C_13
REMARK   10  A    between atoms: C_12  and  C_14
REMARK   11  A    between atoms: C_12  and  N_15
REMARK   12  A    between atoms: N_15  and  C_16
REMARK                            x       y       z     vdW  Elec       q    Type
REMARK                         _______ _______ _______ _____ _____    ______ ____
ROOT
ATOM      1  C   UNL     1       2.639   5.352  19.345  0.00  0.00    +0.000 C 
ATOM      2  C   UNL     1       2.453   4.800  20.768  0.00  0.00    +0.000 C 
ENDROOT
BRANCH   1   7
ATOM      3  C   UNL     1       0.973  11.035  18.919  0.00  0.00    +0.000 C 
ATOM      4  C   UNL     1       1.382   9.601  19.076  0.00  0.00    +0.000 C 
ATOM      5  C   UNL     1       1.184   8.918  20.216  0.00  0.00    +0.000 C 
ATOM      6  C   UNL     1       1.580   7.479  20.410  0.00  0.00    +0.000 C 
ATOM      7  C   UNL     1       2.508   6.915  19.308  0.00  0.00    +0.000 C 
ATOM      8  C   UNL     1       2.042   7.437  17.933  0.00  0.00    +0.000 C 
ATOM      9  C   UNL     1       2.020   8.964  17.874  0.00  0.00    +0.000 C 
ENDBRANCH   1   7
BRANCH   1  10
ATOM     10  O   UNL     1       1.617   4.766  18.521  0.00  0.00    +0.000 OA
ATOM     11  H   UNL     1       1.091   5.479  18.118  0.00  0.00    +0.000 HD
ENDBRANCH   1  10
BRANCH   1  12
ATOM     12  C   UNL     1       3.989   4.842  18.761  0.00  0.00    +0.000 C 
BRANCH  12  13
ATOM     13  C   UNL     1       3.914   4.495  17.271  0.00  0.00    +0.000 C 
BRANCH  13  14
ATOM     14  C   UNL     1       5.149   3.768  16.734  0.00  0.00    +0.000 C 
BRANCH  14  15
ATOM     15  C   UNL     1       6.019   4.636  15.775  0.00  0.00    +0.000 C 
ATOM     16  C   UNL     1       6.131   3.963  14.391  0.00  0.00    +0.000 C 
ATOM     17  C   UNL     1       5.400   6.038  15.616  0.00  0.00    +0.000 C 
BRANCH  15  18
ATOM     18  N   UNL     1       7.365   4.760  16.365  0.00  0.00    +0.000 N 
ATOM     19  H   UNL     1       8.150   4.983  15.755  0.00  0.00    +0.000 HD
BRANCH  18  20
ATOM     20  C   UNL     1       7.674   4.614  17.688  0.00  0.00    +0.000 C 
ATOM     21  S   UNL     1       7.583   5.895  18.740  0.00  0.00    +0.000 S 
ENDBRANCH  18  20
ENDBRANCH  15  18
ENDBRANCH  14  15
ENDBRANCH  13  14
ENDBRANCH  12  13
ENDBRANCH   1  12
TORSDOF 8
ENDMDL
MODEL 3
REMARK VINA RESULT:      -6.1      0.454      1.234
REMARK  Name = 
REMARK  12 active torsions:
REMARK  status: ('A' for Active; 'I' for Inactive)
REMARK    1  A    between atoms: C_1  and  C_2
REMARK    2  A    between atoms: C_5  and  C_6
REMARK    3  A    between atoms: C_6  and  C_7
REMARK    4  A    between atoms: C_6  and  O_8
REMARK    5  A    between atoms: C_6  and  C_9
REMARK    6  A    between atoms: C_9  and  C_10
REMARK    7  A    between atoms: C_10  and  C_11
REMARK    8  A    between atoms: C_11  and  C_12
REMARK    9  A    between atoms: C_12  and  C_13
REMARK   10  A    between atoms: C_12  and  C_14
REMARK   11  A    between atoms: C_12  and  N_15
REMARK   12  A    between atoms: N_15  and  C_16
REMARK                            x       y       z     vdW  Elec       q    Type
REMARK                         _______ _______ _______ _____ _____    ______ ____
ROOT
ATOM      1  C   UNL     1       2.764   3.554  18.366  0.00  0.00    +0.000 C 
ATOM      2  C   UNL     1       2.313   2.369  19.237  0.00  0.00    +0.000 C 
ENDROOT
BRANCH   1   7
ATOM      3  C   UNL     1       1.333   8.713  20.933  0.00  0.00    +0.000 C 
ATOM      4  C   UNL     1       1.680   7.386  20.327  0.00  0.00    +0.000 C 
ATOM      5  C   UNL     1       1.389   6.222  20.931  0.00  0.00    +0.000 C 
ATOM      6  C   UNL     1       1.720   4.872  20.354  0.00  0.00    +0.000 C 
ATOM      7  C   UNL     1       2.692   4.910  19.151  0.00  0.00    +0.000 C 
ATOM      8  C   UNL     1       2.329   6.101  18.240  0.00  0.00    +0.000 C 
ATOM      9  C   UNL     1       2.366   7.433  18.991  0.00  0.00    +0.000 C 
ENDBRANCH   1   7
BRANCH   1  10
ATOM     10  O   UNL     1       1.885   3.610  17.229  0.00  0.00    +0.000 OA
ATOM     11  H   UNL     1       1.888   2.742  16.787  0.00  0.00    +0.000 HD
ENDBRANCH   1  10
BRANCH   1  12
ATOM     12  C   UNL     1       4.179   3.262  17.785  0.00  0.00    +0.000 C 
BRANCH  12  13
ATOM     13  C   UNL     1       4.370   3.790  16.359  0.00  0.00    +0.000 C 
BRANCH  13  14
ATOM     14  C   UNL     1       5.800   3.658  15.829  0.00  0.00    +0.000 C 
BRANCH  14  15
ATOM     15  C   UNL     1       6.456   5.020  15.451  0.00  0.00    +0.000 C 
ATOM     16  C   UNL     1       7.145   4.923  14.073  0.00  0.00    +0.000 C 
ATOM     17  C   UNL     1       5.391   6.134  15.415  0.00  0.00    +0.000 C 
BRANCH  15  18
ATOM     18  N   UNL     1       7.465   5.343  16.476  0.00  0.00    +0.000 N 
ATOM     19  H   UNL     1       8.373   4.882  16.435  0.00  0.00    +0.000 HD
BRANCH  18  20
ATOM     20  C   UNL     1       7.306   6.232  17.501  0.00  0.00    +0.000 C 
ATOM     21  S   UNL     1       7.722   5.834  19.059  0.00  0.00    +0.000 S 
ENDBRANCH  18  20
ENDBRANCH  15  18
ENDBRANCH  14  15
ENDBRANCH  13  14
ENDBRANCH  12  13
ENDBRANCH   1  12
TORSDOF 8
ENDMDL
MODEL 4
REMARK VINA RESULT:      -6.1      1.170      1.669
REMARK  Name = 
REMARK  12 active torsions:
REMARK  status: ('A' for Active; 'I' for Inactive)
REMARK    1  A    between atoms: C_1  and  C_2
REMARK    2  A    between atoms: C_5  and  C_6
REMARK    3  A    between atoms: C_6  and  C_7
REMARK    4  A    between atoms: C_6  and  O_8
REMARK    5  A    between atoms: C_6  and  C_9
REMARK    6  A    between atoms: C_9  and  C_10
REMARK    7  A    between atoms: C_10  and  C_11
REMARK    8  A    between atoms: C_11  and  C_12
REMARK    9  A    between atoms: C_12  and  C_13
REMARK   10  A    between atoms: C_12  and  C_14
REMARK   11  A    between atoms: C_12  and  N_15
REMARK   12  A    between atoms: N_15  and  C_16
REMARK                            x       y       z     vdW  Elec       q    Type
REMARK                         _______ _______ _______ _____ _____    ______ ____
ROOT
ATOM      1  C   UNL     1       2.812   3.494  18.135  0.00  0.00    +0.000 C 
ATOM      2  C   UNL     1       2.263   2.299  18.933  0.00  0.00    +0.000 C 
ENDROOT
BRANCH   1   7
ATOM      3  C   UNL     1       1.417   8.530  20.953  0.00  0.00    +0.000 C 
ATOM      4  C   UNL     1       1.758   7.232  20.284  0.00  0.00    +0.000 C 
ATOM      5  C   UNL     1       1.533   6.042  20.866  0.00  0.00    +0.000 C 
ATOM      6  C   UNL     1       1.861   4.720  20.225  0.00  0.00    +0.000 C 
ATOM      7  C   UNL     1       2.755   4.822  18.967  0.00  0.00    +0.000 C 
ATOM      8  C   UNL     1       2.309   6.031  18.120  0.00  0.00    +0.000 C 
ATOM      9  C   UNL     1       2.360   7.339  18.910  0.00  0.00    +0.000 C 
ENDBRANCH   1   7
BRANCH   1  10
ATOM     10  O   UNL     1       1.999   3.630  16.956  0.00  0.00    +0.000 OA
ATOM     11  H   UNL     1       1.582   2.772  16.761  0.00  0.00    +0.000 HD
ENDBRANCH   1  10
BRANCH   1  12
ATOM     12  C   UNL     1       4.242   3.160  17.618  0.00  0.00    +0.000 C 
BRANCH  12  13
ATOM     13  C   UNL     1       5.264   4.265  17.904  0.00  0.00    +0.000 C 
BRANCH  13  14
ATOM     14  C   UNL     1       6.485   4.244  16.982  0.00  0.00    +0.000 C 
BRANCH  14  15
ATOM     15  C   UNL     1       6.540   5.443  15.987  0.00  0.00    +0.000 C 
ATOM     16  C   UNL     1       7.080   4.983  14.617  0.00  0.00    +0.000 C 
ATOM     17  C   UNL     1       5.136   6.052  15.808  0.00  0.00    +0.000 C 
BRANCH  15  18
ATOM     18  N   UNL     1       7.446   6.462  16.549  0.00  0.00    +0.000 N 
ATOM     19  H   UNL     1       8.429   6.446  16.282  0.00  0.00    +0.000 HD
BRANCH  18  20
ATOM     20  C   UNL     1       7.088   7.462  17.407  0.00  0.00    +0.000 C 
ATOM     21  S   UNL     1       8.166   8.648  17.845  0.00  0.00    +0.000 S 
ENDBRANCH  18  20
ENDBRANCH  15  18
ENDBRANCH  14  15
ENDBRANCH  13  14
ENDBRANCH  12  13
ENDBRANCH   1  12
TORSDOF 8
ENDMDL
MODEL 5
REMARK VINA RESULT:      -6.0      1.559      2.214
REMARK  Name = 
REMARK  12 active torsions:
REMARK  status: ('A' for Active; 'I' for Inactive)
REMARK    1  A    between atoms: C_1  and  C_2
REMARK    2  A    between atoms: C_5  and  C_6
REMARK    3  A    between atoms: C_6  and  C_7
REMARK    4  A    between atoms: C_6  and  O_8
REMARK    5  A    between atoms: C_6  and  C_9
REMARK    6  A    between atoms: C_9  and  C_10
REMARK    7  A    between atoms: C_10  and  C_11
REMARK    8  A    between atoms: C_11  and  C_12
REMARK    9  A    between atoms: C_12  and  C_13
REMARK   10  A    between atoms: C_12  and  C_14
REMARK   11  A    between atoms: C_12  and  N_15
REMARK   12  A    between atoms: N_15  and  C_16
REMARK                            x       y       z     vdW  Elec       q    Type
REMARK                         _______ _______ _______ _____ _____    ______ ____
ROOT
ATOM      1  C   UNL     1       2.246   3.547  18.672  0.00  0.00    +0.000 C 
ATOM      2  C   UNL     1       2.512   2.641  19.886  0.00  0.00    +0.000 C 
ENDROOT
BRANCH   1   7
ATOM      3  C   UNL     1       1.505   9.094  20.655  0.00  0.00    +0.000 C 
ATOM      4  C   UNL     1       1.702   7.712  20.108  0.00  0.00    +0.000 C 
ATOM      5  C   UNL     1       2.144   7.489  18.859  0.00  0.00    +0.000 C 
ATOM      6  C   UNL     1       2.354   6.118  18.276  0.00  0.00    +0.000 C 
ATOM      7  C   UNL     1       1.741   4.967  19.108  0.00  0.00    +0.000 C 
ATOM      8  C   UNL     1       1.975   5.241  20.608  0.00  0.00    +0.000 C 
ATOM      9  C   UNL     1       1.385   6.582  21.047  0.00  0.00    +0.000 C 
ENDBRANCH   1   7
BRANCH   1  10
ATOM     10  O   UNL     1       1.239   2.905  17.871  0.00  0.00    +0.000 OA
ATOM     11  H   UNL     1       1.045   3.468  17.101  0.00  0.00    +0.000 HD
ENDBRANCH   1  10
BRANCH   1  12
ATOM     12  C   UNL     1       3.519   3.603  17.776  0.00  0.00    +0.000 C 
BRANCH  12  13
ATOM     13  C   UNL     1       4.819   3.377  18.554  0.00  0.00    +0.000 C 
BRANCH  13  14
ATOM     14  C   UNL     1       5.430   4.653  19.138  0.00  0.00    +0.000 C 
BRANCH  14  15
ATOM     15  C   UNL     1       6.472   5.334  18.200  0.00  0.00    +0.000 C 
ATOM     16  C   UNL     1       5.860   6.582  17.530  0.00  0.00    +0.000 C 
ATOM     17  C   UNL     1       7.723   5.744  19.002  0.00  0.00    +0.000 C 
BRANCH  15  18
ATOM     18  N   UNL     1       6.856   4.363  17.160  0.00  0.00    +0.000 N 
ATOM     19  H   UNL     1       6.979   3.386  17.420  0.00  0.00    +0.000 HD
BRANCH  18  20
ATOM     20  C   UNL     1       7.058   4.646  15.839  0.00  0.00    +0.000 C 
ATOM     21  S   UNL     1       6.111   3.964  14.657  0.00  0.00    +0.000 S 
ENDBRANCH  18  20
ENDBRANCH  15  18
ENDBRANCH  14  15
ENDBRANCH  13  14
ENDBRANCH  12  13
ENDBRANCH   1  12
TORSDOF 8
ENDMDL
MODEL 6
REMARK VINA RESULT:      -6.0      3.586      4.851
REMARK  Name = 
REMARK  12 active torsions:
REMARK  status: ('A' for Active; 'I' for Inactive)
REMARK    1  A    between atoms: C_1  and  C_2
REMARK    2  A    between atoms: C_5  and  C_6
REMARK    3  A    between atoms: C_6  and  C_7
REMARK    4  A    between atoms: C_6  and  O_8
REMARK    5  A    between atoms: C_6  and  C_9
REMARK    6  A    between atoms: C_9  and  C_10
REMARK    7  A    between atoms: C_10  and  C_11
REMARK    8  A    between atoms: C_11  and  C_12
REMARK    9  A    between atoms: C_12  and  C_13
REMARK   10  A    between atoms: C_12  and  C_14
REMARK   11  A    between atoms: C_12  and  N_15
REMARK   12  A    between atoms: N_15  and  C_16
REMARK                            x       y       z     vdW  Elec       q    Type
REMARK                         _______ _______ _______ _____ _____    ______ ____
ROOT
ATOM      1  C   UNL     1       6.295   5.193  16.803  0.00  0.00    +0.000 C 
ATOM      2  C   UNL     1       6.690   6.520  17.471  0.00  0.00    +0.000 C 
ENDROOT
BRANCH   1   7
ATOM      3  C   UNL     1       1.212   3.970  19.618  0.00  0.00    +0.000 C 
ATOM      4  C   UNL     1       2.474   4.319  18.887  0.00  0.00    +0.000 C 
ATOM      5  C   UNL     1       2.612   5.466  18.200  0.00  0.00    +0.000 C 
ATOM      6  C   UNL     1       3.862   5.851  17.455  0.00  0.00    +0.000 C 
ATOM      7  C   UNL     1       4.882   4.702  17.278  0.00  0.00    +0.000 C 
ATOM      8  C   UNL     1       4.951   3.876  18.578  0.00  0.00    +0.000 C 
ATOM      9  C   UNL     1       3.586   3.313  18.975  0.00  0.00    +0.000 C 
ENDBRANCH   1   7
BRANCH   1  10
ATOM     10  O   UNL     1       7.288   4.218  17.165  0.00  0.00    +0.000 OA
ATOM     11  H   UNL     1       6.885   3.332  17.131  0.00  0.00    +0.000 HD
ENDBRANCH   1  10
BRANCH   1  12
ATOM     12  C   UNL     1       6.399   5.339  15.256  0.00  0.00    +0.000 C 
BRANCH  12  13
ATOM     13  C   UNL     1       5.426   4.435  14.494  0.00  0.00    +0.000 C 
BRANCH  13  14
ATOM     14  C   UNL     1       6.092   3.250  13.790  0.00  0.00    +0.000 C 
BRANCH  14  15
ATOM     15  C   UNL     1       5.990   3.306  12.236  0.00  0.00    +0.000 C 
ATOM     16  C   UNL     1       6.999   4.324  11.665  0.00  0.00    +0.000 C 
ATOM     17  C   UNL     1       6.268   1.914  11.633  0.00  0.00    +0.000 C 
BRANCH  15  18
ATOM     18  N   UNL     1       4.622   3.726  11.881  0.00  0.00    +0.000 N 
ATOM     19  H   UNL     1       4.220   4.536  12.350  0.00  0.00    +0.000 HD
BRANCH  18  20
ATOM     20  C   UNL     1       3.819   3.129  10.952  0.00  0.00    +0.000 C 
ATOM     21  S   UNL     1       3.097   4.010   9.743  0.00  0.00    +0.000 S 
ENDBRANCH  18  20
ENDBRANCH  15  18
ENDBRANCH  14  15
ENDBRANCH  13  14
ENDBRANCH  12  13
ENDBRANCH   1  12
TORSDOF 8
ENDMDL
MODEL 7
REMARK VINA RESULT:      -6.0      1.370      2.025
REMARK  Name = 
REMARK  12 active torsions:
REMARK  status: ('A' for Active; 'I' for Inactive)
REMARK    1  A    between atoms: C_1  and  C_2
REMARK    2  A    between atoms: C_5  and  C_6
REMARK    3  A    between atoms: C_6  and  C_7
REMARK    4  A    between atoms: C_6  and  O_8
REMARK    5  A    between atoms: C_6  and  C_9
REMARK    6  A    between atoms: C_9  and  C_10
REMARK    7  A    between atoms: C_10  and  C_11
REMARK    8  A    between atoms: C_11  and  C_12
REMARK    9  A    between atoms: C_12  and  C_13
REMARK   10  A    between atoms: C_12  and  C_14
REMARK   11  A    between atoms: C_12  and  N_15
REMARK   12  A    between atoms: N_15  and  C_16
REMARK                            x       y       z     vdW  Elec       q    Type
REMARK                         _______ _______ _______ _____ _____    ______ ____
ROOT
ATOM      1  C   UNL     1       3.281   3.663  18.967  0.00  0.00    +0.000 C 
ATOM      2  C   UNL     1       4.603   3.103  19.519  0.00  0.00    +0.000 C 
ENDROOT
BRANCH   1   7
ATOM      3  C   UNL     1       1.121   8.983  20.479  0.00  0.00    +0.000 C 
ATOM      4  C   UNL     1       1.653   7.622  20.143  0.00  0.00    +0.000 C 
ATOM      5  C   UNL     1       1.468   6.559  20.945  0.00  0.00    +0.000 C 
ATOM      6  C   UNL     1       1.986   5.179  20.640  0.00  0.00    +0.000 C 
ATOM      7  C   UNL     1       3.009   5.120  19.482  0.00  0.00    +0.000 C 
ATOM      8  C   UNL     1       2.558   6.070  18.354  0.00  0.00    +0.000 C 
ATOM      9  C   UNL     1       2.399   7.510  18.843  0.00  0.00    +0.000 C 
ENDBRANCH   1   7
BRANCH   1  10
ATOM     10  O   UNL     1       2.228   2.791  19.412  0.00  0.00    +0.000 OA
ATOM     11  H   UNL     1       2.307   1.940  18.946  0.00  0.00    +0.000 HD
ENDBRANCH   1  10
BRANCH   1  12
ATOM     12  C   UNL     1       3.281   3.558  17.413  0.00  0.00    +0.000 C 
BRANCH  12  13
ATOM     13  C   UNL     1       4.687   3.532  16.806  0.00  0.00    +0.000 C 
BRANCH  13  14
ATOM     14  C   UNL     1       5.005   4.733  15.912  0.00  0.00    +0.000 C 
BRANCH  14  15
ATOM     15  C   UNL     1       6.496   5.185  15.977  0.00  0.00    +0.000 C 
ATOM     16  C   UNL     1       7.224   4.476  17.139  0.00  0.00    +0.000 C 
ATOM     17  C   UNL     1       7.209   4.860  14.650  0.00  0.00    +0.000 C 
BRANCH  15  18
ATOM     18  N   UNL     1       6.523   6.641  16.203  0.00  0.00    +0.000 N 
ATOM     19  H   UNL     1       6.438   7.265  15.402  0.00  0.00    +0.000 HD
BRANCH  18  20
ATOM     20  C   UNL     1       6.643   7.259  17.415  0.00  0.00    +0.000 C 
ATOM     21  S   UNL     1       7.913   8.279  17.740  0.00  0.00    +0.000 S 
ENDBRANCH  18  20
ENDBRANCH  15  18
ENDBRANCH  14  15
ENDBRANCH  13  14
ENDBRANCH  12  13
ENDBRANCH   1  12
TORSDOF 8
ENDMDL
MODEL 8
REMARK VINA RESULT:      -5.9      2.021      2.819
REMARK  Name = 
REMARK  12 active torsions:
REMARK  status: ('A' for Active; 'I' for Inactive)
REMARK    1  A    between atoms: C_1  and  C_2
REMARK    2  A    between atoms: C_5  and  C_6
REMARK    3  A    between atoms: C_6  and  C_7
REMARK    4  A    between atoms: C_6  and  O_8
REMARK    5  A    between atoms: C_6  and  C_9
REMARK    6  A    between atoms: C_9  and  C_10
REMARK    7  A    between atoms: C_10  and  C_11
REMARK    8  A    between atoms: C_11  and  C_12
REMARK    9  A    between atoms: C_12  and  C_13
REMARK   10  A    between atoms: C_12  and  C_14
REMARK   11  A    between atoms: C_12  and  N_15
REMARK   12  A    between atoms: N_15  and  C_16
REMARK                            x       y       z     vdW  Elec       q    Type
REMARK                         _______ _______ _______ _____ _____    ______ ____
ROOT
ATOM      1  C   UNL     1       2.404   5.257  18.807  0.00  0.00    +0.000 C 
ATOM      2  C   UNL     1       2.946   4.854  20.189  0.00  0.00    +0.000 C 
ENDROOT
BRANCH   1   7
ATOM      3  C   UNL     1       1.040  11.027  19.106  0.00  0.00    +0.000 C 
ATOM      4  C   UNL     1       1.390   9.575  18.980  0.00  0.00    +0.000 C 
ATOM      5  C   UNL     1       1.817   9.035  17.825  0.00  0.00    +0.000 C 
ATOM      6  C   UNL     1       2.178   7.583  17.662  0.00  0.00    +0.000 C 
ATOM      7  C   UNL     1       1.740   6.678  18.837  0.00  0.00    +0.000 C 
ATOM      8  C   UNL     1       1.985   7.416  20.169  0.00  0.00    +0.000 C 
ATOM      9  C   UNL     1       1.247   8.753  20.230  0.00  0.00    +0.000 C 
ENDBRANCH   1   7
BRANCH   1  10
ATOM     10  O   UNL     1       1.423   4.276  18.429  0.00  0.00    +0.000 OA
ATOM     11  H   UNL     1       1.372   3.598  19.127  0.00  0.00    +0.000 HD
ENDBRANCH   1  10
BRANCH   1  12
ATOM     12  C   UNL     1       3.541   5.138  17.749  0.00  0.00    +0.000 C 
BRANCH  12  13
ATOM     13  C   UNL     1       4.920   5.523  18.294  0.00  0.00    +0.000 C 
BRANCH  13  14
ATOM     14  C   UNL     1       5.600   6.662  17.531  0.00  0.00    +0.000 C 
BRANCH  14  15
ATOM     15  C   UNL     1       7.137   6.471  17.359  0.00  0.00    +0.000 C 
ATOM     16  C   UNL     1       7.876   7.805  17.599  0.00  0.00    +0.000 C 
ATOM     17  C   UNL     1       7.656   5.411  18.350  0.00  0.00    +0.000 C 
BRANCH  15  18
ATOM     18  N   UNL     1       7.391   6.016  15.980  0.00  0.00    +0.000 N 
ATOM     19  H   UNL     1       7.770   6.680  15.306  0.00  0.00    +0.000 HD
BRANCH  18  20
ATOM     20  C   UNL     1       7.175   4.755  15.503  0.00  0.00    +0.000 C 
ATOM     21  S   UNL     1       5.817   4.389  14.620  0.00  0.00    +0.000 S 
ENDBRANCH  18  20
ENDBRANCH  15  18
ENDBRANCH  14  15
ENDBRANCH  13  14
ENDBRANCH  12  13
ENDBRANCH   1  12
TORSDOF 8
ENDMDL
MODEL 9
REMARK VINA RESULT:      -5.9      1.706      2.600
REMARK  Name = 
REMARK  12 active torsions:
REMARK  status: ('A' for Active; 'I' for Inactive)
REMARK    1  A    between atoms: C_1  and  C_2
REMARK    2  A    between atoms: C_5  and  C_6
REMARK    3  A    between atoms: C_6  and  C_7
REMARK    4  A    between atoms: C_6  and  O_8
REMARK    5  A    between atoms: C_6  and  C_9
REMARK    6  A    between atoms: C_9  and  C_10
REMARK    7  A    between atoms: C_10  and  C_11
REMARK    8  A    between atoms: C_11  and  C_12
REMARK    9  A    between atoms: C_12  and  C_13
REMARK   10  A    between atoms: C_12  and  C_14
REMARK   11  A    between atoms: C_12  and  N_15
REMARK   12  A    between atoms: N_15  and  C_16
REMARK                            x       y       z     vdW  Elec       q    Type
REMARK                         _______ _______ _______ _____ _____    ______ ____
ROOT
ATOM      1  C   UNL     1       2.117   3.715  19.180  0.00  0.00    +0.000 C 
ATOM      2  C   UNL     1       1.244   3.215  20.343  0.00  0.00    +0.000 C 
ENDROOT
BRANCH   1   7
ATOM      3  C   UNL     1       1.779   9.642  19.265  0.00  0.00    +0.000 C 
ATOM      4  C   UNL     1       1.857   8.145  19.294  0.00  0.00    +0.000 C 
ATOM      5  C   UNL     1       1.595   7.432  20.403  0.00  0.00    +0.000 C 
ATOM      6  C   UNL     1       1.662   5.930  20.469  0.00  0.00    +0.000 C 
ATOM      7  C   UNL     1       2.348   5.265  19.253  0.00  0.00    +0.000 C 
ATOM      8  C   UNL     1       1.911   5.988  17.962  0.00  0.00    +0.000 C 
ATOM      9  C   UNL     1       2.238   7.481  18.000  0.00  0.00    +0.000 C 
ENDBRANCH   1   7
BRANCH   1  10
ATOM     10  O   UNL     1       1.432   3.388  17.959  0.00  0.00    +0.000 OA
ATOM     11  H   UNL     1       2.087   3.087  17.303  0.00  0.00    +0.000 HD
ENDBRANCH   1  10
BRANCH   1  12
ATOM     12  C   UNL     1       3.446   2.904  19.143  0.00  0.00    +0.000 C 
BRANCH  12  13
ATOM     13  C   UNL     1       4.524   3.544  18.262  0.00  0.00    +0.000 C 
BRANCH  13  14
ATOM     14  C   UNL     1       5.547   4.380  19.033  0.00  0.00    +0.000 C 
BRANCH  14  15
ATOM     15  C   UNL     1       6.505   5.200  18.116  0.00  0.00    +0.000 C 
ATOM     16  C   UNL     1       5.769   6.419  17.520  0.00  0.00    +0.000 C 
ATOM     17  C   UNL     1       7.728   5.683  18.920  0.00  0.00    +0.000 C 
BRANCH  15  18
ATOM     18  N   UNL     1       6.955   4.321  17.022  0.00  0.00    +0.000 N 
ATOM     19  H   UNL     1       7.180   3.350  17.233  0.00  0.00    +0.000 HD
BRANCH  18  20
ATOM     20  C   UNL     1       7.095   4.684  15.712  0.00  0.00    +0.000 C 
ATOM     21  S   UNL     1       6.160   3.997  14.524  0.00  0.00    +0.000 S 
ENDBRANCH  18  20
ENDBRANCH  15  18
ENDBRANCH  14  15
ENDBRANCH  13  14
ENDBRANCH  12  13
ENDBRANCH   1  12
TORSDOF 8
ENDMDL
