MODEL 1
REMARK VINA RESULT:      -6.0      0.000      0.000
REMARK  Name = 
REMARK  13 active torsions:
REMARK  status: ('A' for Active; 'I' for Inactive)
REMARK    1  A    between atoms: C_1  and  C_2
REMARK    2  A    between atoms: C_2  and  C_3
REMARK    3  A    between atoms: C_3  and  C_4
REMARK    4  A    between atoms: C_4  and  C_5
REMARK    5  A    between atoms: C_5  and  O_6
REMARK    6  A    between atoms: O_6  and  C_7
REMARK    7  A    between atoms: C_11  and  C_12
REMARK    8  A    between atoms: C_12  and  C_13
REMARK    9  A    between atoms: C_13  and  N_14
REMARK   10  A    between atoms: N_14  and  C_15
REMARK   11  A    between atoms: C_15  and  C_16
REMARK   12  A    between atoms: N_18  and  C_19
REMARK   13  A    between atoms: N_18  and  C_20
REMARK                            x       y       z     vdW  Elec       q    Type
REMARK                         _______ _______ _______ _____ _____    ______ ____
ROOT
ATOM      1  C   UNL     1       5.904   5.804  16.154  0.00  0.00    +0.000 A 
ATOM      2  C   UNL     1       6.781   5.227  17.074  0.00  0.00    +0.000 A 
ATOM      3  C   UNL     1       6.449   5.177  18.428  0.00  0.00    +0.000 A 
ATOM      4  C   UNL     1       5.226   5.683  18.866  0.00  0.00    +0.000 A 
ATOM      5  C   UNL     1       4.326   6.258  17.957  0.00  0.00    +0.000 A 
ATOM      6  C   UNL     1       4.675   6.304  16.597  0.00  0.00    +0.000 A 
ENDROOT
BRANCH   1   7
ATOM      7  O   UNL     1       6.313   5.774  14.845  0.00  0.00    +0.000 OA
BRANCH   7   8
ATOM      8  C   UNL     1       7.034   4.602  14.457  0.00  0.00    +0.000 C 
BRANCH   8   9
ATOM      9  C   UNL     1       6.030   3.520  14.062  0.00  0.00    +0.000 C 
BRANCH   9  10
ATOM     10  C   UNL     1       5.900   3.422  12.543  0.00  0.00    +0.000 C 
BRANCH  10  12
ATOM     11  C   UNL     1       4.073   3.017  10.858  0.00  0.00    +0.000 C 
ATOM     12  C   UNL     1       4.506   3.829  12.070  0.00  0.00    +0.000 C 
ENDBRANCH  10  12
ENDBRANCH   9  10
ENDBRANCH   8   9
ENDBRANCH   7   8
ENDBRANCH   1   7
BRANCH   5  13
ATOM     13  C   UNL     1       2.982   6.779  18.424  0.00  0.00    +0.000 C 
BRANCH  13  14
ATOM     14  C   UNL     1       2.046   5.651  18.881  0.00  0.00    +0.000 C 
BRANCH  14  15
ATOM     15  N   UNL     1       1.724   4.721  17.796  0.00  0.00    +0.000 NA
ATOM     16  H   UNL     1       2.413   4.761  17.046  0.00  0.00    +0.000 HD
BRANCH  15  17
ATOM     17  C   UNL     1       1.658   3.342  18.316  0.00  0.00    +0.000 C 
BRANCH  17  18
ATOM     18  C   UNL     1       3.058   2.772  18.603  0.00  0.00    +0.000 C 
ATOM     19  O   UNL     1       3.903   2.650  17.714  0.00  0.00    +0.000 OA
ATOM     20  N   UNL     1       3.334   2.438  19.931  0.00  0.00    +0.000 N 
ATOM     21  C   UNL     1       2.408   2.582  21.047  0.00  0.00    +0.000 C 
ATOM     22  C   UNL     1       4.663   1.959  20.270  0.00  0.00    +0.000 C 
ENDBRANCH  17  18
ENDBRANCH  15  17
ENDBRANCH  14  15
ENDBRANCH  13  14
ENDBRANCH   5  13
TORSDOF 10
ENDMDL
MODEL 2
REMARK VINA RESULT:      -5.9      1.409      1.754
REMARK  Name = 
REMARK  13 active torsions:
REMARK  status: ('A' for Active; 'I' for Inactive)
REMARK    1  A    between atoms: C_1  and  C_2
REMARK    2  A    between atoms: C_2  and  C_3
REMARK    3  A    between atoms: C_3  and  C_4
REMARK    4  A    between atoms: C_4  and  C_5
REMARK    5  A    between atoms: C_5  and  O_6
REMARK    6  A    between atoms: O_6  and  C_7
REMARK    7  A    between atoms: C_11  and  C_12
REMARK    8  A    between atoms: C_12  and  C_13
REMARK    9  A    between atoms: C_13  and  N_14
REMARK   10  A    between atoms: N_14  and  C_15
REMARK   11  A    between atoms: C_15  and  C_16
REMARK   12  A    between atoms: N_18  and  C_19
REMARK   13  A    between atoms: N_18  and  C_20
REMARK                            x       y       z     vdW  Elec       q    Type
REMARK                         _______ _______ _______ _____ _____    ______ ____
ROOT
ATOM      1  C   UNL     1       6.247   5.057  15.801  0.00  0.00    +0.000 A 
ATOM      2  C   UNL     1       6.999   4.502  16.838  0.00  0.00    +0.000 A 
ATOM      3  C   UNL     1       6.666   4.761  18.167  0.00  0.00    +0.000 A 
ATOM      4  C   UNL     1       5.563   5.561  18.467  0.00  0.00    +0.000 A 
ATOM      5  C   UNL     1       4.789   6.120  17.441  0.00  0.00    +0.000 A 
ATOM      6  C   UNL     1       5.138   5.852  16.107  0.00  0.00    +0.000 A 
ENDROOT
BRANCH   1   7
ATOM      7  O   UNL     1       6.642   4.714  14.533  0.00  0.00    +0.000 OA
BRANCH   7   8
ATOM      8  C   UNL     1       5.622   4.142  13.710  0.00  0.00    +0.000 C 
BRANCH   8   9
ATOM      9  C   UNL     1       6.284   3.479  12.503  0.00  0.00    +0.000 C 
BRANCH   9  10
ATOM     10  C   UNL     1       5.303   2.555  11.780  0.00  0.00    +0.000 C 
BRANCH  10  12
ATOM     11  C   UNL     1       7.517   1.679  10.963  0.00  0.00    +0.000 C 
ATOM     12  C   UNL     1       6.025   1.408  11.076  0.00  0.00    +0.000 C 
ENDBRANCH  10  12
ENDBRANCH   9  10
ENDBRANCH   8   9
ENDBRANCH   7   8
ENDBRANCH   1   7
BRANCH   5  13
ATOM     13  C   UNL     1       3.571   6.961  17.762  0.00  0.00    +0.000 C 
BRANCH  13  14
ATOM     14  C   UNL     1       2.553   6.207  18.630  0.00  0.00    +0.000 C 
BRANCH  14  15
ATOM     15  N   UNL     1       1.935   5.088  17.914  0.00  0.00    +0.000 NA
ATOM     16  H   UNL     1       2.585   4.647  17.266  0.00  0.00    +0.000 HD
BRANCH  15  17
ATOM     17  C   UNL     1       1.454   4.077  18.876  0.00  0.00    +0.000 C 
BRANCH  17  18
ATOM     18  C   UNL     1       2.579   3.598  19.810  0.00  0.00    +0.000 C 
ATOM     19  O   UNL     1       2.668   3.995  20.974  0.00  0.00    +0.000 OA
ATOM     20  N   UNL     1       3.471   2.662  19.283  0.00  0.00    +0.000 N 
ATOM     21  C   UNL     1       3.419   2.115  17.933  0.00  0.00    +0.000 C 
ATOM     22  C   UNL     1       4.512   2.125  20.143  0.00  0.00    +0.000 C 
ENDBRANCH  17  18
ENDBRANCH  15  17
ENDBRANCH  14  15
ENDBRANCH  13  14
ENDBRANCH   5  13
TORSDOF 10
ENDMDL
MODEL 3
REMARK VINA RESULT:      -5.9      1.682      2.098
REMARK  Name = 
REMARK  13 active torsions:
REMARK  status: ('A' for Active; 'I' for Inactive)
REMARK    1  A    between atoms: C_1  and  C_2
REMARK    2  A    between atoms: C_2  and  C_3
REMARK    3  A    between atoms: C_3  and  C_4
REMARK    4  A    between atoms: C_4  and  C_5
REMARK    5  A    between atoms: C_5  and  O_6
REMARK    6  A    between atoms: O_6  and  C_7
REMARK    7  A    between atoms: C_11  and  C_12
REMARK    8  A    between atoms: C_12  and  C_13
REMARK    9  A    between atoms: C_13  and  N_14
REMARK   10  A    between atoms: N_14  and  C_15
REMARK   11  A    between atoms: C_15  and  C_16
REMARK   12  A    between atoms: N_18  and  C_19
REMARK   13  A    between atoms: N_18  and  C_20
REMARK                            x       y       z     vdW  Elec       q    Type
REMARK                         _______ _______ _______ _____ _____    ______ ____
ROOT
ATOM      1  C   UNL     1       6.840   5.367  16.299  0.00  0.00    +0.000 A 
ATOM      2  C   UNL     1       7.520   6.113  17.263  0.00  0.00    +0.000 A 
ATOM      3  C   UNL     1       7.095   6.104  18.591  0.00  0.00    +0.000 A 
ATOM      4  C   UNL     1       6.000   5.326  18.968  0.00  0.00    +0.000 A 
ATOM      5  C   UNL     1       5.309   4.561  18.018  0.00  0.00    +0.000 A 
ATOM      6  C   UNL     1       5.747   4.584  16.683  0.00  0.00    +0.000 A 
ENDROOT
BRANCH   1   7
ATOM      7  O   UNL     1       7.359   5.424  15.031  0.00  0.00    +0.000 OA
BRANCH   7   8
ATOM      8  C   UNL     1       6.774   4.520  14.090  0.00  0.00    +0.000 C 
BRANCH   8   9
ATOM      9  C   UNL     1       7.304   4.854  12.696  0.00  0.00    +0.000 C 
BRANCH   9  10
ATOM     10  C   UNL     1       6.940   3.758  11.695  0.00  0.00    +0.000 C 
BRANCH  10  12
ATOM     11  C   UNL     1       4.464   3.375  11.451  0.00  0.00    +0.000 C 
ATOM     12  C   UNL     1       5.737   2.943  12.164  0.00  0.00    +0.000 C 
ENDBRANCH  10  12
ENDBRANCH   9  10
ENDBRANCH   8   9
ENDBRANCH   7   8
ENDBRANCH   1   7
BRANCH   5  13
ATOM     13  C   UNL     1       4.140   3.689  18.428  0.00  0.00    +0.000 C 
BRANCH  13  14
ATOM     14  C   UNL     1       3.443   3.042  17.222  0.00  0.00    +0.000 C 
BRANCH  14  15
ATOM     15  N   UNL     1       2.055   3.488  17.077  0.00  0.00    +0.000 NA
ATOM     16  H   UNL     1       1.423   2.708  16.906  0.00  0.00    +0.000 HD
BRANCH  15  17
ATOM     17  C   UNL     1       1.624   4.199  18.296  0.00  0.00    +0.000 C 
BRANCH  17  18
ATOM     18  C   UNL     1       1.133   3.226  19.381  0.00  0.00    +0.000 C 
ATOM     19  O   UNL     1       0.486   2.215  19.100  0.00  0.00    +0.000 OA
ATOM     20  N   UNL     1       1.491   3.527  20.697  0.00  0.00    +0.000 N 
ATOM     21  C   UNL     1       2.280   4.680  21.113  0.00  0.00    +0.000 C 
ATOM     22  C   UNL     1       1.111   2.606  21.754  0.00  0.00    +0.000 C 
ENDBRANCH  17  18
ENDBRANCH  15  17
ENDBRANCH  14  15
ENDBRANCH  13  14
ENDBRANCH   5  13
TORSDOF 10
ENDMDL
MODEL 4
REMARK VINA RESULT:      -5.9      3.991      5.306
REMARK  Name = 
REMARK  13 active torsions:
REMARK  status: ('A' for Active; 'I' for Inactive)
REMARK    1  A    between atoms: C_1  and  C_2
REMARK    2  A    between atoms: C_2  and  C_3
REMARK    3  A    between atoms: C_3  and  C_4
REMARK    4  A    between atoms: C_4  and  C_5
REMARK    5  A    between atoms: C_5  and  O_6
REMARK    6  A    between atoms: O_6  and  C_7
REMARK    7  A    between atoms: C_11  and  C_12
REMARK    8  A    between atoms: C_12  and  C_13
REMARK    9  A    between atoms: C_13  and  N_14
REMARK   10  A    between atoms: N_14  and  C_15
REMARK   11  A    between atoms: C_15  and  C_16
REMARK   12  A    between atoms: N_18  and  C_19
REMARK   13  A    between atoms: N_18  and  C_20
REMARK                            x       y       z     vdW  Elec       q    Type
REMARK                         _______ _______ _______ _____ _____    ______ ____
ROOT
ATOM      1  C   UNL     1       4.596   4.710  17.056  0.00  0.00    +0.000 A 
ATOM      2  C   UNL     1       3.702   3.648  16.909  0.00  0.00    +0.000 A 
ATOM      3  C   UNL     1       2.407   3.741  17.417  0.00  0.00    +0.000 A 
ATOM      4  C   UNL     1       1.991   4.909  18.057  0.00  0.00    +0.000 A 
ATOM      5  C   UNL     1       2.869   5.991  18.206  0.00  0.00    +0.000 A 
ATOM      6  C   UNL     1       4.172   5.881  17.692  0.00  0.00    +0.000 A 
ENDROOT
BRANCH   1   7
ATOM      7  O   UNL     1       5.833   4.526  16.493  0.00  0.00    +0.000 OA
BRANCH   7   8
ATOM      8  C   UNL     1       5.880   3.592  15.412  0.00  0.00    +0.000 C 
BRANCH   8   9
ATOM      9  C   UNL     1       5.608   4.340  14.108  0.00  0.00    +0.000 C 
BRANCH   9  10
ATOM     10  C   UNL     1       6.532   3.850  12.993  0.00  0.00    +0.000 C 
BRANCH  10  12
ATOM     11  C   UNL     1       4.420   3.468  11.678  0.00  0.00    +0.000 C 
ATOM     12  C   UNL     1       5.801   2.928  12.020  0.00  0.00    +0.000 C 
ENDBRANCH  10  12
ENDBRANCH   9  10
ENDBRANCH   8   9
ENDBRANCH   7   8
ENDBRANCH   1   7
BRANCH   5  13
ATOM     13  C   UNL     1       2.411   7.273  18.871  0.00  0.00    +0.000 C 
BRANCH  13  14
ATOM     14  C   UNL     1       1.935   7.045  20.313  0.00  0.00    +0.000 C 
BRANCH  14  15
ATOM     15  N   UNL     1       1.726   8.302  21.035  0.00  0.00    +0.000 NA
ATOM     16  H   UNL     1       1.883   9.112  20.438  0.00  0.00    +0.000 HD
BRANCH  15  17
ATOM     17  C   UNL     1       0.351   8.356  21.567  0.00  0.00    +0.000 C 
BRANCH  17  18
ATOM     18  C   UNL     1       0.077   9.677  22.307  0.00  0.00    +0.000 C 
ATOM     19  O   UNL     1       0.277   9.796  23.517  0.00  0.00    +0.000 OA
ATOM     20  N   UNL     1      -0.375  10.745  21.528  0.00  0.00    +0.000 N 
ATOM     21  C   UNL     1      -0.606  10.701  20.090  0.00  0.00    +0.000 C 
ATOM     22  C   UNL     1      -0.586  12.034  22.164  0.00  0.00    +0.000 C 
ENDBRANCH  17  18
ENDBRANCH  15  17
ENDBRANCH  14  15
ENDBRANCH  13  14
ENDBRANCH   5  13
TORSDOF 10
ENDMDL
MODEL 5
REMARK VINA RESULT:      -5.8      1.186      1.446
REMARK  Name = 
REMARK  13 active torsions:
REMARK  status: ('A' for Active; 'I' for Inactive)
REMARK    1  A    between atoms: C_1  and  C_2
REMARK    2  A    between atoms: C_2  and  C_3
REMARK    3  A    between atoms: C_3  and  C_4
REMARK    4  A    between atoms: C_4  and  C_5
REMARK    5  A    between atoms: C_5  and  O_6
REMARK    6  A    between atoms: O_6  and  C_7
REMARK    7  A    between atoms: C_11  and  C_12
REMARK    8  A    between atoms: C_12  and  C_13
REMARK    9  A    between atoms: C_13  and  N_14
REMARK   10  A    between atoms: N_14  and  C_15
REMARK   11  A    between atoms: C_15  and  C_16
REMARK   12  A    between atoms: N_18  and  C_19
REMARK   13  A    between atoms: N_18  and  C_20
REMARK                            x       y       z     vdW  Elec       q    Type
REMARK                         _______ _______ _______ _____ _____    ______ ____
ROOT
ATOM      1  C   UNL     1       6.504   5.444  16.295  0.00  0.00    +0.000 A 
ATOM      2  C   UNL     1       7.271   5.172  17.429  0.00  0.00    +0.000 A 
ATOM      3  C   UNL     1       6.702   5.246  18.700  0.00  0.00    +0.000 A 
ATOM      4  C   UNL     1       5.353   5.572  18.842  0.00  0.00    +0.000 A 
ATOM      5  C   UNL     1       4.562   5.840  17.716  0.00  0.00    +0.000 A 
ATOM      6  C   UNL     1       5.151   5.764  16.443  0.00  0.00    +0.000 A 
ENDROOT
BRANCH   1   7
ATOM      7  O   UNL     1       7.154   5.313  15.095  0.00  0.00    +0.000 OA
BRANCH   7   8
ATOM      8  C   UNL     1       6.888   4.100  14.385  0.00  0.00    +0.000 C 
BRANCH   8   9
ATOM      9  C   UNL     1       6.689   4.432  12.907  0.00  0.00    +0.000 C 
BRANCH   9  10
ATOM     10  C   UNL     1       5.894   3.334  12.201  0.00  0.00    +0.000 C 
BRANCH  10  12
ATOM     11  C   UNL     1       3.807   2.846  10.881  0.00  0.00    +0.000 C 
ATOM     12  C   UNL     1       4.476   3.791  11.867  0.00  0.00    +0.000 C 
ENDBRANCH  10  12
ENDBRANCH   9  10
ENDBRANCH   8   9
ENDBRANCH   7   8
ENDBRANCH   1   7
BRANCH   5  13
ATOM     13  C   UNL     1       3.089   6.162  17.863  0.00  0.00    +0.000 C 
BRANCH  13  14
ATOM     14  C   UNL     1       2.237   4.904  18.085  0.00  0.00    +0.000 C 
BRANCH  14  15
ATOM     15  N   UNL     1       2.566   3.836  17.139  0.00  0.00    +0.000 NA
ATOM     16  H   UNL     1       3.488   3.966  16.726  0.00  0.00    +0.000 HD
BRANCH  15  17
ATOM     17  C   UNL     1       2.524   2.528  17.820  0.00  0.00    +0.000 C 
BRANCH  17  18
ATOM     18  C   UNL     1       1.585   2.548  19.039  0.00  0.00    +0.000 C 
ATOM     19  O   UNL     1       0.360   2.486  18.914  0.00  0.00    +0.000 OA
ATOM     20  N   UNL     1       2.194   2.603  20.294  0.00  0.00    +0.000 N 
ATOM     21  C   UNL     1       3.631   2.646  20.533  0.00  0.00    +0.000 C 
ATOM     22  C   UNL     1       1.356   2.557  21.481  0.00  0.00    +0.000 C 
ENDBRANCH  17  18
ENDBRANCH  15  17
ENDBRANCH  14  15
ENDBRANCH  13  14
ENDBRANCH   5  13
TORSDOF 10
ENDMDL
MODEL 6
REMARK VINA RESULT:      -5.8      2.462      6.403
REMARK  Name = 
REMARK  13 active torsions:
REMARK  status: ('A' for Active; 'I' for Inactive)
REMARK    1  A    between atoms: C_1  and  C_2
REMARK    2  A    between atoms: C_2  and  C_3
REMARK    3  A    between atoms: C_3  and  C_4
REMARK    4  A    between atoms: C_4  and  C_5
REMARK    5  A    between atoms: C_5  and  O_6
REMARK    6  A    between atoms: O_6  and  C_7
REMARK    7  A    between atoms: C_11  and  C_12
REMARK    8  A    between atoms: C_12  and  C_13
REMARK    9  A    between atoms: C_13  and  N_14
REMARK   10  A    between atoms: N_14  and  C_15
REMARK   11  A    between atoms: C_15  and  C_16
REMARK   12  A    between atoms: N_18  and  C_19
REMARK   13  A    between atoms: N_18  and  C_20
REMARK                            x       y       z     vdW  Elec       q    Type
REMARK                         _______ _______ _______ _____ _____    ______ ____
ROOT
ATOM      1  C   UNL     1       3.607   5.371  19.530  0.00  0.00    +0.000 A 
ATOM      2  C   UNL     1       2.664   6.181  18.896  0.00  0.00    +0.000 A 
ATOM      3  C   UNL     1       3.044   7.017  17.846  0.00  0.00    +0.000 A 
ATOM      4  C   UNL     1       4.368   7.029  17.408  0.00  0.00    +0.000 A 
ATOM      5  C   UNL     1       5.330   6.216  18.024  0.00  0.00    +0.000 A 
ATOM      6  C   UNL     1       4.933   5.383  19.083  0.00  0.00    +0.000 A 
ENDROOT
BRANCH   1   7
ATOM      7  O   UNL     1       3.122   4.567  20.529  0.00  0.00    +0.000 OA
BRANCH   7   8
ATOM      8  C   UNL     1       1.729   4.718  20.813  0.00  0.00    +0.000 C 
BRANCH   8   9
ATOM      9  C   UNL     1       1.105   3.329  20.948  0.00  0.00    +0.000 C 
BRANCH   9  10
ATOM     10  C   UNL     1       1.788   2.330  20.015  0.00  0.00    +0.000 C 
BRANCH  10  12
ATOM     11  C   UNL     1       2.456   2.321  17.588  0.00  0.00    +0.000 C 
ATOM     12  C   UNL     1       1.309   2.488  18.573  0.00  0.00    +0.000 C 
ENDBRANCH  10  12
ENDBRANCH   9  10
ENDBRANCH   8   9
ENDBRANCH   7   8
ENDBRANCH   1   7
BRANCH   5  13
ATOM     13  C   UNL     1       6.762   6.202  17.531  0.00  0.00    +0.000 C 
BRANCH  13  14
ATOM     14  C   UNL     1       7.019   5.076  16.518  0.00  0.00    +0.000 C 
BRANCH  14  15
ATOM     15  N   UNL     1       7.284   5.590  15.172  0.00  0.00    +0.000 NA
ATOM     16  H   UNL     1       8.162   6.104  15.129  0.00  0.00    +0.000 HD
BRANCH  15  17
ATOM     17  C   UNL     1       7.331   4.474  14.207  0.00  0.00    +0.000 C 
BRANCH  17  18
ATOM     18  C   UNL     1       5.938   4.149  13.642  0.00  0.00    +0.000 C 
ATOM     19  O   UNL     1       4.906   4.492  14.224  0.00  0.00    +0.000 OA
ATOM     20  N   UNL     1       5.902   3.479  12.417  0.00  0.00    +0.000 N 
ATOM     21  C   UNL     1       7.070   3.068  11.647  0.00  0.00    +0.000 C 
ATOM     22  C   UNL     1       4.613   3.207  11.806  0.00  0.00    +0.000 C 
ENDBRANCH  17  18
ENDBRANCH  15  17
ENDBRANCH  14  15
ENDBRANCH  13  14
ENDBRANCH   5  13
TORSDOF 10
ENDMDL
MODEL 7
REMARK VINA RESULT:      -5.7      3.179      7.390
REMARK  Name = 
REMARK  13 active torsions:
REMARK  status: ('A' for Active; 'I' for Inactive)
REMARK    1  A    between atoms: C_1  and  C_2
REMARK    2  A    between atoms: C_2  and  C_3
REMARK    3  A    between atoms: C_3  and  C_4
REMARK    4  A    between atoms: C_4  and  C_5
REMARK    5  A    between atoms: C_5  and  O_6
REMARK    6  A    between atoms: O_6  and  C_7
REMARK    7  A    between atoms: C_11  and  C_12
REMARK    8  A    between atoms: C_12  and  C_13
REMARK    9  A    between atoms: C_13  and  N_14
REMARK   10  A    between atoms: N_14  and  C_15
REMARK   11  A    between atoms: C_15  and  C_16
REMARK   12  A    between atoms: N_18  and  C_19
REMARK   13  A    between atoms: N_18  and  C_20
REMARK                            x       y       z     vdW  Elec       q    Type
REMARK                         _______ _______ _______ _____ _____    ______ ____
ROOT
ATOM      1  C   UNL     1       1.489   4.825  20.246  0.00  0.00    +0.000 A 
ATOM      2  C   UNL     1       1.395   3.720  21.094  0.00  0.00    +0.000 A 
ATOM      3  C   UNL     1       1.741   2.449  20.637  0.00  0.00    +0.000 A 
ATOM      4  C   UNL     1       2.208   2.279  19.334  0.00  0.00    +0.000 A 
ATOM      5  C   UNL     1       2.320   3.377  18.469  0.00  0.00    +0.000 A 
ATOM      6  C   UNL     1       1.963   4.651  18.942  0.00  0.00    +0.000 A 
ENDROOT
BRANCH   1   7
ATOM      7  O   UNL     1       1.152   6.032  20.804  0.00  0.00    +0.000 OA
BRANCH   7   8
ATOM      8  C   UNL     1       2.009   7.124  20.462  0.00  0.00    +0.000 C 
BRANCH   8   9
ATOM      9  C   UNL     1       1.196   8.417  20.511  0.00  0.00    +0.000 C 
BRANCH   9  10
ATOM     10  C   UNL     1       1.079   8.936  21.944  0.00  0.00    +0.000 C 
BRANCH  10  12
ATOM     11  C   UNL     1      -0.745  10.198  23.134  0.00  0.00    +0.000 C 
ATOM     12  C   UNL     1      -0.365   8.899  22.440  0.00  0.00    +0.000 C 
ENDBRANCH  10  12
ENDBRANCH   9  10
ENDBRANCH   8   9
ENDBRANCH   7   8
ENDBRANCH   1   7
BRANCH   5  13
ATOM     13  C   UNL     1       2.857   3.202  17.063  0.00  0.00    +0.000 C 
BRANCH  13  14
ATOM     14  C   UNL     1       4.098   4.068  16.801  0.00  0.00    +0.000 C 
BRANCH  14  15
ATOM     15  N   UNL     1       5.312   3.264  16.637  0.00  0.00    +0.000 NA
ATOM     16  H   UNL     1       5.099   2.315  16.334  0.00  0.00    +0.000 HD
BRANCH  15  17
ATOM     17  C   UNL     1       6.205   3.896  15.647  0.00  0.00    +0.000 C 
BRANCH  17  18
ATOM     18  C   UNL     1       6.416   5.392  15.940  0.00  0.00    +0.000 C 
ATOM     19  O   UNL     1       5.939   6.268  15.216  0.00  0.00    +0.000 OA
ATOM     20  N   UNL     1       7.142   5.704  17.091  0.00  0.00    +0.000 N 
ATOM     21  C   UNL     1       7.711   4.735  18.019  0.00  0.00    +0.000 C 
ATOM     22  C   UNL     1       7.314   7.101  17.452  0.00  0.00    +0.000 C 
ENDBRANCH  17  18
ENDBRANCH  15  17
ENDBRANCH  14  15
ENDBRANCH  13  14
ENDBRANCH   5  13
TORSDOF 10
ENDMDL
MODEL 8
REMARK VINA RESULT:      -5.7      1.379      1.627
REMARK  Name = 
REMARK  13 active torsions:
REMARK  status: ('A' for Active; 'I' for Inactive)
REMARK    1  A    between atoms: C_1  and  C_2
REMARK    2  A    between atoms: C_2  and  C_3
REMARK    3  A    between atoms: C_3  and  C_4
REMARK    4  A    between atoms: C_4  and  C_5
REMARK    5  A    between atoms: C_5  and  O_6
REMARK    6  A    between atoms: O_6  and  C_7
REMARK    7  A    between atoms: C_11  and  C_12
REMARK    8  A    between atoms: C_12  and  C_13
REMARK    9  A    between atoms: C_13  and  N_14
REMARK   10  A    between atoms: N_14  and  C_15
REMARK   11  A    between atoms: C_15  and  C_16
REMARK   12  A    between atoms: N_18  and  C_19
REMARK   13  A    between atoms: N_18  and  C_20
REMARK                            x       y       z     vdW  Elec       q    Type
REMARK                         _______ _______ _______ _____ _____    ______ ____
ROOT
ATOM      1  C   UNL     1       6.082   5.765  16.625  0.00  0.00    +0.000 A 
ATOM      2  C   UNL     1       6.918   5.423  17.689  0.00  0.00    +0.000 A 
ATOM      3  C   UNL     1       6.412   5.343  18.986  0.00  0.00    +0.000 A 
ATOM      4  C   UNL     1       5.058   5.584  19.223  0.00  0.00    +0.000 A 
ATOM      5  C   UNL     1       4.199   5.920  18.167  0.00  0.00    +0.000 A 
ATOM      6  C   UNL     1       4.725   5.999  16.866  0.00  0.00    +0.000 A 
ENDROOT
BRANCH   1   7
ATOM      7  O   UNL     1       6.675   5.785  15.388  0.00  0.00    +0.000 OA
BRANCH   7   8
ATOM      8  C   UNL     1       7.049   4.506  14.869  0.00  0.00    +0.000 C 
BRANCH   8   9
ATOM      9  C   UNL     1       6.644   4.439  13.397  0.00  0.00    +0.000 C 
BRANCH   9  10
ATOM     10  C   UNL     1       5.220   3.905  13.244  0.00  0.00    +0.000 C 
BRANCH  10  12
ATOM     11  C   UNL     1       6.035   2.163  11.620  0.00  0.00    +0.000 C 
ATOM     12  C   UNL     1       5.006   3.254  11.880  0.00  0.00    +0.000 C 
ENDBRANCH  10  12
ENDBRANCH   9  10
ENDBRANCH   8   9
ENDBRANCH   7   8
ENDBRANCH   1   7
BRANCH   5  13
ATOM     13  C   UNL     1       2.723   6.150  18.414  0.00  0.00    +0.000 C 
BRANCH  13  14
ATOM     14  C   UNL     1       2.410   6.384  19.900  0.00  0.00    +0.000 C 
BRANCH  14  15
ATOM     15  N   UNL     1       1.623   5.294  20.480  0.00  0.00    +0.000 NA
ATOM     16  H   UNL     1       0.701   5.609  20.778  0.00  0.00    +0.000 HD
BRANCH  15  17
ATOM     17  C   UNL     1       1.464   4.206  19.496  0.00  0.00    +0.000 C 
BRANCH  17  18
ATOM     18  C   UNL     1       2.427   3.039  19.775  0.00  0.00    +0.000 C 
ATOM     19  O   UNL     1       2.714   2.697  20.924  0.00  0.00    +0.000 OA
ATOM     20  N   UNL     1       2.927   2.364  18.660  0.00  0.00    +0.000 N 
ATOM     21  C   UNL     1       2.614   2.680  17.272  0.00  0.00    +0.000 C 
ATOM     22  C   UNL     1       3.788   1.212  18.867  0.00  0.00    +0.000 C 
ENDBRANCH  17  18
ENDBRANCH  15  17
ENDBRANCH  14  15
ENDBRANCH  13  14
ENDBRANCH   5  13
TORSDOF 10
ENDMDL
MODEL 9
REMARK VINA RESULT:      -5.7      3.507      6.484
REMARK  Name = 
REMARK  13 active torsions:
REMARK  status: ('A' for Active; 'I' for Inactive)
REMARK    1  A    between atoms: C_1  and  C_2
REMARK    2  A    between atoms: C_2  and  C_3
REMARK    3  A    between atoms: C_3  and  C_4
REMARK    4  A    between atoms: C_4  and  C_5
REMARK    5  A    between atoms: C_5  and  O_6
REMARK    6  A    between atoms: O_6  and  C_7
REMARK    7  A    between atoms: C_11  and  C_12
REMARK    8  A    between atoms: C_12  and  C_13
REMARK    9  A    between atoms: C_13  and  N_14
REMARK   10  A    between atoms: N_14  and  C_15
REMARK   11  A    between atoms: C_15  and  C_16
REMARK   12  A    between atoms: N_18  and  C_19
REMARK   13  A    between atoms: N_18  and  C_20
REMARK                            x       y       z     vdW  Elec       q    Type
REMARK                         _______ _______ _______ _____ _____    ______ ____
ROOT
ATOM      1  C   UNL     1       3.843   3.880  17.198  0.00  0.00    +0.000 A 
ATOM      2  C   UNL     1       4.842   4.158  16.264  0.00  0.00    +0.000 A 
ATOM      3  C   UNL     1       5.237   5.474  16.024  0.00  0.00    +0.000 A 
ATOM      4  C   UNL     1       4.650   6.520  16.737  0.00  0.00    +0.000 A 
ATOM      5  C   UNL     1       3.652   6.262  17.687  0.00  0.00    +0.000 A 
ATOM      6  C   UNL     1       3.262   4.932  17.915  0.00  0.00    +0.000 A 
ENDROOT
BRANCH   1   7
ATOM      7  O   UNL     1       3.552   2.552  17.378  0.00  0.00    +0.000 OA
BRANCH   7   8
ATOM      8  C   UNL     1       3.258   2.167  18.723  0.00  0.00    +0.000 C 
BRANCH   8   9
ATOM      9  C   UNL     1       1.772   1.823  18.819  0.00  0.00    +0.000 C 
BRANCH   9  10
ATOM     10  C   UNL     1       1.013   2.890  19.608  0.00  0.00    +0.000 C 
BRANCH  10  12
ATOM     11  C   UNL     1       2.217   3.908  21.570  0.00  0.00    +0.000 C 
ATOM     12  C   UNL     1       1.296   2.791  21.105  0.00  0.00    +0.000 C 
ENDBRANCH  10  12
ENDBRANCH   9  10
ENDBRANCH   8   9
ENDBRANCH   7   8
ENDBRANCH   1   7
BRANCH   5  13
ATOM     13  C   UNL     1       3.035   7.391  18.487  0.00  0.00    +0.000 C 
BRANCH  13  14
ATOM     14  C   UNL     1       1.995   6.889  19.499  0.00  0.00    +0.000 C 
BRANCH  14  15
ATOM     15  N   UNL     1       2.047   7.628  20.762  0.00  0.00    +0.000 NA
ATOM     16  H   UNL     1       2.768   8.348  20.751  0.00  0.00    +0.000 HD
BRANCH  15  17
ATOM     17  C   UNL     1       0.741   8.260  21.031  0.00  0.00    +0.000 C 
BRANCH  17  18
ATOM     18  C   UNL     1       0.883   9.766  21.315  0.00  0.00    +0.000 C 
ATOM     19  O   UNL     1       1.174  10.190  22.435  0.00  0.00    +0.000 OA
ATOM     20  N   UNL     1       0.702  10.624  20.228  0.00  0.00    +0.000 N 
ATOM     21  C   UNL     1       0.390  10.207  18.867  0.00  0.00    +0.000 C 
ATOM     22  C   UNL     1       0.890  12.051  20.425  0.00  0.00    +0.000 C 
ENDBRANCH  17  18
ENDBRANCH  15  17
ENDBRANCH  14  15
ENDBRANCH  13  14
ENDBRANCH   5  13
TORSDOF 10
ENDMDL
