MODEL 1
REMARK VINA RESULT:      -6.0      0.000      0.000
REMARK  Name = 
REMARK  7 active torsions:
REMARK  status: ('A' for Active; 'I' for Inactive)
REMARK    1  A    between atoms: C_1  and  O_2
REMARK    2  A    between atoms: O_2  and  C_3
REMARK    3  A    between atoms: C_9  and  N_10
REMARK    4  A    between atoms: C_11  and  S_12
REMARK    5  A    between atoms: N_13  and  C_14
REMARK    6  A    between atoms: C_14  and  C_15
REMARK    7  A    between atoms: C_15  and  O_16
REMARK                            x       y       z     vdW  Elec       q    Type
REMARK                         _______ _______ _______ _____ _____    ______ ____
ROOT
ATOM      1  N   UNL     1       3.880   4.109  18.387  0.00  0.00    +0.000 NA
ATOM      2  C   UNL     1       2.938   4.939  18.705  0.00  0.00    +0.000 C 
ATOM      3  N   UNL     1       1.848   4.566  19.441  0.00  0.00    +0.000 N 
ATOM      4  H   UNL     1       1.020   5.139  19.300  0.00  0.00    +0.000 HD
ENDROOT
BRANCH   1  11
ATOM      5  C   UNL     1       6.285   4.736  17.980  0.00  0.00    +0.000 A 
ATOM      6  C   UNL     1       7.329   4.825  17.038  0.00  0.00    +0.000 A 
ATOM      7  C   UNL     1       7.096   4.580  15.686  0.00  0.00    +0.000 A 
ATOM      8  C   UNL     1       5.819   4.234  15.266  0.00  0.00    +0.000 A 
ATOM      9 CL   UNL     1       5.539   3.878  13.604  0.00  0.00    +0.000 Cl
ATOM     10  C   UNL     1       4.776   4.136  16.183  0.00  0.00    +0.000 A 
ATOM     11  C   UNL     1       4.985   4.380  17.555  0.00  0.00    +0.000 A 
BRANCH   5  13
ATOM     12  C   UNL     1       7.709   5.629  19.636  0.00  0.00    +0.000 C 
ATOM     13  O   UNL     1       6.506   4.920  19.326  0.00  0.00    +0.000 OA
ENDBRANCH   5  13
ENDBRANCH   1  11
BRANCH   2  14
ATOM     14  S   UNL     1       2.873   6.634  18.313  0.00  0.00    +0.000 S 
ATOM     15  H   UNL     1       3.980   6.905  19.024  0.00  0.00    +0.000 HD
ENDBRANCH   2  14
BRANCH   3  16
ATOM     16  C   UNL     1       1.613   3.208  19.908  0.00  0.00    +0.000 C 
BRANCH  16  17
ATOM     17  C   UNL     1       0.961   2.386  18.792  0.00  0.00    +0.000 C 
BRANCH  17  18
ATOM     18  O   UNL     1       1.964   1.636  18.100  0.00  0.00    +0.000 OA
ATOM     19  H   UNL     1       1.736   0.704  18.264  0.00  0.00    +0.000 HD
ENDBRANCH  17  18
ENDBRANCH  16  17
ENDBRANCH   3  16
TORSDOF 6
ENDMDL
MODEL 2
REMARK VINA RESULT:      -5.9      1.062      1.179
REMARK  Name = 
REMARK  7 active torsions:
REMARK  status: ('A' for Active; 'I' for Inactive)
REMARK    1  A    between atoms: C_1  and  O_2
REMARK    2  A    between atoms: O_2  and  C_3
REMARK    3  A    between atoms: C_9  and  N_10
REMARK    4  A    between atoms: C_11  and  S_12
REMARK    5  A    between atoms: N_13  and  C_14
REMARK    6  A    between atoms: C_14  and  C_15
REMARK    7  A    between atoms: C_15  and  O_16
REMARK                            x       y       z     vdW  Elec       q    Type
REMARK                         _______ _______ _______ _____ _____    ______ ____
ROOT
ATOM      1  N   UNL     1       3.863   3.879  18.310  0.00  0.00    +0.000 NA
ATOM      2  C   UNL     1       2.927   4.673  18.722  0.00  0.00    +0.000 C 
ATOM      3  N   UNL     1       1.835   4.225  19.412  0.00  0.00    +0.000 N 
ATOM      4  H   UNL     1       1.010   4.815  19.337  0.00  0.00    +0.000 HD
ENDROOT
BRANCH   1  11
ATOM      5  C   UNL     1       6.244   4.633  17.980  0.00  0.00    +0.000 A 
ATOM      6  C   UNL     1       7.300   4.811  17.065  0.00  0.00    +0.000 A 
ATOM      7  C   UNL     1       7.104   4.614  15.699  0.00  0.00    +0.000 A 
ATOM      8  C   UNL     1       5.853   4.228  15.239  0.00  0.00    +0.000 A 
ATOM      9 CL   UNL     1       5.620   3.931  13.557  0.00  0.00    +0.000 Cl
ATOM     10  C   UNL     1       4.798   4.042  16.128  0.00  0.00    +0.000 A 
ATOM     11  C   UNL     1       4.971   4.237  17.514  0.00  0.00    +0.000 A 
BRANCH   5  13
ATOM     12  C   UNL     1       7.595   5.517  19.701  0.00  0.00    +0.000 C 
ATOM     13  O   UNL     1       6.431   4.769  19.337  0.00  0.00    +0.000 OA
ENDBRANCH   5  13
ENDBRANCH   1  11
BRANCH   2  14
ATOM     14  S   UNL     1       2.872   6.401  18.525  0.00  0.00    +0.000 S 
ATOM     15  H   UNL     1       4.209   6.497  18.437  0.00  0.00    +0.000 HD
ENDBRANCH   2  14
BRANCH   3  16
ATOM     16  C   UNL     1       1.592   2.824  19.722  0.00  0.00    +0.000 C 
BRANCH  16  17
ATOM     17  C   UNL     1       1.463   2.648  21.238  0.00  0.00    +0.000 C 
BRANCH  17  18
ATOM     18  O   UNL     1       2.765   2.528  21.820  0.00  0.00    +0.000 OA
ATOM     19  H   UNL     1       2.712   1.739  22.387  0.00  0.00    +0.000 HD
ENDBRANCH  17  18
ENDBRANCH  16  17
ENDBRANCH   3  16
TORSDOF 6
ENDMDL
MODEL 3
REMARK VINA RESULT:      -5.8      3.412      5.653
REMARK  Name = 
REMARK  7 active torsions:
REMARK  status: ('A' for Active; 'I' for Inactive)
REMARK    1  A    between atoms: C_1  and  O_2
REMARK    2  A    between atoms: O_2  and  C_3
REMARK    3  A    between atoms: C_9  and  N_10
REMARK    4  A    between atoms: C_11  and  S_12
REMARK    5  A    between atoms: N_13  and  C_14
REMARK    6  A    between atoms: C_14  and  C_15
REMARK    7  A    between atoms: C_15  and  O_16
REMARK                            x       y       z     vdW  Elec       q    Type
REMARK                         _______ _______ _______ _____ _____    ______ ____
ROOT
ATOM      1  N   UNL     1       4.623   4.686  17.681  0.00  0.00    +0.000 NA
ATOM      2  C   UNL     1       5.915   4.758  17.706  0.00  0.00    +0.000 C 
ATOM      3  N   UNL     1       6.698   4.305  16.681  0.00  0.00    +0.000 N 
ATOM      4  H   UNL     1       7.643   4.044  16.947  0.00  0.00    +0.000 HD
ENDROOT
BRANCH   1  11
ATOM      5  C   UNL     1       3.106   6.284  18.900  0.00  0.00    +0.000 A 
ATOM      6  C   UNL     1       2.135   6.438  19.908  0.00  0.00    +0.000 A 
ATOM      7  C   UNL     1       1.802   5.378  20.751  0.00  0.00    +0.000 A 
ATOM      8  C   UNL     1       2.432   4.153  20.584  0.00  0.00    +0.000 A 
ATOM      9 CL   UNL     1       1.986   2.825  21.588  0.00  0.00    +0.000 Cl
ATOM     10  C   UNL     1       3.391   3.980  19.590  0.00  0.00    +0.000 A 
ATOM     11  C   UNL     1       3.746   5.036  18.727  0.00  0.00    +0.000 A 
BRANCH   5  13
ATOM     12  C   UNL     1       2.378   8.284  17.881  0.00  0.00    +0.000 C 
ATOM     13  O   UNL     1       3.409   7.302  18.024  0.00  0.00    +0.000 OA
ENDBRANCH   5  13
ENDBRANCH   1  11
BRANCH   2  14
ATOM     14  S   UNL     1       6.890   5.443  18.976  0.00  0.00    +0.000 S 
ATOM     15  H   UNL     1       6.156   6.567  19.020  0.00  0.00    +0.000 HD
ENDBRANCH   2  14
BRANCH   3  16
ATOM     16  C   UNL     1       6.172   3.670  15.482  0.00  0.00    +0.000 C 
BRANCH  16  17
ATOM     17  C   UNL     1       6.563   4.493  14.250  0.00  0.00    +0.000 C 
BRANCH  17  18
ATOM     18  O   UNL     1       7.644   5.370  14.582  0.00  0.00    +0.000 OA
ATOM     19  H   UNL     1       8.061   5.585  13.730  0.00  0.00    +0.000 HD
ENDBRANCH  17  18
ENDBRANCH  16  17
ENDBRANCH   3  16
TORSDOF 6
ENDMDL
MODEL 4
REMARK VINA RESULT:      -5.7      2.940      5.713
REMARK  Name = 
REMARK  7 active torsions:
REMARK  status: ('A' for Active; 'I' for Inactive)
REMARK    1  A    between atoms: C_1  and  O_2
REMARK    2  A    between atoms: O_2  and  C_3
REMARK    3  A    between atoms: C_9  and  N_10
REMARK    4  A    between atoms: C_11  and  S_12
REMARK    5  A    between atoms: N_13  and  C_14
REMARK    6  A    between atoms: C_14  and  C_15
REMARK    7  A    between atoms: C_15  and  O_16
REMARK                            x       y       z     vdW  Elec       q    Type
REMARK                         _______ _______ _______ _____ _____    ______ ____
ROOT
ATOM      1  N   UNL     1       5.274   4.398  18.928  0.00  0.00    +0.000 NA
ATOM      2  C   UNL     1       5.630   4.413  17.683  0.00  0.00    +0.000 C 
ATOM      3  N   UNL     1       6.939   4.484  17.294  0.00  0.00    +0.000 N 
ATOM      4  H   UNL     1       7.089   4.880  16.370  0.00  0.00    +0.000 HD
ENDROOT
BRANCH   1  11
ATOM      5  C   UNL     1       3.188   3.305  19.822  0.00  0.00    +0.000 A 
ATOM      6  C   UNL     1       1.936   3.500  20.437  0.00  0.00    +0.000 A 
ATOM      7  C   UNL     1       1.430   4.782  20.644  0.00  0.00    +0.000 A 
ATOM      8  C   UNL     1       2.178   5.881  20.245  0.00  0.00    +0.000 A 
ATOM      9 CL   UNL     1       1.582   7.470  20.546  0.00  0.00    +0.000 Cl
ATOM     10  C   UNL     1       3.420   5.710  19.639  0.00  0.00    +0.000 A 
ATOM     11  C   UNL     1       3.952   4.423  19.418  0.00  0.00    +0.000 A 
BRANCH   5  13
ATOM     12  C   UNL     1       3.417   1.430  18.409  0.00  0.00    +0.000 C 
ATOM     13  O   UNL     1       3.729   2.050  19.660  0.00  0.00    +0.000 OA
ENDBRANCH   5  13
ENDBRANCH   1  11
BRANCH   2  14
ATOM     14  S   UNL     1       4.575   4.317  16.302  0.00  0.00    +0.000 S 
ATOM     15  H   UNL     1       4.163   5.587  16.448  0.00  0.00    +0.000 HD
ENDBRANCH   2  14
BRANCH   3  16
ATOM     16  C   UNL     1       8.054   4.587  18.222  0.00  0.00    +0.000 C 
BRANCH  16  17
ATOM     17  C   UNL     1       7.920   5.870  19.048  0.00  0.00    +0.000 C 
BRANCH  17  18
ATOM     18  O   UNL     1       7.855   5.542  20.439  0.00  0.00    +0.000 OA
ATOM     19  H   UNL     1       7.483   4.644  20.466  0.00  0.00    +0.000 HD
ENDBRANCH  17  18
ENDBRANCH  16  17
ENDBRANCH   3  16
TORSDOF 6
ENDMDL
MODEL 5
REMARK VINA RESULT:      -5.7      3.099      5.534
REMARK  Name = 
REMARK  7 active torsions:
REMARK  status: ('A' for Active; 'I' for Inactive)
REMARK    1  A    between atoms: C_1  and  O_2
REMARK    2  A    between atoms: O_2  and  C_3
REMARK    3  A    between atoms: C_9  and  N_10
REMARK    4  A    between atoms: C_11  and  S_12
REMARK    5  A    between atoms: N_13  and  C_14
REMARK    6  A    between atoms: C_14  and  C_15
REMARK    7  A    between atoms: C_15  and  O_16
REMARK                            x       y       z     vdW  Elec       q    Type
REMARK                         _______ _______ _______ _____ _____    ______ ____
ROOT
ATOM      1  N   UNL     1       4.391   4.506  17.545  0.00  0.00    +0.000 NA
ATOM      2  C   UNL     1       5.675   4.621  17.661  0.00  0.00    +0.000 C 
ATOM      3  N   UNL     1       6.537   4.293  16.651  0.00  0.00    +0.000 N 
ATOM      4  H   UNL     1       7.474   4.041  16.953  0.00  0.00    +0.000 HD
ENDROOT
BRANCH   1  11
ATOM      5  C   UNL     1       2.956   3.769  19.480  0.00  0.00    +0.000 A 
ATOM      6  C   UNL     1       2.120   4.174  20.538  0.00  0.00    +0.000 A 
ATOM      7  C   UNL     1       1.748   5.509  20.687  0.00  0.00    +0.000 A 
ATOM      8  C   UNL     1       2.218   6.451  19.783  0.00  0.00    +0.000 A 
ATOM      9 CL   UNL     1       1.805   8.111  19.994  0.00  0.00    +0.000 Cl
ATOM     10  C   UNL     1       3.050   6.072  18.733  0.00  0.00    +0.000 A 
ATOM     11  C   UNL     1       3.438   4.728  18.561  0.00  0.00    +0.000 A 
BRANCH   5  13
ATOM     12  C   UNL     1       4.448   2.099  20.226  0.00  0.00    +0.000 C 
ATOM     13  O   UNL     1       3.379   2.466  19.348  0.00  0.00    +0.000 OA
ENDBRANCH   5  13
ENDBRANCH   1  11
BRANCH   2  14
ATOM     14  S   UNL     1       6.542   5.220  19.047  0.00  0.00    +0.000 S 
ATOM     15  H   UNL     1       7.515   4.304  18.914  0.00  0.00    +0.000 HD
ENDBRANCH   2  14
BRANCH   3  16
ATOM     16  C   UNL     1       6.112   3.752  15.369  0.00  0.00    +0.000 C 
BRANCH  16  17
ATOM     17  C   UNL     1       6.735   4.571  14.234  0.00  0.00    +0.000 C 
BRANCH  17  18
ATOM     18  O   UNL     1       7.690   5.490  14.773  0.00  0.00    +0.000 OA
ATOM     19  H   UNL     1       7.785   6.178  14.092  0.00  0.00    +0.000 HD
ENDBRANCH  17  18
ENDBRANCH  16  17
ENDBRANCH   3  16
TORSDOF 6
ENDMDL
MODEL 6
REMARK VINA RESULT:      -5.6      2.000      2.115
REMARK  Name = 
REMARK  7 active torsions:
REMARK  status: ('A' for Active; 'I' for Inactive)
REMARK    1  A    between atoms: C_1  and  O_2
REMARK    2  A    between atoms: O_2  and  C_3
REMARK    3  A    between atoms: C_9  and  N_10
REMARK    4  A    between atoms: C_11  and  S_12
REMARK    5  A    between atoms: N_13  and  C_14
REMARK    6  A    between atoms: C_14  and  C_15
REMARK    7  A    between atoms: C_15  and  O_16
REMARK                            x       y       z     vdW  Elec       q    Type
REMARK                         _______ _______ _______ _____ _____    ______ ____
ROOT
ATOM      1  N   UNL     1       3.653   4.253  18.099  0.00  0.00    +0.000 NA
ATOM      2  C   UNL     1       3.176   3.143  18.564  0.00  0.00    +0.000 C 
ATOM      3  N   UNL     1       2.058   3.095  19.350  0.00  0.00    +0.000 N 
ATOM      4  H   UNL     1       2.002   2.288  19.964  0.00  0.00    +0.000 HD
ENDROOT
BRANCH   1  11
ATOM      5  C   UNL     1       6.136   4.630  17.901  0.00  0.00    +0.000 A 
ATOM      6  C   UNL     1       7.259   4.608  17.053  0.00  0.00    +0.000 A 
ATOM      7  C   UNL     1       7.120   4.383  15.684  0.00  0.00    +0.000 A 
ATOM      8  C   UNL     1       5.855   4.167  15.156  0.00  0.00    +0.000 A 
ATOM      9 CL   UNL     1       5.682   3.835  13.473  0.00  0.00    +0.000 Cl
ATOM     10  C   UNL     1       4.732   4.180  15.979  0.00  0.00    +0.000 A 
ATOM     11  C   UNL     1       4.847   4.407  17.365  0.00  0.00    +0.000 A 
BRANCH   5  13
ATOM     12  C   UNL     1       7.391   5.572  19.663  0.00  0.00    +0.000 C 
ATOM     13  O   UNL     1       6.258   4.796  19.262  0.00  0.00    +0.000 OA
ENDBRANCH   5  13
ENDBRANCH   1  11
BRANCH   2  14
ATOM     14  S   UNL     1       3.805   1.545  18.279  0.00  0.00    +0.000 S 
ATOM     15  H   UNL     1       2.624   1.092  17.827  0.00  0.00    +0.000 HD
ENDBRANCH   2  14
BRANCH   3  16
ATOM     16  C   UNL     1       1.315   4.273  19.772  0.00  0.00    +0.000 C 
BRANCH  16  17
ATOM     17  C   UNL     1       1.999   4.904  20.988  0.00  0.00    +0.000 C 
BRANCH  17  18
ATOM     18  O   UNL     1       2.918   5.912  20.553  0.00  0.00    +0.000 OA
ATOM     19  H   UNL     1       2.437   6.410  19.870  0.00  0.00    +0.000 HD
ENDBRANCH  17  18
ENDBRANCH  16  17
ENDBRANCH   3  16
TORSDOF 6
ENDMDL
MODEL 7
REMARK VINA RESULT:      -5.6      3.487      5.705
REMARK  Name = 
REMARK  7 active torsions:
REMARK  status: ('A' for Active; 'I' for Inactive)
REMARK    1  A    between atoms: C_1  and  O_2
REMARK    2  A    between atoms: O_2  and  C_3
REMARK    3  A    between atoms: C_9  and  N_10
REMARK    4  A    between atoms: C_11  and  S_12
REMARK    5  A    between atoms: N_13  and  C_14
REMARK    6  A    between atoms: C_14  and  C_15
REMARK    7  A    between atoms: C_15  and  O_16
REMARK                            x       y       z     vdW  Elec       q    Type
REMARK                         _______ _______ _______ _____ _____    ______ ____
ROOT
ATOM      1  N   UNL     1       5.191   5.558  16.472  0.00  0.00    +0.000 NA
ATOM      2  C   UNL     1       6.441   5.894  16.443  0.00  0.00    +0.000 C 
ATOM      3  N   UNL     1       7.290   5.485  15.453  0.00  0.00    +0.000 N 
ATOM      4  H   UNL     1       8.271   5.456  15.716  0.00  0.00    +0.000 HD
ENDROOT
BRANCH   1  11
ATOM      5  C   UNL     1       4.128   5.156  18.719  0.00  0.00    +0.000 A 
ATOM      6  C   UNL     1       3.269   5.660  19.716  0.00  0.00    +0.000 A 
ATOM      7  C   UNL     1       2.545   6.834  19.511  0.00  0.00    +0.000 A 
ATOM      8  C   UNL     1       2.682   7.518  18.311  0.00  0.00    +0.000 A 
ATOM      9 CL   UNL     1       1.831   8.997  18.074  0.00  0.00    +0.000 Cl
ATOM     10  C   UNL     1       3.529   7.038  17.315  0.00  0.00    +0.000 A 
ATOM     11  C   UNL     1       4.270   5.853  17.498  0.00  0.00    +0.000 A 
BRANCH   5  13
ATOM     12  C   UNL     1       4.137   2.839  19.164  0.00  0.00    +0.000 C 
ATOM     13  O   UNL     1       4.892   4.030  18.923  0.00  0.00    +0.000 OA
ENDBRANCH   5  13
ENDBRANCH   1  11
BRANCH   2  14
ATOM     14  S   UNL     1       7.265   6.918  17.585  0.00  0.00    +0.000 S 
ATOM     15  H   UNL     1       7.875   5.876  18.175  0.00  0.00    +0.000 HD
ENDBRANCH   2  14
BRANCH   3  16
ATOM     16  C   UNL     1       6.895   4.610  14.359  0.00  0.00    +0.000 C 
BRANCH  16  17
ATOM     17  C   UNL     1       7.663   4.995  13.091  0.00  0.00    +0.000 C 
BRANCH  17  18
ATOM     18  O   UNL     1       8.664   5.966  13.410  0.00  0.00    +0.000 OA
ATOM     19  H   UNL     1       8.191   6.657  13.905  0.00  0.00    +0.000 HD
ENDBRANCH  17  18
ENDBRANCH  16  17
ENDBRANCH   3  16
TORSDOF 6
ENDMDL
MODEL 8
REMARK VINA RESULT:      -5.5      1.508      1.711
REMARK  Name = 
REMARK  7 active torsions:
REMARK  status: ('A' for Active; 'I' for Inactive)
REMARK    1  A    between atoms: C_1  and  O_2
REMARK    2  A    between atoms: O_2  and  C_3
REMARK    3  A    between atoms: C_9  and  N_10
REMARK    4  A    between atoms: C_11  and  S_12
REMARK    5  A    between atoms: N_13  and  C_14
REMARK    6  A    between atoms: C_14  and  C_15
REMARK    7  A    between atoms: C_15  and  O_16
REMARK                            x       y       z     vdW  Elec       q    Type
REMARK                         _______ _______ _______ _____ _____    ______ ____
ROOT
ATOM      1  N   UNL     1       4.617   3.822  17.627  0.00  0.00    +0.000 NA
ATOM      2  C   UNL     1       3.738   4.544  18.244  0.00  0.00    +0.000 C 
ATOM      3  N   UNL     1       2.884   4.026  19.177  0.00  0.00    +0.000 N 
ATOM      4  H   UNL     1       2.016   4.542  19.297  0.00  0.00    +0.000 HD
ENDROOT
BRANCH   1  11
ATOM      5  C   UNL     1       6.731   4.864  16.738  0.00  0.00    +0.000 A 
ATOM      6  C   UNL     1       7.537   5.095  15.606  0.00  0.00    +0.000 A 
ATOM      7  C   UNL     1       7.100   4.737  14.331  0.00  0.00    +0.000 A 
ATOM      8  C   UNL     1       5.858   4.136  14.181  0.00  0.00    +0.000 A 
ATOM      9 CL   UNL     1       5.337   3.643  12.614  0.00  0.00    +0.000 Cl
ATOM     10  C   UNL     1       5.050   3.895  15.288  0.00  0.00    +0.000 A 
ATOM     11  C   UNL     1       5.468   4.249  16.587  0.00  0.00    +0.000 A 
BRANCH   5  13
ATOM     12  C   UNL     1       7.560   6.522  18.199  0.00  0.00    +0.000 C 
ATOM     13  O   UNL     1       7.167   5.159  18.010  0.00  0.00    +0.000 OA
ENDBRANCH   5  13
ENDBRANCH   1  11
BRANCH   2  14
ATOM     14  S   UNL     1       3.485   6.256  18.052  0.00  0.00    +0.000 S 
ATOM     15  H   UNL     1       3.884   6.520  19.307  0.00  0.00    +0.000 HD
ENDBRANCH   2  14
BRANCH   3  16
ATOM     16  C   UNL     1       2.847   2.619  19.547  0.00  0.00    +0.000 C 
BRANCH  16  17
ATOM     17  C   UNL     1       3.920   2.337  20.604  0.00  0.00    +0.000 C 
BRANCH  17  18
ATOM     18  O   UNL     1       5.090   1.809  19.971  0.00  0.00    +0.000 OA
ATOM     19  H   UNL     1       5.367   2.498  19.344  0.00  0.00    +0.000 HD
ENDBRANCH  17  18
ENDBRANCH  16  17
ENDBRANCH   3  16
TORSDOF 6
ENDMDL
MODEL 9
REMARK VINA RESULT:      -5.4      3.522      5.817
REMARK  Name = 
REMARK  7 active torsions:
REMARK  status: ('A' for Active; 'I' for Inactive)
REMARK    1  A    between atoms: C_1  and  O_2
REMARK    2  A    between atoms: O_2  and  C_3
REMARK    3  A    between atoms: C_9  and  N_10
REMARK    4  A    between atoms: C_11  and  S_12
REMARK    5  A    between atoms: N_13  and  C_14
REMARK    6  A    between atoms: C_14  and  C_15
REMARK    7  A    between atoms: C_15  and  O_16
REMARK                            x       y       z     vdW  Elec       q    Type
REMARK                         _______ _______ _______ _____ _____    ______ ____
ROOT
ATOM      1  N   UNL     1       5.340   5.217  16.672  0.00  0.00    +0.000 NA
ATOM      2  C   UNL     1       6.537   5.694  16.553  0.00  0.00    +0.000 C 
ATOM      3  N   UNL     1       7.287   5.527  15.422  0.00  0.00    +0.000 N 
ATOM      4  H   UNL     1       8.292   5.575  15.564  0.00  0.00    +0.000 HD
ENDROOT
BRANCH   1  11
ATOM      5  C   UNL     1       3.659   6.301  18.203  0.00  0.00    +0.000 A 
ATOM      6  C   UNL     1       2.803   6.132  19.309  0.00  0.00    +0.000 A 
ATOM      7  C   UNL     1       2.815   4.952  20.051  0.00  0.00    +0.000 A 
ATOM      8  C   UNL     1       3.677   3.927  19.687  0.00  0.00    +0.000 A 
ATOM      9 CL   UNL     1       3.658   2.447  20.568  0.00  0.00    +0.000 Cl
ATOM     10  C   UNL     1       4.528   4.073  18.594  0.00  0.00    +0.000 A 
ATOM     11  C   UNL     1       4.535   5.257  17.829  0.00  0.00    +0.000 A 
BRANCH   5  13
ATOM     12  C   UNL     1       2.582   8.355  17.769  0.00  0.00    +0.000 C 
ATOM     13  O   UNL     1       3.623   7.435  17.425  0.00  0.00    +0.000 OA
ENDBRANCH   5  13
ENDBRANCH   1  11
BRANCH   2  14
ATOM     14  S   UNL     1       7.399   6.636  17.737  0.00  0.00    +0.000 S 
ATOM     15  H   UNL     1       7.227   7.776  17.049  0.00  0.00    +0.000 HD
ENDBRANCH   2  14
BRANCH   3  16
ATOM     16  C   UNL     1       6.840   4.774  14.260  0.00  0.00    +0.000 C 
BRANCH  16  17
ATOM     17  C   UNL     1       7.673   5.174  13.038  0.00  0.00    +0.000 C 
BRANCH  17  18
ATOM     18  O   UNL     1       8.789   5.966  13.455  0.00  0.00    +0.000 OA
ATOM     19  H   UNL     1       9.556   5.574  13.004  0.00  0.00    +0.000 HD
ENDBRANCH  17  18
ENDBRANCH  16  17
ENDBRANCH   3  16
TORSDOF 6
ENDMDL
