MODEL 1
REMARK VINA RESULT:      -9.4      0.000      0.000
REMARK  Name = 
REMARK  7 active torsions:
REMARK  status: ('A' for Active; 'I' for Inactive)
REMARK    1  A    between atoms: C_1  and  C_2
REMARK    2  A    between atoms: C_2  and  N_3
REMARK    3  A    between atoms: C_2  and  C_27
REMARK    4  A    between atoms: C_6  and  C_7
REMARK    5  A    between atoms: C_11  and  C_12
REMARK    6  A    between atoms: C_15  and  O_16
REMARK    7  A    between atoms: O_16  and  C_17
REMARK                            x       y       z     vdW  Elec       q    Type
REMARK                         _______ _______ _______ _____ _____    ______ ____
ROOT
ATOM      1  N   UNL     1       6.161   4.664  19.139  0.00  0.00    +0.000 N 
ATOM      2  C   UNL     1       4.788   4.772  19.114  0.00  0.00    +0.000 A 
ATOM      3  C   UNL     1       4.035   3.628  19.027  0.00  0.00    +0.000 A 
ATOM      4  C   UNL     1       2.686   3.804  18.818  0.00  0.00    +0.000 A 
ATOM      5  N   UNL     1       2.066   5.005  18.770  0.00  0.00    +0.000 NA
ATOM      6  C   UNL     1       2.871   6.064  18.921  0.00  0.00    +0.000 A 
ATOM      7  N   UNL     1       4.216   5.981  19.033  0.00  0.00    +0.000 NA
ATOM      8  H   UNL     1       6.584   3.849  19.563  0.00  0.00    +0.000 HD
ENDROOT
BRANCH   6   9
ATOM      9  C   UNL     1       2.261   7.408  18.990  0.00  0.00    +0.000 A 
ATOM     10  C   UNL     1       2.238   8.277  17.880  0.00  0.00    +0.000 A 
ATOM     11  C   UNL     1       1.612   9.532  17.944  0.00  0.00    +0.000 A 
ATOM     12  C   UNL     1       0.984   9.945  19.117  0.00  0.00    +0.000 A 
ATOM     13  C   UNL     1       1.034   9.123  20.243  0.00  0.00    +0.000 A 
ATOM     14  C   UNL     1       1.650   7.869  20.172  0.00  0.00    +0.000 A 
BRANCH  12  15
ATOM     15  O   UNL     1       0.417  11.199  19.109  0.00  0.00    +0.000 OA
BRANCH  15  16
ATOM     16  C   UNL     1      -0.955  11.300  18.913  0.00  0.00    +0.000 A 
ATOM     17  C   UNL     1      -1.511  10.450  17.967  0.00  0.00    +0.000 A 
ATOM     18  C   UNL     1      -2.883  10.526  17.728  0.00  0.00    +0.000 A 
ATOM     19  C   UNL     1      -3.638  11.439  18.451  0.00  0.00    +0.000 A 
ATOM     20  F   UNL     1      -4.953  11.552  18.235  0.00  0.00    +0.000 F 
ATOM     21  C   UNL     1      -3.008  12.226  19.399  0.00  0.00    +0.000 A 
ATOM     22  N   UNL     1      -1.680  12.170  19.658  0.00  0.00    +0.000 NA
ENDBRANCH  15  16
ENDBRANCH  12  15
ENDBRANCH   6   9
BRANCH   4  23
ATOM     23  C   UNL     1       1.840   2.602  18.542  0.00  0.00    +0.000 C 
ATOM     24  N   UNL     1       2.446   1.594  17.843  0.00  0.00    +0.000 N 
ATOM     25  O   UNL     1       0.688   2.504  18.946  0.00  0.00    +0.000 OA
ATOM     26  H   UNL     1       3.415   1.680  17.562  0.00  0.00    +0.000 HD
ATOM     27  H   UNL     1       1.942   0.733  17.686  0.00  0.00    +0.000 HD
ENDBRANCH   4  23
BRANCH   1  29
ATOM     28  C   UNL     1       8.284   5.787  19.622  0.00  0.00    +0.000 C 
ATOM     29  C   UNL     1       7.047   5.759  18.728  0.00  0.00    +0.000 C 
BRANCH  29  30
ATOM     30  C   UNL     1       7.459   5.534  17.255  0.00  0.00    +0.000 C 
ATOM     31  N   UNL     1       7.786   4.244  16.934  0.00  0.00    +0.000 N 
ATOM     32  O   UNL     1       7.500   6.411  16.398  0.00  0.00    +0.000 OA
ATOM     33  H   UNL     1       7.948   3.565  17.666  0.00  0.00    +0.000 HD
ATOM     34  H   UNL     1       8.160   4.073  16.012  0.00  0.00    +0.000 HD
ENDBRANCH  29  30
ENDBRANCH   1  29
TORSDOF 6
ENDMDL
MODEL 2
REMARK VINA RESULT:      -9.3      0.621      1.087
REMARK  Name = 
REMARK  7 active torsions:
REMARK  status: ('A' for Active; 'I' for Inactive)
REMARK    1  A    between atoms: C_1  and  C_2
REMARK    2  A    between atoms: C_2  and  N_3
REMARK    3  A    between atoms: C_2  and  C_27
REMARK    4  A    between atoms: C_6  and  C_7
REMARK    5  A    between atoms: C_11  and  C_12
REMARK    6  A    between atoms: C_15  and  O_16
REMARK    7  A    between atoms: O_16  and  C_17
REMARK                            x       y       z     vdW  Elec       q    Type
REMARK                         _______ _______ _______ _____ _____    ______ ____
ROOT
ATOM      1  N   UNL     1       6.099   4.587  19.214  0.00  0.00    +0.000 N 
ATOM      2  C   UNL     1       4.726   4.701  19.209  0.00  0.00    +0.000 A 
ATOM      3  C   UNL     1       3.965   3.560  19.191  0.00  0.00    +0.000 A 
ATOM      4  C   UNL     1       2.614   3.733  18.998  0.00  0.00    +0.000 A 
ATOM      5  N   UNL     1       2.000   4.934  18.904  0.00  0.00    +0.000 NA
ATOM      6  C   UNL     1       2.813   5.994  18.988  0.00  0.00    +0.000 A 
ATOM      7  N   UNL     1       4.159   5.909  19.079  0.00  0.00    +0.000 NA
ATOM      8  H   UNL     1       6.526   3.790  19.669  0.00  0.00    +0.000 HD
ENDROOT
BRANCH   6   9
ATOM      9  C   UNL     1       2.211   7.344  19.003  0.00  0.00    +0.000 A 
ATOM     10  C   UNL     1       1.596   7.876  20.155  0.00  0.00    +0.000 A 
ATOM     11  C   UNL     1       1.073   9.179  20.172  0.00  0.00    +0.000 A 
ATOM     12  C   UNL     1       1.161   9.985  19.039  0.00  0.00    +0.000 A 
ATOM     13  C   UNL     1       1.723   9.466  17.874  0.00  0.00    +0.000 A 
ATOM     14  C   UNL     1       2.252   8.171  17.864  0.00  0.00    +0.000 A 
BRANCH  12  15
ATOM     15  O   UNL     1       0.600  11.240  19.126  0.00  0.00    +0.000 OA
BRANCH  15  16
ATOM     16  C   UNL     1      -0.774  11.360  18.957  0.00  0.00    +0.000 A 
ATOM     17  C   UNL     1      -1.344  10.598  17.945  0.00  0.00    +0.000 A 
ATOM     18  C   UNL     1      -2.719  10.697  17.732  0.00  0.00    +0.000 A 
ATOM     19  C   UNL     1      -3.462  11.542  18.543  0.00  0.00    +0.000 A 
ATOM     20  F   UNL     1      -4.779  11.675  18.355  0.00  0.00    +0.000 F 
ATOM     21  C   UNL     1      -2.819  12.240  19.550  0.00  0.00    +0.000 A 
ATOM     22  N   UNL     1      -1.487  12.160  19.785  0.00  0.00    +0.000 NA
ENDBRANCH  15  16
ENDBRANCH  12  15
ENDBRANCH   6   9
BRANCH   4  23
ATOM     23  C   UNL     1       1.757   2.525  18.797  0.00  0.00    +0.000 C 
ATOM     24  N   UNL     1       2.419   1.371  18.477  0.00  0.00    +0.000 N 
ATOM     25  O   UNL     1       0.542   2.551  18.944  0.00  0.00    +0.000 OA
ATOM     26  H   UNL     1       3.429   1.366  18.410  0.00  0.00    +0.000 HD
ATOM     27  H   UNL     1       1.896   0.511  18.394  0.00  0.00    +0.000 HD
ENDBRANCH   4  23
BRANCH   1  29
ATOM     28  C   UNL     1       8.237   5.717  19.602  0.00  0.00    +0.000 C 
ATOM     29  C   UNL     1       6.982   5.655  18.735  0.00  0.00    +0.000 C 
BRANCH  29  30
ATOM     30  C   UNL     1       7.364   5.358  17.266  0.00  0.00    +0.000 C 
ATOM     31  N   UNL     1       6.964   6.302  16.359  0.00  0.00    +0.000 N 
ATOM     32  O   UNL     1       7.984   4.368  16.891  0.00  0.00    +0.000 OA
ATOM     33  H   UNL     1       6.290   7.008  16.626  0.00  0.00    +0.000 HD
ATOM     34  H   UNL     1       7.101   6.097  15.380  0.00  0.00    +0.000 HD
ENDBRANCH  29  30
ENDBRANCH   1  29
TORSDOF 6
ENDMDL
MODEL 3
REMARK VINA RESULT:      -9.2      1.296      1.572
REMARK  Name = 
REMARK  7 active torsions:
REMARK  status: ('A' for Active; 'I' for Inactive)
REMARK    1  A    between atoms: C_1  and  C_2
REMARK    2  A    between atoms: C_2  and  N_3
REMARK    3  A    between atoms: C_2  and  C_27
REMARK    4  A    between atoms: C_6  and  C_7
REMARK    5  A    between atoms: C_11  and  C_12
REMARK    6  A    between atoms: C_15  and  O_16
REMARK    7  A    between atoms: O_16  and  C_17
REMARK                            x       y       z     vdW  Elec       q    Type
REMARK                         _______ _______ _______ _____ _____    ______ ____
ROOT
ATOM      1  N   UNL     1       5.805   4.657  19.116  0.00  0.00    +0.000 N 
ATOM      2  C   UNL     1       4.520   4.904  19.548  0.00  0.00    +0.000 A 
ATOM      3  C   UNL     1       3.823   3.899  20.168  0.00  0.00    +0.000 A 
ATOM      4  C   UNL     1       2.490   4.141  20.408  0.00  0.00    +0.000 A 
ATOM      5  N   UNL     1       1.863   5.310  20.144  0.00  0.00    +0.000 NA
ATOM      6  C   UNL     1       2.634   6.254  19.591  0.00  0.00    +0.000 A 
ATOM      7  N   UNL     1       3.924   6.064  19.235  0.00  0.00    +0.000 NA
ATOM      8  H   UNL     1       6.380   4.002  19.630  0.00  0.00    +0.000 HD
ENDROOT
BRANCH   6   9
ATOM      9  C   UNL     1       2.055   7.595  19.370  0.00  0.00    +0.000 A 
ATOM     10  C   UNL     1       1.377   8.295  20.389  0.00  0.00    +0.000 A 
ATOM     11  C   UNL     1       0.876   9.590  20.183  0.00  0.00    +0.000 A 
ATOM     12  C   UNL     1       1.049  10.221  18.953  0.00  0.00    +0.000 A 
ATOM     13  C   UNL     1       1.675   9.533  17.914  0.00  0.00    +0.000 A 
ATOM     14  C   UNL     1       2.182   8.247  18.128  0.00  0.00    +0.000 A 
BRANCH  12  15
ATOM     15  O   UNL     1       0.505  11.479  18.819  0.00  0.00    +0.000 OA
BRANCH  15  16
ATOM     16  C   UNL     1      -0.879  11.605  18.854  0.00  0.00    +0.000 A 
ATOM     17  C   UNL     1      -1.588  10.930  17.869  0.00  0.00    +0.000 A 
ATOM     18  C   UNL     1      -2.978  11.039  17.858  0.00  0.00    +0.000 A 
ATOM     19  C   UNL     1      -3.597  11.806  18.834  0.00  0.00    +0.000 A 
ATOM     20  F   UNL     1      -4.926  11.948  18.843  0.00  0.00    +0.000 F 
ATOM     21  C   UNL     1      -2.816  12.419  19.798  0.00  0.00    +0.000 A 
ATOM     22  N   UNL     1      -1.465  12.327  19.838  0.00  0.00    +0.000 NA
ENDBRANCH  15  16
ENDBRANCH  12  15
ENDBRANCH   6   9
BRANCH   4  23
ATOM     23  C   UNL     1       1.639   3.025  20.922  0.00  0.00    +0.000 C 
ATOM     24  N   UNL     1       0.554   2.701  20.155  0.00  0.00    +0.000 N 
ATOM     25  O   UNL     1       1.910   2.411  21.946  0.00  0.00    +0.000 OA
ATOM     26  H   UNL     1       0.378   3.192  19.287  0.00  0.00    +0.000 HD
ATOM     27  H   UNL     1      -0.019   1.913  20.421  0.00  0.00    +0.000 HD
ENDBRANCH   4  23
BRANCH   1  29
ATOM     28  C   UNL     1       7.678   6.138  18.574  0.00  0.00    +0.000 C 
ATOM     29  C   UNL     1       6.438   5.426  18.040  0.00  0.00    +0.000 C 
BRANCH  29  30
ATOM     30  C   UNL     1       6.831   4.454  16.903  0.00  0.00    +0.000 C 
ATOM     31  N   UNL     1       5.876   3.531  16.572  0.00  0.00    +0.000 N 
ATOM     32  O   UNL     1       7.903   4.472  16.306  0.00  0.00    +0.000 OA
ATOM     33  H   UNL     1       5.083   3.381  17.182  0.00  0.00    +0.000 HD
ATOM     34  H   UNL     1       6.130   2.814  15.909  0.00  0.00    +0.000 HD
ENDBRANCH  29  30
ENDBRANCH   1  29
TORSDOF 6
ENDMDL
MODEL 4
REMARK VINA RESULT:      -9.2      1.343      1.391
REMARK  Name = 
REMARK  7 active torsions:
REMARK  status: ('A' for Active; 'I' for Inactive)
REMARK    1  A    between atoms: C_1  and  C_2
REMARK    2  A    between atoms: C_2  and  N_3
REMARK    3  A    between atoms: C_2  and  C_27
REMARK    4  A    between atoms: C_6  and  C_7
REMARK    5  A    between atoms: C_11  and  C_12
REMARK    6  A    between atoms: C_15  and  O_16
REMARK    7  A    between atoms: O_16  and  C_17
REMARK                            x       y       z     vdW  Elec       q    Type
REMARK                         _______ _______ _______ _____ _____    ______ ____
ROOT
ATOM      1  N   UNL     1       5.999   4.883  17.997  0.00  0.00    +0.000 N 
ATOM      2  C   UNL     1       4.822   5.011  18.703  0.00  0.00    +0.000 A 
ATOM      3  C   UNL     1       4.351   3.932  19.407  0.00  0.00    +0.000 A 
ATOM      4  C   UNL     1       3.086   4.057  19.936  0.00  0.00    +0.000 A 
ATOM      5  N   UNL     1       2.333   5.178  19.868  0.00  0.00    +0.000 NA
ATOM      6  C   UNL     1       2.896   6.199  19.211  0.00  0.00    +0.000 A 
ATOM      7  N   UNL     1       4.090   6.127  18.580  0.00  0.00    +0.000 NA
ATOM      8  H   UNL     1       6.717   4.261  18.344  0.00  0.00    +0.000 HD
ENDROOT
BRANCH   6   9
ATOM      9  C   UNL     1       2.187   7.495  19.184  0.00  0.00    +0.000 A 
ATOM     10  C   UNL     1       2.098   8.275  18.012  0.00  0.00    +0.000 A 
ATOM     11  C   UNL     1       1.379   9.480  17.986  0.00  0.00    +0.000 A 
ATOM     12  C   UNL     1       0.724   9.932  19.129  0.00  0.00    +0.000 A 
ATOM     13  C   UNL     1       0.836   9.204  20.313  0.00  0.00    +0.000 A 
ATOM     14  C   UNL     1       1.544   7.997  20.332  0.00  0.00    +0.000 A 
BRANCH  12  15
ATOM     15  O   UNL     1       0.064  11.136  19.032  0.00  0.00    +0.000 OA
BRANCH  15  16
ATOM     16  C   UNL     1      -1.289  11.123  18.716  0.00  0.00    +0.000 A 
ATOM     17  C   UNL     1      -1.707  10.149  17.818  0.00  0.00    +0.000 A 
ATOM     18  C   UNL     1      -3.055  10.107  17.462  0.00  0.00    +0.000 A 
ATOM     19  C   UNL     1      -3.925  11.029  18.026  0.00  0.00    +0.000 A 
ATOM     20  F   UNL     1      -5.220  11.029  17.694  0.00  0.00    +0.000 F 
ATOM     21  C   UNL     1      -3.430  11.945  18.938  0.00  0.00    +0.000 A 
ATOM     22  N   UNL     1      -2.128  12.007  19.307  0.00  0.00    +0.000 NA
ENDBRANCH  15  16
ENDBRANCH  12  15
ENDBRANCH   6   9
BRANCH   4  23
ATOM     23  C   UNL     1       2.449   2.859  20.564  0.00  0.00    +0.000 C 
ATOM     24  N   UNL     1       2.329   2.893  21.926  0.00  0.00    +0.000 N 
ATOM     25  O   UNL     1       2.027   1.919  19.903  0.00  0.00    +0.000 OA
ATOM     26  H   UNL     1       2.644   3.703  22.445  0.00  0.00    +0.000 HD
ATOM     27  H   UNL     1       1.848   2.140  22.396  0.00  0.00    +0.000 HD
ENDBRANCH   4  23
BRANCH   1  29
ATOM     28  C   UNL     1       7.351   6.790  17.265  0.00  0.00    +0.000 C 
ATOM     29  C   UNL     1       6.328   5.736  16.850  0.00  0.00    +0.000 C 
BRANCH  29  30
ATOM     30  C   UNL     1       6.905   4.847  15.724  0.00  0.00    +0.000 C 
ATOM     31  N   UNL     1       6.431   3.563  15.696  0.00  0.00    +0.000 N 
ATOM     32  O   UNL     1       7.724   5.220  14.889  0.00  0.00    +0.000 OA
ATOM     33  H   UNL     1       5.919   3.194  16.486  0.00  0.00    +0.000 HD
ATOM     34  H   UNL     1       6.859   2.922  15.043  0.00  0.00    +0.000 HD
ENDBRANCH  29  30
ENDBRANCH   1  29
TORSDOF 6
ENDMDL
MODEL 5
REMARK VINA RESULT:      -9.2      0.544      1.282
REMARK  Name = 
REMARK  7 active torsions:
REMARK  status: ('A' for Active; 'I' for Inactive)
REMARK    1  A    between atoms: C_1  and  C_2
REMARK    2  A    between atoms: C_2  and  N_3
REMARK    3  A    between atoms: C_2  and  C_27
REMARK    4  A    between atoms: C_6  and  C_7
REMARK    5  A    between atoms: C_11  and  C_12
REMARK    6  A    between atoms: C_15  and  O_16
REMARK    7  A    between atoms: O_16  and  C_17
REMARK                            x       y       z     vdW  Elec       q    Type
REMARK                         _______ _______ _______ _____ _____    ______ ____
ROOT
ATOM      1  N   UNL     1       6.128   4.637  19.231  0.00  0.00    +0.000 N 
ATOM      2  C   UNL     1       4.757   4.749  19.155  0.00  0.00    +0.000 A 
ATOM      3  C   UNL     1       4.003   3.609  19.038  0.00  0.00    +0.000 A 
ATOM      4  C   UNL     1       2.664   3.789  18.780  0.00  0.00    +0.000 A 
ATOM      5  N   UNL     1       2.051   4.993  18.710  0.00  0.00    +0.000 NA
ATOM      6  C   UNL     1       2.853   6.048  18.892  0.00  0.00    +0.000 A 
ATOM      7  N   UNL     1       4.193   5.961  19.054  0.00  0.00    +0.000 NA
ATOM      8  H   UNL     1       6.532   3.819  19.669  0.00  0.00    +0.000 HD
ENDROOT
BRANCH   6   9
ATOM      9  C   UNL     1       2.246   7.394  18.940  0.00  0.00    +0.000 A 
ATOM     10  C   UNL     1       1.623   7.893  20.102  0.00  0.00    +0.000 A 
ATOM     11  C   UNL     1       1.095   9.193  20.152  0.00  0.00    +0.000 A 
ATOM     12  C   UNL     1       1.184  10.030  19.041  0.00  0.00    +0.000 A 
ATOM     13  C   UNL     1       1.754   9.544  17.865  0.00  0.00    +0.000 A 
ATOM     14  C   UNL     1       2.289   8.252  17.824  0.00  0.00    +0.000 A 
BRANCH  12  15
ATOM     15  O   UNL     1       0.618  11.279  19.158  0.00  0.00    +0.000 OA
BRANCH  15  16
ATOM     16  C   UNL     1      -0.754  11.400  18.972  0.00  0.00    +0.000 A 
ATOM     17  C   UNL     1      -1.437  12.190  19.887  0.00  0.00    +0.000 A 
ATOM     18  C   UNL     1      -2.818  12.329  19.746  0.00  0.00    +0.000 A 
ATOM     19  C   UNL     1      -3.451  11.683  18.694  0.00  0.00    +0.000 A 
ATOM     20  F   UNL     1      -4.775  11.780  18.539  0.00  0.00    +0.000 F 
ATOM     21  C   UNL     1      -2.689  10.942  17.808  0.00  0.00    +0.000 A 
ATOM     22  N   UNL     1      -1.347  10.793  17.915  0.00  0.00    +0.000 NA
ENDBRANCH  15  16
ENDBRANCH  12  15
ENDBRANCH   6   9
BRANCH   4  23
ATOM     23  C   UNL     1       1.825   2.591  18.472  0.00  0.00    +0.000 C 
ATOM     24  N   UNL     1       2.504   1.418  18.292  0.00  0.00    +0.000 N 
ATOM     25  O   UNL     1       0.603   2.642  18.419  0.00  0.00    +0.000 OA
ATOM     26  H   UNL     1       3.512   1.392  18.389  0.00  0.00    +0.000 HD
ATOM     27  H   UNL     1       1.984   0.565  18.146  0.00  0.00    +0.000 HD
ENDBRANCH   4  23
BRANCH   1  29
ATOM     28  C   UNL     1       8.271   5.705  19.746  0.00  0.00    +0.000 C 
ATOM     29  C   UNL     1       7.032   5.729  18.854  0.00  0.00    +0.000 C 
BRANCH  29  30
ATOM     30  C   UNL     1       7.438   5.546  17.374  0.00  0.00    +0.000 C 
ATOM     31  N   UNL     1       7.806   4.274  17.025  0.00  0.00    +0.000 N 
ATOM     32  O   UNL     1       7.439   6.439  16.532  0.00  0.00    +0.000 OA
ATOM     33  H   UNL     1       8.000   3.588  17.743  0.00  0.00    +0.000 HD
ATOM     34  H   UNL     1       8.177   4.133  16.096  0.00  0.00    +0.000 HD
ENDBRANCH  29  30
ENDBRANCH   1  29
TORSDOF 6
ENDMDL
MODEL 6
REMARK VINA RESULT:      -9.2      2.528      2.992
REMARK  Name = 
REMARK  7 active torsions:
REMARK  status: ('A' for Active; 'I' for Inactive)
REMARK    1  A    between atoms: C_1  and  C_2
REMARK    2  A    between atoms: C_2  and  N_3
REMARK    3  A    between atoms: C_2  and  C_27
REMARK    4  A    between atoms: C_6  and  C_7
REMARK    5  A    between atoms: C_11  and  C_12
REMARK    6  A    between atoms: C_15  and  O_16
REMARK    7  A    between atoms: O_16  and  C_17
REMARK                            x       y       z     vdW  Elec       q    Type
REMARK                         _______ _______ _______ _____ _____    ______ ____
ROOT
ATOM      1  N   UNL     1       6.124   4.595  19.201  0.00  0.00    +0.000 N 
ATOM      2  C   UNL     1       4.751   4.711  19.175  0.00  0.00    +0.000 A 
ATOM      3  C   UNL     1       3.991   3.576  19.044  0.00  0.00    +0.000 A 
ATOM      4  C   UNL     1       2.644   3.767  18.836  0.00  0.00    +0.000 A 
ATOM      5  N   UNL     1       2.032   4.973  18.829  0.00  0.00    +0.000 NA
ATOM      6  C   UNL     1       2.842   6.021  19.021  0.00  0.00    +0.000 A 
ATOM      7  N   UNL     1       4.186   5.926  19.135  0.00  0.00    +0.000 NA
ATOM      8  H   UNL     1       6.540   3.762  19.597  0.00  0.00    +0.000 HD
ENDROOT
BRANCH   6   9
ATOM      9  C   UNL     1       2.240   7.365  19.136  0.00  0.00    +0.000 A 
ATOM     10  C   UNL     1       2.156   8.244  18.037  0.00  0.00    +0.000 A 
ATOM     11  C   UNL     1       1.537   9.499  18.146  0.00  0.00    +0.000 A 
ATOM     12  C   UNL     1       0.977   9.903  19.357  0.00  0.00    +0.000 A 
ATOM     13  C   UNL     1       1.089   9.072  20.471  0.00  0.00    +0.000 A 
ATOM     14  C   UNL     1       1.697   7.817  20.354  0.00  0.00    +0.000 A 
BRANCH  12  15
ATOM     15  O   UNL     1       0.413  11.158  19.392  0.00  0.00    +0.000 OA
BRANCH  15  16
ATOM     16  C   UNL     1       1.251  12.252  19.570  0.00  0.00    +0.000 A 
ATOM     17  C   UNL     1       1.577  12.976  18.431  0.00  0.00    +0.000 A 
ATOM     18  C   UNL     1       2.426  14.075  18.560  0.00  0.00    +0.000 A 
ATOM     19  C   UNL     1       2.902  14.407  19.820  0.00  0.00    +0.000 A 
ATOM     20  F   UNL     1       3.732  15.442  19.980  0.00  0.00    +0.000 F 
ATOM     21  C   UNL     1       2.501  13.650  20.908  0.00  0.00    +0.000 A 
ATOM     22  N   UNL     1       1.673  12.582  20.814  0.00  0.00    +0.000 NA
ENDBRANCH  15  16
ENDBRANCH  12  15
ENDBRANCH   6   9
BRANCH   4  23
ATOM     23  C   UNL     1       1.793   2.581  18.515  0.00  0.00    +0.000 C 
ATOM     24  N   UNL     1       2.441   1.378  18.463  0.00  0.00    +0.000 N 
ATOM     25  O   UNL     1       0.584   2.669  18.345  0.00  0.00    +0.000 OA
ATOM     26  H   UNL     1       3.434   1.326  18.655  0.00  0.00    +0.000 HD
ATOM     27  H   UNL     1       1.905   0.536  18.314  0.00  0.00    +0.000 HD
ENDBRANCH   4  23
BRANCH   1  29
ATOM     28  C   UNL     1       8.258   5.678  19.722  0.00  0.00    +0.000 C 
ATOM     29  C   UNL     1       7.017   5.698  18.833  0.00  0.00    +0.000 C 
BRANCH  29  30
ATOM     30  C   UNL     1       7.422   5.532  17.350  0.00  0.00    +0.000 C 
ATOM     31  N   UNL     1       7.833   4.275  16.997  0.00  0.00    +0.000 N 
ATOM     32  O   UNL     1       7.388   6.427  16.510  0.00  0.00    +0.000 OA
ATOM     33  H   UNL     1       8.053   3.594  17.713  0.00  0.00    +0.000 HD
ATOM     34  H   UNL     1       8.204   4.149  16.067  0.00  0.00    +0.000 HD
ENDBRANCH  29  30
ENDBRANCH   1  29
TORSDOF 6
ENDMDL
MODEL 7
REMARK VINA RESULT:      -9.1      2.657      3.260
REMARK  Name = 
REMARK  7 active torsions:
REMARK  status: ('A' for Active; 'I' for Inactive)
REMARK    1  A    between atoms: C_1  and  C_2
REMARK    2  A    between atoms: C_2  and  N_3
REMARK    3  A    between atoms: C_2  and  C_27
REMARK    4  A    between atoms: C_6  and  C_7
REMARK    5  A    between atoms: C_11  and  C_12
REMARK    6  A    between atoms: C_15  and  O_16
REMARK    7  A    between atoms: O_16  and  C_17
REMARK                            x       y       z     vdW  Elec       q    Type
REMARK                         _______ _______ _______ _____ _____    ______ ____
ROOT
ATOM      1  N   UNL     1       6.043   4.551  19.135  0.00  0.00    +0.000 N 
ATOM      2  C   UNL     1       4.672   4.673  19.195  0.00  0.00    +0.000 A 
ATOM      3  C   UNL     1       3.905   3.535  19.213  0.00  0.00    +0.000 A 
ATOM      4  C   UNL     1       2.547   3.715  19.085  0.00  0.00    +0.000 A 
ATOM      5  N   UNL     1       1.935   4.920  19.020  0.00  0.00    +0.000 NA
ATOM      6  C   UNL     1       2.756   5.975  19.067  0.00  0.00    +0.000 A 
ATOM      7  N   UNL     1       4.105   5.883  19.094  0.00  0.00    +0.000 NA
ATOM      8  H   UNL     1       6.487   3.752  19.569  0.00  0.00    +0.000 HD
ENDROOT
BRANCH   6   9
ATOM      9  C   UNL     1       2.163   7.328  19.112  0.00  0.00    +0.000 A 
ATOM     10  C   UNL     1       1.631   7.873  20.298  0.00  0.00    +0.000 A 
ATOM     11  C   UNL     1       1.116   9.178  20.340  0.00  0.00    +0.000 A 
ATOM     12  C   UNL     1       1.129   9.975  19.197  0.00  0.00    +0.000 A 
ATOM     13  C   UNL     1       1.607   9.443  18.000  0.00  0.00    +0.000 A 
ATOM     14  C   UNL     1       2.129   8.145  17.965  0.00  0.00    +0.000 A 
BRANCH  12  15
ATOM     15  O   UNL     1       0.581  11.232  19.311  0.00  0.00    +0.000 OA
BRANCH  15  16
ATOM     16  C   UNL     1       1.438  12.310  19.501  0.00  0.00    +0.000 A 
ATOM     17  C   UNL     1       1.874  12.965  18.357  0.00  0.00    +0.000 A 
ATOM     18  C   UNL     1       2.745  14.044  18.499  0.00  0.00    +0.000 A 
ATOM     19  C   UNL     1       3.134  14.426  19.775  0.00  0.00    +0.000 A 
ATOM     20  F   UNL     1       3.982  15.445  19.948  0.00  0.00    +0.000 F 
ATOM     21  C   UNL     1       2.625  13.739  20.864  0.00  0.00    +0.000 A 
ATOM     22  N   UNL     1       1.773  12.691  20.757  0.00  0.00    +0.000 NA
ENDBRANCH  15  16
ENDBRANCH  12  15
ENDBRANCH   6   9
BRANCH   4  23
ATOM     23  C   UNL     1       1.675   2.512  18.924  0.00  0.00    +0.000 C 
ATOM     24  N   UNL     1       2.313   1.359  18.554  0.00  0.00    +0.000 N 
ATOM     25  O   UNL     1       0.471   2.539  19.143  0.00  0.00    +0.000 OA
ATOM     26  H   UNL     1       3.317   1.351  18.425  0.00  0.00    +0.000 HD
ATOM     27  H   UNL     1       1.783   0.502  18.493  0.00  0.00    +0.000 HD
ENDBRANCH   4  23
BRANCH   1  29
ATOM     28  C   UNL     1       8.173   5.715  19.463  0.00  0.00    +0.000 C 
ATOM     29  C   UNL     1       6.907   5.616  18.615  0.00  0.00    +0.000 C 
BRANCH  29  30
ATOM     30  C   UNL     1       7.273   5.283  17.150  0.00  0.00    +0.000 C 
ATOM     31  N   UNL     1       6.702   6.097  16.209  0.00  0.00    +0.000 N 
ATOM     32  O   UNL     1       8.020   4.372  16.805  0.00  0.00    +0.000 OA
ATOM     33  H   UNL     1       5.940   6.711  16.465  0.00  0.00    +0.000 HD
ATOM     34  H   UNL     1       6.831   5.850  15.238  0.00  0.00    +0.000 HD
ENDBRANCH  29  30
ENDBRANCH   1  29
TORSDOF 6
ENDMDL
MODEL 8
REMARK VINA RESULT:      -8.9      1.487      1.703
REMARK  Name = 
REMARK  7 active torsions:
REMARK  status: ('A' for Active; 'I' for Inactive)
REMARK    1  A    between atoms: C_1  and  C_2
REMARK    2  A    between atoms: C_2  and  N_3
REMARK    3  A    between atoms: C_2  and  C_27
REMARK    4  A    between atoms: C_6  and  C_7
REMARK    5  A    between atoms: C_11  and  C_12
REMARK    6  A    between atoms: C_15  and  O_16
REMARK    7  A    between atoms: O_16  and  C_17
REMARK                            x       y       z     vdW  Elec       q    Type
REMARK                         _______ _______ _______ _____ _____    ______ ____
ROOT
ATOM      1  N   UNL     1       5.910   4.857  18.079  0.00  0.00    +0.000 N 
ATOM      2  C   UNL     1       4.728   5.030  18.767  0.00  0.00    +0.000 A 
ATOM      3  C   UNL     1       4.208   3.972  19.468  0.00  0.00    +0.000 A 
ATOM      4  C   UNL     1       2.941   4.145  19.978  0.00  0.00    +0.000 A 
ATOM      5  N   UNL     1       2.231   5.292  19.896  0.00  0.00    +0.000 NA
ATOM      6  C   UNL     1       2.840   6.290  19.244  0.00  0.00    +0.000 A 
ATOM      7  N   UNL     1       4.039   6.172  18.631  0.00  0.00    +0.000 NA
ATOM      8  H   UNL     1       6.600   4.211  18.439  0.00  0.00    +0.000 HD
ENDROOT
BRANCH   6   9
ATOM      9  C   UNL     1       2.179   7.611  19.203  0.00  0.00    +0.000 A 
ATOM     10  C   UNL     1       2.150   8.397  18.032  0.00  0.00    +0.000 A 
ATOM     11  C   UNL     1       1.476   9.627  17.991  0.00  0.00    +0.000 A 
ATOM     12  C   UNL     1       0.806  10.099  19.118  0.00  0.00    +0.000 A 
ATOM     13  C   UNL     1       0.860   9.363  20.301  0.00  0.00    +0.000 A 
ATOM     14  C   UNL     1       1.523   8.132  20.335  0.00  0.00    +0.000 A 
BRANCH  12  15
ATOM     15  O   UNL     1       0.193  11.327  19.007  0.00  0.00    +0.000 OA
BRANCH  15  16
ATOM     16  C   UNL     1      -1.173  11.360  18.752  0.00  0.00    +0.000 A 
ATOM     17  C   UNL     1      -1.940  12.163  19.587  0.00  0.00    +0.000 A 
ATOM     18  C   UNL     1      -3.317  12.217  19.376  0.00  0.00    +0.000 A 
ATOM     19  C   UNL     1      -3.864  11.477  18.338  0.00  0.00    +0.000 A 
ATOM     20  F   UNL     1      -5.183  11.491  18.118  0.00  0.00    +0.000 F 
ATOM     21  C   UNL     1      -3.023  10.729  17.533  0.00  0.00    +0.000 A 
ATOM     22  N   UNL     1      -1.681  10.662  17.709  0.00  0.00    +0.000 NA
ENDBRANCH  15  16
ENDBRANCH  12  15
ENDBRANCH   6   9
BRANCH   4  23
ATOM     23  C   UNL     1       2.252   2.973  20.600  0.00  0.00    +0.000 C 
ATOM     24  N   UNL     1       2.167   2.987  21.966  0.00  0.00    +0.000 N 
ATOM     25  O   UNL     1       1.761   2.071  19.934  0.00  0.00    +0.000 OA
ATOM     26  H   UNL     1       2.539   3.769  22.491  0.00  0.00    +0.000 HD
ATOM     27  H   UNL     1       1.655   2.254  22.434  0.00  0.00    +0.000 HD
ENDBRANCH   4  23
BRANCH   1  29
ATOM     28  C   UNL     1       7.442   6.612  17.322  0.00  0.00    +0.000 C 
ATOM     29  C   UNL     1       6.286   5.693  16.934  0.00  0.00    +0.000 C 
BRANCH  29  30
ATOM     30  C   UNL     1       6.707   4.771  15.767  0.00  0.00    +0.000 C 
ATOM     31  N   UNL     1       7.563   5.336  14.860  0.00  0.00    +0.000 N 
ATOM     32  O   UNL     1       6.336   3.610  15.623  0.00  0.00    +0.000 OA
ATOM     33  H   UNL     1       7.712   6.336  14.859  0.00  0.00    +0.000 HD
ATOM     34  H   UNL     1       7.780   4.804  14.029  0.00  0.00    +0.000 HD
ENDBRANCH  29  30
ENDBRANCH   1  29
TORSDOF 6
ENDMDL
MODEL 9
REMARK VINA RESULT:      -8.9      1.229      1.451
REMARK  Name = 
REMARK  7 active torsions:
REMARK  status: ('A' for Active; 'I' for Inactive)
REMARK    1  A    between atoms: C_1  and  C_2
REMARK    2  A    between atoms: C_2  and  N_3
REMARK    3  A    between atoms: C_2  and  C_27
REMARK    4  A    between atoms: C_6  and  C_7
REMARK    5  A    between atoms: C_11  and  C_12
REMARK    6  A    between atoms: C_15  and  O_16
REMARK    7  A    between atoms: O_16  and  C_17
REMARK                            x       y       z     vdW  Elec       q    Type
REMARK                         _______ _______ _______ _____ _____    ______ ____
ROOT
ATOM      1  N   UNL     1       6.223   4.116  18.216  0.00  0.00    +0.000 N 
ATOM      2  C   UNL     1       4.979   4.347  18.761  0.00  0.00    +0.000 A 
ATOM      3  C   UNL     1       4.306   3.304  19.345  0.00  0.00    +0.000 A 
ATOM      4  C   UNL     1       3.000   3.548  19.703  0.00  0.00    +0.000 A 
ATOM      5  N   UNL     1       2.382   4.744  19.584  0.00  0.00    +0.000 NA
ATOM      6  C   UNL     1       3.131   5.719  19.056  0.00  0.00    +0.000 A 
ATOM      7  N   UNL     1       4.387   5.538  18.590  0.00  0.00    +0.000 NA
ATOM      8  H   UNL     1       6.819   3.411  18.629  0.00  0.00    +0.000 HD
ENDROOT
BRANCH   6   9
ATOM      9  C   UNL     1       2.569   7.084  18.991  0.00  0.00    +0.000 A 
ATOM     10  C   UNL     1       2.687   7.888  17.838  0.00  0.00    +0.000 A 
ATOM     11  C   UNL     1       2.105   9.163  17.770  0.00  0.00    +0.000 A 
ATOM     12  C   UNL     1       1.381   9.663  18.851  0.00  0.00    +0.000 A 
ATOM     13  C   UNL     1       1.290   8.907  20.019  0.00  0.00    +0.000 A 
ATOM     14  C   UNL     1       1.862   7.632  20.079  0.00  0.00    +0.000 A 
BRANCH  12  15
ATOM     15  O   UNL     1       0.865  10.933  18.719  0.00  0.00    +0.000 OA
BRANCH  15  16
ATOM     16  C   UNL     1      -0.514  11.077  18.628  0.00  0.00    +0.000 A 
ATOM     17  C   UNL     1      -1.170  10.227  17.748  0.00  0.00    +0.000 A 
ATOM     18  C   UNL     1      -2.553  10.345  17.615  0.00  0.00    +0.000 A 
ATOM     19  C   UNL     1      -3.219  11.297  18.373  0.00  0.00    +0.000 A 
ATOM     20  F   UNL     1      -4.542  11.451  18.258  0.00  0.00    +0.000 F 
ATOM     21  C   UNL     1      -2.491  12.082  19.251  0.00  0.00    +0.000 A 
ATOM     22  N   UNL     1      -1.149  11.986  19.406  0.00  0.00    +0.000 NA
ENDBRANCH  15  16
ENDBRANCH  12  15
ENDBRANCH   6   9
BRANCH   4  23
ATOM     23  C   UNL     1       2.163   2.406  20.185  0.00  0.00    +0.000 C 
ATOM     24  N   UNL     1       1.725   1.540  19.221  0.00  0.00    +0.000 N 
ATOM     25  O   UNL     1       1.912   2.231  21.370  0.00  0.00    +0.000 OA
ATOM     26  H   UNL     1       1.987   1.680  18.253  0.00  0.00    +0.000 HD
ATOM     27  H   UNL     1       1.211   0.716  19.497  0.00  0.00    +0.000 HD
ENDBRANCH   4  23
BRANCH   1  29
ATOM     28  C   UNL     1       5.745   5.225  16.085  0.00  0.00    +0.000 C 
ATOM     29  C   UNL     1       6.793   4.963  17.163  0.00  0.00    +0.000 C 
BRANCH  29  30
ATOM     30  C   UNL     1       7.251   6.298  17.797  0.00  0.00    +0.000 C 
ATOM     31  N   UNL     1       6.787   7.425  17.175  0.00  0.00    +0.000 N 
ATOM     32  O   UNL     1       7.969   6.392  18.788  0.00  0.00    +0.000 OA
ATOM     33  H   UNL     1       6.368   7.362  16.256  0.00  0.00    +0.000 HD
ATOM     34  H   UNL     1       7.145   8.315  17.492  0.00  0.00    +0.000 HD
ENDBRANCH  29  30
ENDBRANCH   1  29
TORSDOF 6
ENDMDL
