MODEL 1
REMARK VINA RESULT:      -8.0      0.000      0.000
REMARK  Name = 
REMARK  3 active torsions:
REMARK  status: ('A' for Active; 'I' for Inactive)
REMARK    1  A    between atoms: N_1  and  C_2
REMARK    2  A    between atoms: C_5  and  C_6
REMARK    3  A    between atoms: C_6  and  N_7
REMARK                            x       y       z     vdW  Elec       q    Type
REMARK                         _______ _______ _______ _____ _____    ______ ____
ROOT
ATOM      1  N   UNL     1       3.090   5.780  18.822  0.00  0.00    +0.000 N 
ATOM      2  C   UNL     1       4.035   5.668  17.826  0.00  0.00    +0.000 A 
ATOM      3  C   UNL     1       3.894   4.428  17.233  0.00  0.00    +0.000 A 
ATOM      4  C   UNL     1       2.862   3.735  17.916  0.00  0.00    +0.000 A 
ATOM      5  C   UNL     1       2.318   2.440  17.796  0.00  0.00    +0.000 A 
ATOM      6  C   UNL     1       1.293   2.036  18.657  0.00  0.00    +0.000 A 
ATOM      7  C   UNL     1       0.804   2.906  19.625  0.00  0.00    +0.000 A 
ATOM      8  C   UNL     1       1.332   4.195  19.766  0.00  0.00    +0.000 A 
ATOM      9  C   UNL     1       2.366   4.596  18.902  0.00  0.00    +0.000 A 
ATOM     10  C   UNL     1       4.764   3.960  16.112  0.00  0.00    +0.000 C 
ATOM     11  C   UNL     1       5.506   5.140  15.459  0.00  0.00    +0.000 C 
ATOM     12  C   UNL     1       6.114   6.075  16.516  0.00  0.00    +0.000 C 
ATOM     13  C   UNL     1       5.037   6.700  17.424  0.00  0.00    +0.000 C 
ENDROOT
BRANCH   1  14
ATOM     14  C   UNL     1       2.988   6.884  19.775  0.00  0.00    +0.000 C 
BRANCH  14  18
ATOM     15  C   UNL     1       0.322  10.115  18.636  0.00  0.00    +0.000 A 
ATOM     16  C   UNL     1       0.420   9.703  19.966  0.00  0.00    +0.000 A 
ATOM     17  C   UNL     1       1.238   8.627  20.326  0.00  0.00    +0.000 A 
ATOM     18  C   UNL     1       2.015   7.964  19.369  0.00  0.00    +0.000 A 
ATOM     19  C   UNL     1       1.934   8.395  18.038  0.00  0.00    +0.000 A 
ATOM     20  C   UNL     1       1.114   9.474  17.684  0.00  0.00    +0.000 A 
BRANCH  15  21
ATOM     21  N   UNL     1      -0.355  11.298  18.314  0.00  0.00    +0.000 N 
ATOM     22  H   UNL     1      -1.305  11.150  17.989  0.00  0.00    +0.000 HD
ATOM     23  H   UNL     1       0.169  11.920  17.706  0.00  0.00    +0.000 HD
ENDBRANCH  15  21
ENDBRANCH  14  18
ENDBRANCH   1  14
TORSDOF 3
ENDMDL
MODEL 2
REMARK VINA RESULT:      -7.9      0.159      1.059
REMARK  Name = 
REMARK  3 active torsions:
REMARK  status: ('A' for Active; 'I' for Inactive)
REMARK    1  A    between atoms: N_1  and  C_2
REMARK    2  A    between atoms: C_5  and  C_6
REMARK    3  A    between atoms: C_6  and  N_7
REMARK                            x       y       z     vdW  Elec       q    Type
REMARK                         _______ _______ _______ _____ _____    ______ ____
ROOT
ATOM      1  N   UNL     1       3.033   5.800  18.875  0.00  0.00    +0.000 N 
ATOM      2  C   UNL     1       3.983   5.704  17.881  0.00  0.00    +0.000 A 
ATOM      3  C   UNL     1       3.844   4.473  17.268  0.00  0.00    +0.000 A 
ATOM      4  C   UNL     1       2.810   3.769  17.935  0.00  0.00    +0.000 A 
ATOM      5  C   UNL     1       2.267   2.476  17.792  0.00  0.00    +0.000 A 
ATOM      6  C   UNL     1       1.239   2.058  18.642  0.00  0.00    +0.000 A 
ATOM      7  C   UNL     1       0.746   2.912  19.623  0.00  0.00    +0.000 A 
ATOM      8  C   UNL     1       1.272   4.199  19.787  0.00  0.00    +0.000 A 
ATOM      9  C   UNL     1       2.310   4.614  18.933  0.00  0.00    +0.000 A 
ATOM     10  C   UNL     1       4.718   4.024  16.143  0.00  0.00    +0.000 C 
ATOM     11  C   UNL     1       5.463   5.214  15.512  0.00  0.00    +0.000 C 
ATOM     12  C   UNL     1       6.066   6.133  16.586  0.00  0.00    +0.000 C 
ATOM     13  C   UNL     1       4.985   6.743  17.499  0.00  0.00    +0.000 C 
ENDROOT
BRANCH   1  14
ATOM     14  C   UNL     1       2.928   6.887  19.845  0.00  0.00    +0.000 C 
BRANCH  14  18
ATOM     15  C   UNL     1       0.264  10.054  18.530  0.00  0.00    +0.000 A 
ATOM     16  C   UNL     1       1.087   9.387  17.621  0.00  0.00    +0.000 A 
ATOM     17  C   UNL     1       1.985   8.405  18.052  0.00  0.00    +0.000 A 
ATOM     18  C   UNL     1       2.049   8.030  19.400  0.00  0.00    +0.000 A 
ATOM     19  C   UNL     1       1.205   8.684  20.307  0.00  0.00    +0.000 A 
ATOM     20  C   UNL     1       0.307   9.667  19.870  0.00  0.00    +0.000 A 
BRANCH  15  21
ATOM     21  N   UNL     1      -0.750  10.903  18.070  0.00  0.00    +0.000 N 
ATOM     22  H   UNL     1      -1.127  10.636  17.167  0.00  0.00    +0.000 HD
ATOM     23  H   UNL     1      -0.513  11.889  18.114  0.00  0.00    +0.000 HD
ENDBRANCH  15  21
ENDBRANCH  14  18
ENDBRANCH   1  14
TORSDOF 3
ENDMDL
MODEL 3
REMARK VINA RESULT:      -7.6      0.285      3.518
REMARK  Name = 
REMARK  3 active torsions:
REMARK  status: ('A' for Active; 'I' for Inactive)
REMARK    1  A    between atoms: N_1  and  C_2
REMARK    2  A    between atoms: C_5  and  C_6
REMARK    3  A    between atoms: C_6  and  N_7
REMARK                            x       y       z     vdW  Elec       q    Type
REMARK                         _______ _______ _______ _____ _____    ______ ____
ROOT
ATOM      1  N   UNL     1       3.315   5.574  19.061  0.00  0.00    +0.000 N 
ATOM      2  C   UNL     1       2.537   4.438  19.019  0.00  0.00    +0.000 A 
ATOM      3  C   UNL     1       2.936   3.680  17.935  0.00  0.00    +0.000 A 
ATOM      4  C   UNL     1       3.959   4.392  17.259  0.00  0.00    +0.000 A 
ATOM      5  C   UNL     1       4.698   4.148  16.084  0.00  0.00    +0.000 A 
ATOM      6  C   UNL     1       5.649   5.081  15.657  0.00  0.00    +0.000 A 
ATOM      7  C   UNL     1       5.872   6.242  16.387  0.00  0.00    +0.000 A 
ATOM      8  C   UNL     1       5.147   6.508  17.555  0.00  0.00    +0.000 A 
ATOM      9  C   UNL     1       4.188   5.571  17.979  0.00  0.00    +0.000 A 
ATOM     10  C   UNL     1       2.300   2.376  17.578  0.00  0.00    +0.000 C 
ATOM     11  C   UNL     1       1.485   1.817  18.758  0.00  0.00    +0.000 C 
ATOM     12  C   UNL     1       0.613   2.905  19.403  0.00  0.00    +0.000 C 
ATOM     13  C   UNL     1       1.457   4.059  19.978  0.00  0.00    +0.000 C 
ENDROOT
BRANCH   1  14
ATOM     14  C   UNL     1       3.127   6.698  19.975  0.00  0.00    +0.000 C 
BRANCH  14  18
ATOM     15  C   UNL     1       0.528   9.866  18.539  0.00  0.00    +0.000 A 
ATOM     16  C   UNL     1       0.578   9.541  19.895  0.00  0.00    +0.000 A 
ATOM     17  C   UNL     1       1.374   8.485  20.352  0.00  0.00    +0.000 A 
ATOM     18  C   UNL     1       2.177   7.756  19.466  0.00  0.00    +0.000 A 
ATOM     19  C   UNL     1       2.143   8.099  18.109  0.00  0.00    +0.000 A 
ATOM     20  C   UNL     1       1.345   9.159  17.657  0.00  0.00    +0.000 A 
BRANCH  15  21
ATOM     21  N   UNL     1      -0.128  11.029  18.117  0.00  0.00    +0.000 N 
ATOM     22  H   UNL     1      -0.684  10.904  17.278  0.00  0.00    +0.000 HD
ATOM     23  H   UNL     1       0.474  11.845  18.064  0.00  0.00    +0.000 HD
ENDBRANCH  15  21
ENDBRANCH  14  18
ENDBRANCH   1  14
TORSDOF 3
ENDMDL
MODEL 4
REMARK VINA RESULT:      -7.6      2.388      6.345
REMARK  Name = 
REMARK  3 active torsions:
REMARK  status: ('A' for Active; 'I' for Inactive)
REMARK    1  A    between atoms: N_1  and  C_2
REMARK    2  A    between atoms: C_5  and  C_6
REMARK    3  A    between atoms: C_6  and  N_7
REMARK                            x       y       z     vdW  Elec       q    Type
REMARK                         _______ _______ _______ _____ _____    ______ ____
ROOT
ATOM      1  N   UNL     1       4.289   4.812  18.679  0.00  0.00    +0.000 N 
ATOM      2  C   UNL     1       3.458   4.143  19.552  0.00  0.00    +0.000 A 
ATOM      3  C   UNL     1       2.339   4.924  19.768  0.00  0.00    +0.000 A 
ATOM      4  C   UNL     1       2.505   6.132  19.045  0.00  0.00    +0.000 A 
ATOM      5  C   UNL     1       1.733   7.305  18.924  0.00  0.00    +0.000 A 
ATOM      6  C   UNL     1       2.193   8.359  18.128  0.00  0.00    +0.000 A 
ATOM      7  C   UNL     1       3.402   8.253  17.451  0.00  0.00    +0.000 A 
ATOM      8  C   UNL     1       4.188   7.100  17.559  0.00  0.00    +0.000 A 
ATOM      9  C   UNL     1       3.726   6.044  18.365  0.00  0.00    +0.000 A 
ATOM     10  C   UNL     1       1.224   4.511  20.673  0.00  0.00    +0.000 C 
ATOM     11  C   UNL     1       1.285   3.002  20.972  0.00  0.00    +0.000 C 
ATOM     12  C   UNL     1       2.714   2.556  21.320  0.00  0.00    +0.000 C 
ATOM     13  C   UNL     1       3.695   2.799  20.157  0.00  0.00    +0.000 C 
ENDROOT
BRANCH   1  14
ATOM     14  C   UNL     1       5.634   4.390  18.296  0.00  0.00    +0.000 C 
BRANCH  14  18
ATOM     15  C   UNL     1       6.473   4.352  14.036  0.00  0.00    +0.000 A 
ATOM     16  C   UNL     1       7.388   4.893  14.941  0.00  0.00    +0.000 A 
ATOM     17  C   UNL     1       7.095   4.955  16.307  0.00  0.00    +0.000 A 
ATOM     18  C   UNL     1       5.897   4.434  16.810  0.00  0.00    +0.000 A 
ATOM     19  C   UNL     1       4.990   3.870  15.903  0.00  0.00    +0.000 A 
ATOM     20  C   UNL     1       5.289   3.810  14.535  0.00  0.00    +0.000 A 
BRANCH  15  21
ATOM     21  N   UNL     1       6.846   4.133  12.704  0.00  0.00    +0.000 N 
ATOM     22  H   UNL     1       6.981   4.986  12.172  0.00  0.00    +0.000 HD
ATOM     23  H   UNL     1       6.260   3.463  12.218  0.00  0.00    +0.000 HD
ENDBRANCH  15  21
ENDBRANCH  14  18
ENDBRANCH   1  14
TORSDOF 3
ENDMDL
MODEL 5
REMARK VINA RESULT:      -7.5      2.415      6.302
REMARK  Name = 
REMARK  3 active torsions:
REMARK  status: ('A' for Active; 'I' for Inactive)
REMARK    1  A    between atoms: N_1  and  C_2
REMARK    2  A    between atoms: C_5  and  C_6
REMARK    3  A    between atoms: C_6  and  N_7
REMARK                            x       y       z     vdW  Elec       q    Type
REMARK                         _______ _______ _______ _____ _____    ______ ____
ROOT
ATOM      1  N   UNL     1       4.308   4.821  18.836  0.00  0.00    +0.000 N 
ATOM      2  C   UNL     1       3.434   4.149  19.663  0.00  0.00    +0.000 A 
ATOM      3  C   UNL     1       2.277   4.897  19.768  0.00  0.00    +0.000 A 
ATOM      4  C   UNL     1       2.460   6.089  19.022  0.00  0.00    +0.000 A 
ATOM      5  C   UNL     1       1.662   7.230  18.805  0.00  0.00    +0.000 A 
ATOM      6  C   UNL     1       2.149   8.276  18.014  0.00  0.00    +0.000 A 
ATOM      7  C   UNL     1       3.410   8.192  17.435  0.00  0.00    +0.000 A 
ATOM      8  C   UNL     1       4.222   7.070  17.640  0.00  0.00    +0.000 A 
ATOM      9  C   UNL     1       3.732   6.023  18.441  0.00  0.00    +0.000 A 
ATOM     10  C   UNL     1       1.109   4.472  20.597  0.00  0.00    +0.000 C 
ATOM     11  C   UNL     1       1.195   2.976  20.948  0.00  0.00    +0.000 C 
ATOM     12  C   UNL     1       2.606   2.590  21.419  0.00  0.00    +0.000 C 
ATOM     13  C   UNL     1       3.667   2.832  20.328  0.00  0.00    +0.000 C 
ENDROOT
BRANCH   1  14
ATOM     14  C   UNL     1       5.692   4.435  18.571  0.00  0.00    +0.000 C 
BRANCH  14  18
ATOM     15  C   UNL     1       6.595   4.311  14.326  0.00  0.00    +0.000 A 
ATOM     16  C   UNL     1       5.418   3.750  14.824  0.00  0.00    +0.000 A 
ATOM     17  C   UNL     1       5.152   3.741  16.197  0.00  0.00    +0.000 A 
ATOM     18  C   UNL     1       6.037   4.336  17.105  0.00  0.00    +0.000 A 
ATOM     19  C   UNL     1       7.206   4.920  16.600  0.00  0.00    +0.000 A 
ATOM     20  C   UNL     1       7.467   4.926  15.224  0.00  0.00    +0.000 A 
BRANCH  15  21
ATOM     21  N   UNL     1       6.769   4.473  12.946  0.00  0.00    +0.000 N 
ATOM     22  H   UNL     1       6.202   3.845  12.386  0.00  0.00    +0.000 HD
ATOM     23  H   UNL     1       7.740   4.483  12.651  0.00  0.00    +0.000 HD
ENDBRANCH  15  21
ENDBRANCH  14  18
ENDBRANCH   1  14
TORSDOF 3
ENDMDL
MODEL 6
REMARK VINA RESULT:      -7.4      0.340      3.673
REMARK  Name = 
REMARK  3 active torsions:
REMARK  status: ('A' for Active; 'I' for Inactive)
REMARK    1  A    between atoms: N_1  and  C_2
REMARK    2  A    between atoms: C_5  and  C_6
REMARK    3  A    between atoms: C_6  and  N_7
REMARK                            x       y       z     vdW  Elec       q    Type
REMARK                         _______ _______ _______ _____ _____    ______ ____
ROOT
ATOM      1  N   UNL     1       3.232   5.601  19.091  0.00  0.00    +0.000 N 
ATOM      2  C   UNL     1       2.469   4.455  19.022  0.00  0.00    +0.000 A 
ATOM      3  C   UNL     1       2.895   3.717  17.934  0.00  0.00    +0.000 A 
ATOM      4  C   UNL     1       3.919   4.452  17.284  0.00  0.00    +0.000 A 
ATOM      5  C   UNL     1       4.681   4.233  16.119  0.00  0.00    +0.000 A 
ATOM      6  C   UNL     1       5.626   5.183  15.720  0.00  0.00    +0.000 A 
ATOM      7  C   UNL     1       5.823   6.337  16.469  0.00  0.00    +0.000 A 
ATOM      8  C   UNL     1       5.076   6.578  17.628  0.00  0.00    +0.000 A 
ATOM      9  C   UNL     1       4.122   5.623  18.024  0.00  0.00    +0.000 A 
ATOM     10  C   UNL     1       2.281   2.411  17.549  0.00  0.00    +0.000 C 
ATOM     11  C   UNL     1       1.455   1.825  18.708  0.00  0.00    +0.000 C 
ATOM     12  C   UNL     1       0.558   2.894  19.354  0.00  0.00    +0.000 C 
ATOM     13  C   UNL     1       1.378   4.050  19.958  0.00  0.00    +0.000 C 
ENDROOT
BRANCH   1  14
ATOM     14  C   UNL     1       3.015   6.710  20.017  0.00  0.00    +0.000 C 
BRANCH  14  18
ATOM     15  C   UNL     1       0.453   9.808  18.378  0.00  0.00    +0.000 A 
ATOM     16  C   UNL     1       1.260   9.032  17.545  0.00  0.00    +0.000 A 
ATOM     17  C   UNL     1       2.126   8.071  18.077  0.00  0.00    +0.000 A 
ATOM     18  C   UNL     1       2.172   7.829  19.455  0.00  0.00    +0.000 A 
ATOM     19  C   UNL     1       1.343   8.592  20.288  0.00  0.00    +0.000 A 
ATOM     20  C   UNL     1       0.477   9.553  19.749  0.00  0.00    +0.000 A 
BRANCH  15  21
ATOM     21  N   UNL     1      -0.534  10.637  17.830  0.00  0.00    +0.000 N 
ATOM     22  H   UNL     1      -1.110  10.179  17.132  0.00  0.00    +0.000 HD
ATOM     23  H   UNL     1      -0.186  11.537  17.514  0.00  0.00    +0.000 HD
ENDBRANCH  15  21
ENDBRANCH  14  18
ENDBRANCH   1  14
TORSDOF 3
ENDMDL
MODEL 7
REMARK VINA RESULT:      -7.4      1.455      3.947
REMARK  Name = 
REMARK  3 active torsions:
REMARK  status: ('A' for Active; 'I' for Inactive)
REMARK    1  A    between atoms: N_1  and  C_2
REMARK    2  A    between atoms: C_5  and  C_6
REMARK    3  A    between atoms: C_6  and  N_7
REMARK                            x       y       z     vdW  Elec       q    Type
REMARK                         _______ _______ _______ _____ _____    ______ ____
ROOT
ATOM      1  N   UNL     1       3.410   6.091  17.845  0.00  0.00    +0.000 N 
ATOM      2  C   UNL     1       2.976   4.820  18.155  0.00  0.00    +0.000 A 
ATOM      3  C   UNL     1       4.085   4.021  18.357  0.00  0.00    +0.000 A 
ATOM      4  C   UNL     1       5.239   4.811  18.118  0.00  0.00    +0.000 A 
ATOM      5  C   UNL     1       6.621   4.536  18.121  0.00  0.00    +0.000 A 
ATOM      6  C   UNL     1       7.531   5.552  17.815  0.00  0.00    +0.000 A 
ATOM      7  C   UNL     1       7.080   6.833  17.516  0.00  0.00    +0.000 A 
ATOM      8  C   UNL     1       5.712   7.129  17.503  0.00  0.00    +0.000 A 
ATOM      9  C   UNL     1       4.799   6.103  17.805  0.00  0.00    +0.000 A 
ATOM     10  C   UNL     1       3.989   2.572  18.705  0.00  0.00    +0.000 C 
ATOM     11  C   UNL     1       2.577   2.215  19.203  0.00  0.00    +0.000 C 
ATOM     12  C   UNL     1       1.493   2.825  18.300  0.00  0.00    +0.000 C 
ATOM     13  C   UNL     1       1.559   4.364  18.275  0.00  0.00    +0.000 C 
ENDROOT
BRANCH   1  14
ATOM     14  C   UNL     1       2.556   7.201  17.430  0.00  0.00    +0.000 C 
BRANCH  14  18
ATOM     15  C   UNL     1       0.903   9.550  20.687  0.00  0.00    +0.000 A 
ATOM     16  C   UNL     1       0.886  10.031  19.377  0.00  0.00    +0.000 A 
ATOM     17  C   UNL     1       1.466   9.299  18.336  0.00  0.00    +0.000 A 
ATOM     18  C   UNL     1       2.039   8.044  18.571  0.00  0.00    +0.000 A 
ATOM     19  C   UNL     1       2.034   7.552  19.883  0.00  0.00    +0.000 A 
ATOM     20  C   UNL     1       1.450   8.288  20.922  0.00  0.00    +0.000 A 
BRANCH  15  21
ATOM     21  N   UNL     1       0.168  10.200  21.685  0.00  0.00    +0.000 N 
ATOM     22  H   UNL     1       0.591  11.064  22.008  0.00  0.00    +0.000 HD
ATOM     23  H   UNL     1      -0.109   9.596  22.452  0.00  0.00    +0.000 HD
ENDBRANCH  15  21
ENDBRANCH  14  18
ENDBRANCH   1  14
TORSDOF 3
ENDMDL
MODEL 8
REMARK VINA RESULT:      -7.2      1.463      3.877
REMARK  Name = 
REMARK  3 active torsions:
REMARK  status: ('A' for Active; 'I' for Inactive)
REMARK    1  A    between atoms: N_1  and  C_2
REMARK    2  A    between atoms: C_5  and  C_6
REMARK    3  A    between atoms: C_6  and  N_7
REMARK                            x       y       z     vdW  Elec       q    Type
REMARK                         _______ _______ _______ _____ _____    ______ ____
ROOT
ATOM      1  N   UNL     1       3.654   6.258  17.723  0.00  0.00    +0.000 N 
ATOM      2  C   UNL     1       3.131   5.012  17.997  0.00  0.00    +0.000 A 
ATOM      3  C   UNL     1       4.178   4.156  18.280  0.00  0.00    +0.000 A 
ATOM      4  C   UNL     1       5.387   4.883  18.129  0.00  0.00    +0.000 A 
ATOM      5  C   UNL     1       6.748   4.535  18.234  0.00  0.00    +0.000 A 
ATOM      6  C   UNL     1       7.731   5.501  17.999  0.00  0.00    +0.000 A 
ATOM      7  C   UNL     1       7.372   6.803  17.670  0.00  0.00    +0.000 A 
ATOM      8  C   UNL     1       6.027   7.172  17.556  0.00  0.00    +0.000 A 
ATOM      9  C   UNL     1       5.041   6.196  17.787  0.00  0.00    +0.000 A 
ATOM     10  C   UNL     1       3.979   2.714  18.616  0.00  0.00    +0.000 C 
ATOM     11  C   UNL     1       2.517   2.434  19.006  0.00  0.00    +0.000 C 
ATOM     12  C   UNL     1       1.537   3.099  18.027  0.00  0.00    +0.000 C 
ATOM     13  C   UNL     1       1.687   4.633  18.011  0.00  0.00    +0.000 C 
ENDROOT
BRANCH   1  14
ATOM     14  C   UNL     1       2.893   7.412  17.249  0.00  0.00    +0.000 C 
BRANCH  14  18
ATOM     15  C   UNL     1       0.787   9.552  20.385  0.00  0.00    +0.000 A 
ATOM     16  C   UNL     1       1.504   8.389  20.670  0.00  0.00    +0.000 A 
ATOM     17  C   UNL     1       2.137   7.669  19.651  0.00  0.00    +0.000 A 
ATOM     18  C   UNL     1       2.109   8.121  18.327  0.00  0.00    +0.000 A 
ATOM     19  C   UNL     1       1.409   9.302  18.047  0.00  0.00    +0.000 A 
ATOM     20  C   UNL     1       0.777  10.019  19.071  0.00  0.00    +0.000 A 
BRANCH  15  21
ATOM     21  N   UNL     1       0.310  10.357  21.427  0.00  0.00    +0.000 N 
ATOM     22  H   UNL     1       0.945  11.104  21.690  0.00  0.00    +0.000 HD
ATOM     23  H   UNL     1      -0.026   9.835  22.230  0.00  0.00    +0.000 HD
ENDBRANCH  15  21
ENDBRANCH  14  18
ENDBRANCH   1  14
TORSDOF 3
ENDMDL
MODEL 9
REMARK VINA RESULT:      -7.1      2.265      5.694
REMARK  Name = 
REMARK  3 active torsions:
REMARK  status: ('A' for Active; 'I' for Inactive)
REMARK    1  A    between atoms: N_1  and  C_2
REMARK    2  A    between atoms: C_5  and  C_6
REMARK    3  A    between atoms: C_6  and  N_7
REMARK                            x       y       z     vdW  Elec       q    Type
REMARK                         _______ _______ _______ _____ _____    ______ ____
ROOT
ATOM      1  N   UNL     1       3.456   5.194  18.601  0.00  0.00    +0.000 N 
ATOM      2  C   UNL     1       3.248   4.198  19.530  0.00  0.00    +0.000 A 
ATOM      3  C   UNL     1       2.376   4.678  20.489  0.00  0.00    +0.000 A 
ATOM      4  C   UNL     1       2.076   6.026  20.168  0.00  0.00    +0.000 A 
ATOM      5  C   UNL     1       1.301   7.023  20.794  0.00  0.00    +0.000 A 
ATOM      6  C   UNL     1       1.217   8.297  20.223  0.00  0.00    +0.000 A 
ATOM      7  C   UNL     1       1.889   8.582  19.039  0.00  0.00    +0.000 A 
ATOM      8  C   UNL     1       2.667   7.609  18.402  0.00  0.00    +0.000 A 
ATOM      9  C   UNL     1       2.754   6.331  18.982  0.00  0.00    +0.000 A 
ATOM     10  C   UNL     1       1.931   3.864  21.661  0.00  0.00    +0.000 C 
ATOM     11  C   UNL     1       2.214   2.369  21.435  0.00  0.00    +0.000 C 
ATOM     12  C   UNL     1       3.630   2.142  20.882  0.00  0.00    +0.000 C 
ATOM     13  C   UNL     1       3.834   2.825  19.516  0.00  0.00    +0.000 C 
ENDROOT
BRANCH   1  14
ATOM     14  C   UNL     1       4.414   5.138  17.498  0.00  0.00    +0.000 C 
BRANCH  14  18
ATOM     15  C   UNL     1       8.006   7.421  18.353  0.00  0.00    +0.000 A 
ATOM     16  C   UNL     1       7.093   7.857  17.392  0.00  0.00    +0.000 A 
ATOM     17  C   UNL     1       5.963   7.095  17.077  0.00  0.00    +0.000 A 
ATOM     18  C   UNL     1       5.693   5.897  17.751  0.00  0.00    +0.000 A 
ATOM     19  C   UNL     1       6.599   5.474  18.732  0.00  0.00    +0.000 A 
ATOM     20  C   UNL     1       7.728   6.242  19.044  0.00  0.00    +0.000 A 
BRANCH  15  21
ATOM     21  N   UNL     1       9.031   8.271  18.786  0.00  0.00    +0.000 N 
ATOM     22  H   UNL     1       9.550   8.704  18.029  0.00  0.00    +0.000 HD
ATOM     23  H   UNL     1       9.641   7.858  19.485  0.00  0.00    +0.000 HD
ENDBRANCH  15  21
ENDBRANCH  14  18
ENDBRANCH   1  14
TORSDOF 3
ENDMDL
