MODEL 1
REMARK VINA RESULT:      -6.6      0.000      0.000
REMARK  Name = 
REMARK  7 active torsions:
REMARK  status: ('A' for Active; 'I' for Inactive)
REMARK    1  A    between atoms: C_2  and  C_3
REMARK    2  A    between atoms: N_5  and  C_6
REMARK    3  A    between atoms: N_10  and  C_11
REMARK    4  A    between atoms: C_24  and  O_25
REMARK    5  A    between atoms: O_25  and  C_26
REMARK    6  A    between atoms: C_26  and  C_27
REMARK    7  A    between atoms: C_27  and  N_28
REMARK                            x       y       z     vdW  Elec       q    Type
REMARK                         _______ _______ _______ _____ _____    ______ ____
ROOT
ATOM      1  C   UNL     1       5.008   5.847  18.118  0.00  0.00    +0.000 A 
ATOM      2  C   UNL     1       4.198   6.386  19.125  0.00  0.00    +0.000 A 
ATOM      3  C   UNL     1       3.021   5.751  19.560  0.00  0.00    +0.000 A 
ATOM      4  C   UNL     1       2.060   6.349  20.387  0.00  0.00    +0.000 A 
ATOM      5  N   UNL     1       2.206   7.708  20.757  0.00  0.00    +0.000 N 
ATOM      6  N   UNL     1       0.941   5.696  20.749  0.00  0.00    +0.000 NA
ATOM      7  C   UNL     1       0.782   4.458  20.280  0.00  0.00    +0.000 A 
ATOM      8  N   UNL     1       1.623   3.812  19.466  0.00  0.00    +0.000 NA
ATOM      9  C   UNL     1       2.723   4.473  19.095  0.00  0.00    +0.000 A 
ATOM     10  C   UNL     1       3.578   3.895  18.174  0.00  0.00    +0.000 A 
ATOM     11  C   UNL     1       4.687   4.571  17.623  0.00  0.00    +0.000 A 
ATOM     12  H   UNL     1       3.076   7.888  21.249  0.00  0.00    +0.000 HD
ENDROOT
BRANCH   5  13
ATOM     13  C   UNL     1       1.152   8.550  21.157  0.00  0.00    +0.000 A 
ATOM     14  C   UNL     1       0.780   8.646  22.506  0.00  0.00    +0.000 A 
ATOM     15  C   UNL     1      -0.161   9.584  22.925  0.00  0.00    +0.000 A 
ATOM     16  C   UNL     1      -0.755  10.424  21.987  0.00  0.00    +0.000 A 
ATOM     17 BR   UNL     1      -1.942  11.775  22.569  0.00  0.00    +0.000 Br
ATOM     18  C   UNL     1      -0.460  10.296  20.631  0.00  0.00    +0.000 A 
ATOM     19  C   UNL     1       0.483   9.358  20.229  0.00  0.00    +0.000 A 
ATOM     20  F   UNL     1       0.785   9.252  18.925  0.00  0.00    +0.000 F 
ENDBRANCH   5  13
BRANCH   1  23
ATOM     21  C   UNL     1       7.329   6.711  18.205  0.00  0.00    +0.000 C 
ATOM     22  O   UNL     1       7.655   6.200  19.272  0.00  0.00    +0.000 OA
ATOM     23  N   UNL     1       6.088   6.611  17.592  0.00  0.00    +0.000 N 
ATOM     24  H   UNL     1       5.859   7.217  16.815  0.00  0.00    +0.000 HD
BRANCH  21  26
ATOM     25  C   UNL     1       8.255   8.898  17.660  0.00  0.00    +0.000 C 
ATOM     26  C   UNL     1       8.315   7.568  17.491  0.00  0.00    +0.000 C 
ENDBRANCH  21  26
ENDBRANCH   1  23
BRANCH  11  27
ATOM     27  O   UNL     1       5.434   4.052  16.578  0.00  0.00    +0.000 OA
BRANCH  27  28
ATOM     28  C   UNL     1       4.994   4.493  15.272  0.00  0.00    +0.000 C 
BRANCH  28  29
ATOM     29  C   UNL     1       6.165   4.761  14.319  0.00  0.00    +0.000 C 
BRANCH  29  30
ATOM     30  N   UNL     1       7.392   5.112  15.029  0.00  0.00    +0.000 NA
ATOM     31  H   UNL     1       8.144   5.243  14.350  0.00  0.00    +0.000 HD
ATOM     32  H   UNL     1       7.672   4.343  15.631  0.00  0.00    +0.000 HD
ENDBRANCH  29  30
ENDBRANCH  28  29
ENDBRANCH  27  28
ENDBRANCH  11  27
TORSDOF 7
ENDMDL
MODEL 2
REMARK VINA RESULT:      -6.6      2.911      4.367
REMARK  Name = 
REMARK  7 active torsions:
REMARK  status: ('A' for Active; 'I' for Inactive)
REMARK    1  A    between atoms: C_2  and  C_3
REMARK    2  A    between atoms: N_5  and  C_6
REMARK    3  A    between atoms: N_10  and  C_11
REMARK    4  A    between atoms: C_24  and  O_25
REMARK    5  A    between atoms: O_25  and  C_26
REMARK    6  A    between atoms: C_26  and  C_27
REMARK    7  A    between atoms: C_27  and  N_28
REMARK                            x       y       z     vdW  Elec       q    Type
REMARK                         _______ _______ _______ _____ _____    ______ ____
ROOT
ATOM      1  C   UNL     1       3.170   6.694  18.184  0.00  0.00    +0.000 A 
ATOM      2  C   UNL     1       2.346   7.826  18.147  0.00  0.00    +0.000 A 
ATOM      3  C   UNL     1       1.597   8.243  19.261  0.00  0.00    +0.000 A 
ATOM      4  C   UNL     1       0.589   9.217  19.216  0.00  0.00    +0.000 A 
ATOM      5  N   UNL     1       0.214   9.775  17.970  0.00  0.00    +0.000 N 
ATOM      6  N   UNL     1      -0.110   9.556  20.314  0.00  0.00    +0.000 NA
ATOM      7  C   UNL     1       0.191   8.920  21.446  0.00  0.00    +0.000 A 
ATOM      8  N   UNL     1       1.112   7.960  21.587  0.00  0.00    +0.000 NA
ATOM      9  C   UNL     1       1.790   7.615  20.488  0.00  0.00    +0.000 A 
ATOM     10  C   UNL     1       2.680   6.558  20.551  0.00  0.00    +0.000 A 
ATOM     11  C   UNL     1       3.337   6.037  19.416  0.00  0.00    +0.000 A 
ATOM     12  H   UNL     1       0.990  10.225  17.493  0.00  0.00    +0.000 HD
ENDROOT
BRANCH   5  13
ATOM     13  C   UNL     1      -1.031  10.371  17.697  0.00  0.00    +0.000 A 
ATOM     14  C   UNL     1      -1.993   9.706  16.923  0.00  0.00    +0.000 A 
ATOM     15  C   UNL     1      -3.277  10.226  16.773  0.00  0.00    +0.000 A 
ATOM     16  C   UNL     1      -3.602  11.434  17.385  0.00  0.00    +0.000 A 
ATOM     17 BR   UNL     1      -5.376  12.079  17.281  0.00  0.00    +0.000 Br
ATOM     18  C   UNL     1      -2.642  12.151  18.095  0.00  0.00    +0.000 A 
ATOM     19  C   UNL     1      -1.367  11.619  18.238  0.00  0.00    +0.000 A 
ATOM     20  F   UNL     1      -0.449  12.300  18.943  0.00  0.00    +0.000 F 
ENDBRANCH   5  13
BRANCH   1  23
ATOM     21  C   UNL     1       5.085   6.465  16.628  0.00  0.00    +0.000 C 
ATOM     22  O   UNL     1       5.890   7.146  17.256  0.00  0.00    +0.000 OA
ATOM     23  N   UNL     1       3.768   6.212  16.985  0.00  0.00    +0.000 N 
ATOM     24  H   UNL     1       3.133   5.799  16.314  0.00  0.00    +0.000 HD
BRANCH  21  26
ATOM     25  C   UNL     1       5.633   4.541  15.236  0.00  0.00    +0.000 C 
ATOM     26  C   UNL     1       5.507   5.874  15.328  0.00  0.00    +0.000 C 
ENDBRANCH  21  26
ENDBRANCH   1  23
BRANCH  11  27
ATOM     27  O   UNL     1       4.090   4.876  19.458  0.00  0.00    +0.000 OA
BRANCH  27  28
ATOM     28  C   UNL     1       3.322   3.694  19.787  0.00  0.00    +0.000 C 
BRANCH  28  29
ATOM     29  C   UNL     1       3.930   2.417  19.194  0.00  0.00    +0.000 C 
BRANCH  29  30
ATOM     30  N   UNL     1       5.036   1.901  19.996  0.00  0.00    +0.000 NA
ATOM     31  H   UNL     1       4.922   2.214  20.961  0.00  0.00    +0.000 HD
ATOM     32  H   UNL     1       5.913   2.293  19.663  0.00  0.00    +0.000 HD
ENDBRANCH  29  30
ENDBRANCH  28  29
ENDBRANCH  27  28
ENDBRANCH  11  27
TORSDOF 7
ENDMDL
MODEL 3
REMARK VINA RESULT:      -6.5      2.748      4.876
REMARK  Name = 
REMARK  7 active torsions:
REMARK  status: ('A' for Active; 'I' for Inactive)
REMARK    1  A    between atoms: C_2  and  C_3
REMARK    2  A    between atoms: N_5  and  C_6
REMARK    3  A    between atoms: N_10  and  C_11
REMARK    4  A    between atoms: C_24  and  O_25
REMARK    5  A    between atoms: O_25  and  C_26
REMARK    6  A    between atoms: C_26  and  C_27
REMARK    7  A    between atoms: C_27  and  N_28
REMARK                            x       y       z     vdW  Elec       q    Type
REMARK                         _______ _______ _______ _____ _____    ______ ____
ROOT
ATOM      1  C   UNL     1       2.330   6.453  19.885  0.00  0.00    +0.000 A 
ATOM      2  C   UNL     1       1.471   7.523  20.160  0.00  0.00    +0.000 A 
ATOM      3  C   UNL     1       1.473   8.701  19.392  0.00  0.00    +0.000 A 
ATOM      4  C   UNL     1       0.810   9.882  19.756  0.00  0.00    +0.000 A 
ATOM      5  N   UNL     1       0.159   9.958  21.012  0.00  0.00    +0.000 N 
ATOM      6  N   UNL     1       0.869  10.986  18.989  0.00  0.00    +0.000 NA
ATOM      7  C   UNL     1       1.593  10.910  17.872  0.00  0.00    +0.000 A 
ATOM      8  N   UNL     1       2.282   9.844  17.453  0.00  0.00    +0.000 NA
ATOM      9  C   UNL     1       2.234   8.757  18.229  0.00  0.00    +0.000 A 
ATOM     10  C   UNL     1       3.009   7.660  17.900  0.00  0.00    +0.000 A 
ATOM     11  C   UNL     1       3.127   6.524  18.729  0.00  0.00    +0.000 A 
ATOM     12  H   UNL     1      -0.558   9.248  21.125  0.00  0.00    +0.000 HD
ENDROOT
BRANCH   5  13
ATOM     13  C   UNL     1      -0.122  11.154  21.700  0.00  0.00    +0.000 A 
ATOM     14  C   UNL     1       0.428  12.373  21.278  0.00  0.00    +0.000 A 
ATOM     15  C   UNL     1       0.037  13.575  21.864  0.00  0.00    +0.000 A 
ATOM     16  C   UNL     1      -0.896  13.563  22.897  0.00  0.00    +0.000 A 
ATOM     17 BR   UNL     1      -1.514  15.200  23.610  0.00  0.00    +0.000 Br
ATOM     18  C   UNL     1      -1.399  12.359  23.385  0.00  0.00    +0.000 A 
ATOM     19  C   UNL     1      -1.003  11.168  22.789  0.00  0.00    +0.000 A 
ATOM     20  F   UNL     1      -1.506  10.009  23.244  0.00  0.00    +0.000 F 
ENDBRANCH   5  13
BRANCH   1  23
ATOM     21  C   UNL     1       1.585   4.248  20.738  0.00  0.00    +0.000 C 
ATOM     22  O   UNL     1       0.665   4.068  19.946  0.00  0.00    +0.000 OA
ATOM     23  N   UNL     1       2.415   5.359  20.793  0.00  0.00    +0.000 N 
ATOM     24  H   UNL     1       3.017   5.499  21.594  0.00  0.00    +0.000 HD
BRANCH  21  26
ATOM     25  C   UNL     1       2.839   2.349  21.608  0.00  0.00    +0.000 C 
ATOM     26  C   UNL     1       1.837   3.223  21.788  0.00  0.00    +0.000 C 
ENDBRANCH  21  26
ENDBRANCH   1  23
BRANCH  11  27
ATOM     27  O   UNL     1       4.034   5.508  18.478  0.00  0.00    +0.000 OA
BRANCH  27  28
ATOM     28  C   UNL     1       5.064   5.869  17.528  0.00  0.00    +0.000 C 
BRANCH  28  29
ATOM     29  C   UNL     1       6.424   5.250  17.875  0.00  0.00    +0.000 C 
BRANCH  29  30
ATOM     30  N   UNL     1       6.295   4.003  18.623  0.00  0.00    +0.000 NA
ATOM     31  H   UNL     1       6.621   3.230  18.041  0.00  0.00    +0.000 HD
ATOM     32  H   UNL     1       5.314   3.824  18.824  0.00  0.00    +0.000 HD
ENDBRANCH  29  30
ENDBRANCH  28  29
ENDBRANCH  27  28
ENDBRANCH  11  27
TORSDOF 7
ENDMDL
MODEL 4
REMARK VINA RESULT:      -6.4      6.039     10.468
REMARK  Name = 
REMARK  7 active torsions:
REMARK  status: ('A' for Active; 'I' for Inactive)
REMARK    1  A    between atoms: C_2  and  C_3
REMARK    2  A    between atoms: N_5  and  C_6
REMARK    3  A    between atoms: N_10  and  C_11
REMARK    4  A    between atoms: C_24  and  O_25
REMARK    5  A    between atoms: O_25  and  C_26
REMARK    6  A    between atoms: C_26  and  C_27
REMARK    7  A    between atoms: C_27  and  N_28
REMARK                            x       y       z     vdW  Elec       q    Type
REMARK                         _______ _______ _______ _____ _____    ______ ____
ROOT
ATOM      1  C   UNL     1      -2.805  13.468  21.028  0.00  0.00    +0.000 A 
ATOM      2  C   UNL     1      -1.868  12.721  20.304  0.00  0.00    +0.000 A 
ATOM      3  C   UNL     1      -2.250  11.807  19.306  0.00  0.00    +0.000 A 
ATOM      4  C   UNL     1      -1.384  10.873  18.718  0.00  0.00    +0.000 A 
ATOM      5  N   UNL     1      -0.057  10.755  19.196  0.00  0.00    +0.000 N 
ATOM      6  N   UNL     1      -1.816  10.007  17.783  0.00  0.00    +0.000 NA
ATOM      7  C   UNL     1      -3.104  10.070  17.447  0.00  0.00    +0.000 A 
ATOM      8  N   UNL     1      -4.013  10.901  17.967  0.00  0.00    +0.000 NA
ATOM      9  C   UNL     1      -3.582  11.746  18.908  0.00  0.00    +0.000 A 
ATOM     10  C   UNL     1      -4.497  12.558  19.555  0.00  0.00    +0.000 A 
ATOM     11  C   UNL     1      -4.157  13.379  20.650  0.00  0.00    +0.000 A 
ATOM     12  H   UNL     1       0.464  11.625  19.127  0.00  0.00    +0.000 HD
ENDROOT
BRANCH   5  13
ATOM     13  C   UNL     1       0.749   9.609  19.057  0.00  0.00    +0.000 A 
ATOM     14  C   UNL     1       1.404   9.333  17.848  0.00  0.00    +0.000 A 
ATOM     15  C   UNL     1       2.315   8.283  17.751  0.00  0.00    +0.000 A 
ATOM     16  C   UNL     1       2.563   7.485  18.865  0.00  0.00    +0.000 A 
ATOM     17 BR   UNL     1       3.885   6.139  18.768  0.00  0.00    +0.000 Br
ATOM     18  C   UNL     1       1.867   7.692  20.055  0.00  0.00    +0.000 A 
ATOM     19  C   UNL     1       0.964   8.744  20.137  0.00  0.00    +0.000 A 
ATOM     20  F   UNL     1       0.312   8.957  21.292  0.00  0.00    +0.000 F 
ENDBRANCH   5  13
BRANCH   1  23
ATOM     21  C   UNL     1      -2.186  13.724  23.414  0.00  0.00    +0.000 C 
ATOM     22  O   UNL     1      -2.373  12.560  23.758  0.00  0.00    +0.000 OA
ATOM     23  N   UNL     1      -2.384  14.245  22.143  0.00  0.00    +0.000 N 
ATOM     24  H   UNL     1      -2.383  15.248  22.005  0.00  0.00    +0.000 HD
BRANCH  21  26
ATOM     25  C   UNL     1      -2.653  15.152  25.333  0.00  0.00    +0.000 C 
ATOM     26  C   UNL     1      -1.753  14.712  24.439  0.00  0.00    +0.000 C 
ENDBRANCH  21  26
ENDBRANCH   1  23
BRANCH  11  27
ATOM     27  O   UNL     1      -5.106  14.055  21.399  0.00  0.00    +0.000 OA
BRANCH  27  28
ATOM     28  C   UNL     1      -5.985  13.184  22.147  0.00  0.00    +0.000 C 
BRANCH  28  29
ATOM     29  C   UNL     1      -5.873  13.399  23.662  0.00  0.00    +0.000 C 
BRANCH  29  30
ATOM     30  N   UNL     1      -5.350  12.224  24.354  0.00  0.00    +0.000 NA
ATOM     31  H   UNL     1      -5.884  11.402  24.068  0.00  0.00    +0.000 HD
ATOM     32  H   UNL     1      -5.488  12.327  25.356  0.00  0.00    +0.000 HD
ENDBRANCH  29  30
ENDBRANCH  28  29
ENDBRANCH  27  28
ENDBRANCH  11  27
TORSDOF 7
ENDMDL
MODEL 5
REMARK VINA RESULT:      -6.3      5.006      8.908
REMARK  Name = 
REMARK  7 active torsions:
REMARK  status: ('A' for Active; 'I' for Inactive)
REMARK    1  A    between atoms: C_2  and  C_3
REMARK    2  A    between atoms: N_5  and  C_6
REMARK    3  A    between atoms: N_10  and  C_11
REMARK    4  A    between atoms: C_24  and  O_25
REMARK    5  A    between atoms: O_25  and  C_26
REMARK    6  A    between atoms: C_26  and  C_27
REMARK    7  A    between atoms: C_27  and  N_28
REMARK                            x       y       z     vdW  Elec       q    Type
REMARK                         _______ _______ _______ _____ _____    ______ ____
ROOT
ATOM      1  C   UNL     1      -1.247  11.012  18.634  0.00  0.00    +0.000 A 
ATOM      2  C   UNL     1      -0.494   9.839  18.765  0.00  0.00    +0.000 A 
ATOM      3  C   UNL     1       0.270   9.564  19.914  0.00  0.00    +0.000 A 
ATOM      4  C   UNL     1       1.215   8.533  20.005  0.00  0.00    +0.000 A 
ATOM      5  N   UNL     1       1.510   7.753  18.861  0.00  0.00    +0.000 N 
ATOM      6  N   UNL     1       1.933   8.335  21.126  0.00  0.00    +0.000 NA
ATOM      7  C   UNL     1       1.712   9.168  22.142  0.00  0.00    +0.000 A 
ATOM      8  N   UNL     1       0.856  10.196  22.145  0.00  0.00    +0.000 NA
ATOM      9  C   UNL     1       0.160  10.398  21.023  0.00  0.00    +0.000 A 
ATOM     10  C   UNL     1      -0.663  11.506  20.931  0.00  0.00    +0.000 A 
ATOM     11  C   UNL     1      -1.329  11.873  19.742  0.00  0.00    +0.000 A 
ATOM     12  H   UNL     1       0.691   7.281  18.487  0.00  0.00    +0.000 HD
ENDROOT
BRANCH   5  13
ATOM     13  C   UNL     1       2.707   7.040  18.660  0.00  0.00    +0.000 A 
ATOM     14  C   UNL     1       3.631   7.447  17.686  0.00  0.00    +0.000 A 
ATOM     15  C   UNL     1       4.879   6.835  17.583  0.00  0.00    +0.000 A 
ATOM     16  C   UNL     1       5.203   5.791  18.445  0.00  0.00    +0.000 A 
ATOM     17 BR   UNL     1       6.937   5.041  18.385  0.00  0.00    +0.000 Br
ATOM     18  C   UNL     1       4.273   5.318  19.368  0.00  0.00    +0.000 A 
ATOM     19  C   UNL     1       3.034   5.940  19.462  0.00  0.00    +0.000 A 
ATOM     20  F   UNL     1       2.147   5.498  20.369  0.00  0.00    +0.000 F 
ENDBRANCH   5  13
BRANCH   1  23
ATOM     21  C   UNL     1      -2.842  10.545  16.795  0.00  0.00    +0.000 C 
ATOM     22  O   UNL     1      -3.288   9.487  17.229  0.00  0.00    +0.000 OA
ATOM     23  N   UNL     1      -1.859  11.326  17.388  0.00  0.00    +0.000 N 
ATOM     24  H   UNL     1      -1.428  12.077  16.864  0.00  0.00    +0.000 HD
BRANCH  21  26
ATOM     25  C   UNL     1      -3.294  10.237  14.421  0.00  0.00    +0.000 C 
ATOM     26  C   UNL     1      -3.341  11.051  15.487  0.00  0.00    +0.000 C 
ENDBRANCH  21  26
ENDBRANCH   1  23
BRANCH  11  27
ATOM     27  O   UNL     1      -2.010  13.072  19.609  0.00  0.00    +0.000 OA
BRANCH  27  28
ATOM     28  C   UNL     1      -2.962  13.322  20.669  0.00  0.00    +0.000 C 
BRANCH  28  29
ATOM     29  C   UNL     1      -4.383  12.884  20.297  0.00  0.00    +0.000 C 
BRANCH  29  30
ATOM     30  N   UNL     1      -4.545  12.678  18.860  0.00  0.00    +0.000 NA
ATOM     31  H   UNL     1      -5.525  12.477  18.660  0.00  0.00    +0.000 HD
ATOM     32  H   UNL     1      -4.013  11.862  18.568  0.00  0.00    +0.000 HD
ENDBRANCH  29  30
ENDBRANCH  28  29
ENDBRANCH  27  28
ENDBRANCH  11  27
TORSDOF 7
ENDMDL
MODEL 6
REMARK VINA RESULT:      -6.2      6.166     10.385
REMARK  Name = 
REMARK  7 active torsions:
REMARK  status: ('A' for Active; 'I' for Inactive)
REMARK    1  A    between atoms: C_2  and  C_3
REMARK    2  A    between atoms: N_5  and  C_6
REMARK    3  A    between atoms: N_10  and  C_11
REMARK    4  A    between atoms: C_24  and  O_25
REMARK    5  A    between atoms: O_25  and  C_26
REMARK    6  A    between atoms: C_26  and  C_27
REMARK    7  A    between atoms: C_27  and  N_28
REMARK                            x       y       z     vdW  Elec       q    Type
REMARK                         _______ _______ _______ _____ _____    ______ ____
ROOT
ATOM      1  C   UNL     1      -3.064  13.032  20.853  0.00  0.00    +0.000 A 
ATOM      2  C   UNL     1      -1.955  12.371  20.310  0.00  0.00    +0.000 A 
ATOM      3  C   UNL     1      -2.062  11.527  19.191  0.00  0.00    +0.000 A 
ATOM      4  C   UNL     1      -1.045  10.667  18.751  0.00  0.00    +0.000 A 
ATOM      5  N   UNL     1       0.145  10.549  19.508  0.00  0.00    +0.000 N 
ATOM      6  N   UNL     1      -1.216   9.864  17.685  0.00  0.00    +0.000 NA
ATOM      7  C   UNL     1      -2.398   9.916  17.070  0.00  0.00    +0.000 A 
ATOM      8  N   UNL     1      -3.437  10.679  17.426  0.00  0.00    +0.000 NA
ATOM      9  C   UNL     1      -3.266  11.460  18.497  0.00  0.00    +0.000 A 
ATOM     10  C   UNL     1      -4.339  12.192  18.974  0.00  0.00    +0.000 A 
ATOM     11  C   UNL     1      -4.291  12.935  20.173  0.00  0.00    +0.000 A 
ATOM     12  H   UNL     1       0.628  11.436  19.620  0.00  0.00    +0.000 HD
ENDROOT
BRANCH   5  13
ATOM     13  C   UNL     1       1.012   9.441  19.477  0.00  0.00    +0.000 A 
ATOM     14  C   UNL     1       1.031   8.513  20.528  0.00  0.00    +0.000 A 
ATOM     15  C   UNL     1       1.778   7.340  20.435  0.00  0.00    +0.000 A 
ATOM     16  C   UNL     1       2.533   7.098  19.291  0.00  0.00    +0.000 A 
ATOM     17 BR   UNL     1       3.450   5.454  19.114  0.00  0.00    +0.000 Br
ATOM     18  C   UNL     1       2.591   8.040  18.266  0.00  0.00    +0.000 A 
ATOM     19  C   UNL     1       1.839   9.203  18.371  0.00  0.00    +0.000 A 
ATOM     20  F   UNL     1       1.877  10.100  17.373  0.00  0.00    +0.000 F 
ENDBRANCH   5  13
BRANCH   1  23
ATOM     21  C   UNL     1      -3.156  13.149  23.327  0.00  0.00    +0.000 C 
ATOM     22  O   UNL     1      -3.508  11.991  23.533  0.00  0.00    +0.000 OA
ATOM     23  N   UNL     1      -2.939  13.732  22.086  0.00  0.00    +0.000 N 
ATOM     24  H   UNL     1      -2.835  14.736  22.013  0.00  0.00    +0.000 HD
BRANCH  21  26
ATOM     25  C   UNL     1      -3.524  15.286  24.436  0.00  0.00    +0.000 C 
ATOM     26  C   UNL     1      -2.979  14.061  24.490  0.00  0.00    +0.000 C 
ENDBRANCH  21  26
ENDBRANCH   1  23
BRANCH  11  27
ATOM     27  O   UNL     1      -5.413  13.523  20.731  0.00  0.00    +0.000 OA
BRANCH  27  28
ATOM     28  C   UNL     1      -6.310  12.581  21.365  0.00  0.00    +0.000 C 
BRANCH  28  29
ATOM     29  C   UNL     1      -7.645  12.452  20.623  0.00  0.00    +0.000 C 
BRANCH  29  30
ATOM     30  N   UNL     1      -7.872  13.551  19.688  0.00  0.00    +0.000 NA
ATOM     31  H   UNL     1      -7.215  13.468  18.910  0.00  0.00    +0.000 HD
ATOM     32  H   UNL     1      -7.674  14.437  20.145  0.00  0.00    +0.000 HD
ENDBRANCH  29  30
ENDBRANCH  28  29
ENDBRANCH  27  28
ENDBRANCH  11  27
TORSDOF 7
ENDMDL
MODEL 7
REMARK VINA RESULT:      -6.2      5.025      8.911
REMARK  Name = 
REMARK  7 active torsions:
REMARK  status: ('A' for Active; 'I' for Inactive)
REMARK    1  A    between atoms: C_2  and  C_3
REMARK    2  A    between atoms: N_5  and  C_6
REMARK    3  A    between atoms: N_10  and  C_11
REMARK    4  A    between atoms: C_24  and  O_25
REMARK    5  A    between atoms: O_25  and  C_26
REMARK    6  A    between atoms: C_26  and  C_27
REMARK    7  A    between atoms: C_27  and  N_28
REMARK                            x       y       z     vdW  Elec       q    Type
REMARK                         _______ _______ _______ _____ _____    ______ ____
ROOT
ATOM      1  C   UNL     1      -1.406  11.141  18.786  0.00  0.00    +0.000 A 
ATOM      2  C   UNL     1      -0.649   9.972  18.924  0.00  0.00    +0.000 A 
ATOM      3  C   UNL     1       0.075   9.683  20.094  0.00  0.00    +0.000 A 
ATOM      4  C   UNL     1       1.025   8.657  20.202  0.00  0.00    +0.000 A 
ATOM      5  N   UNL     1       1.366   7.899  19.055  0.00  0.00    +0.000 N 
ATOM      6  N   UNL     1       1.704   8.445  21.344  0.00  0.00    +0.000 NA
ATOM      7  C   UNL     1       1.441   9.258  22.366  0.00  0.00    +0.000 A 
ATOM      8  N   UNL     1       0.577  10.280  22.356  0.00  0.00    +0.000 NA
ATOM      9  C   UNL     1      -0.080  10.496  21.213  0.00  0.00    +0.000 A 
ATOM     10  C   UNL     1      -0.908  11.599  21.111  0.00  0.00    +0.000 A 
ATOM     11  C   UNL     1      -1.534  11.983  19.905  0.00  0.00    +0.000 A 
ATOM     12  H   UNL     1       0.565   7.428  18.644  0.00  0.00    +0.000 HD
ENDROOT
BRANCH   5  13
ATOM     13  C   UNL     1       2.575   7.199  18.885  0.00  0.00    +0.000 A 
ATOM     14  C   UNL     1       2.929   6.154  19.751  0.00  0.00    +0.000 A 
ATOM     15  C   UNL     1       4.050   5.364  19.500  0.00  0.00    +0.000 A 
ATOM     16  C   UNL     1       4.840   5.631  18.385  0.00  0.00    +0.000 A 
ATOM     17 BR   UNL     1       6.289   4.487  17.979  0.00  0.00    +0.000 Br
ATOM     18  C   UNL     1       4.552   6.710  17.553  0.00  0.00    +0.000 A 
ATOM     19  C   UNL     1       3.431   7.487  17.814  0.00  0.00    +0.000 A 
ATOM     20  F   UNL     1       3.141   8.514  16.998  0.00  0.00    +0.000 F 
ENDBRANCH   5  13
BRANCH   1  23
ATOM     21  C   UNL     1      -2.798  10.618  16.803  0.00  0.00    +0.000 C 
ATOM     22  O   UNL     1      -3.116   9.476  17.122  0.00  0.00    +0.000 OA
ATOM     23  N   UNL     1      -1.976  11.473  17.525  0.00  0.00    +0.000 N 
ATOM     24  H   UNL     1      -1.624  12.317  17.092  0.00  0.00    +0.000 HD
BRANCH  21  26
ATOM     25  C   UNL     1      -3.544  10.301  14.506  0.00  0.00    +0.000 C 
ATOM     26  C   UNL     1      -3.280  11.159  15.503  0.00  0.00    +0.000 C 
ENDBRANCH  21  26
ENDBRANCH   1  23
BRANCH  11  27
ATOM     27  O   UNL     1      -2.220  13.179  19.769  0.00  0.00    +0.000 OA
BRANCH  27  28
ATOM     28  C   UNL     1      -3.382  13.285  20.623  0.00  0.00    +0.000 C 
BRANCH  28  29
ATOM     29  C   UNL     1      -4.582  12.498  20.082  0.00  0.00    +0.000 C 
BRANCH  29  30
ATOM     30  N   UNL     1      -4.836  12.772  18.669  0.00  0.00    +0.000 NA
ATOM     31  H   UNL     1      -5.520  12.100  18.318  0.00  0.00    +0.000 HD
ATOM     32  H   UNL     1      -3.984  12.629  18.134  0.00  0.00    +0.000 HD
ENDBRANCH  29  30
ENDBRANCH  28  29
ENDBRANCH  27  28
ENDBRANCH  11  27
TORSDOF 7
ENDMDL
MODEL 8
REMARK VINA RESULT:      -6.2      2.361      3.583
REMARK  Name = 
REMARK  7 active torsions:
REMARK  status: ('A' for Active; 'I' for Inactive)
REMARK    1  A    between atoms: C_2  and  C_3
REMARK    2  A    between atoms: N_5  and  C_6
REMARK    3  A    between atoms: N_10  and  C_11
REMARK    4  A    between atoms: C_24  and  O_25
REMARK    5  A    between atoms: O_25  and  C_26
REMARK    6  A    between atoms: C_26  and  C_27
REMARK    7  A    between atoms: C_27  and  N_28
REMARK                            x       y       z     vdW  Elec       q    Type
REMARK                         _______ _______ _______ _____ _____    ______ ____
ROOT
ATOM      1  C   UNL     1       4.196   5.323  17.463  0.00  0.00    +0.000 A 
ATOM      2  C   UNL     1       3.569   6.534  17.780  0.00  0.00    +0.000 A 
ATOM      3  C   UNL     1       2.832   6.709  18.964  0.00  0.00    +0.000 A 
ATOM      4  C   UNL     1       1.999   7.807  19.222  0.00  0.00    +0.000 A 
ATOM      5  N   UNL     1       1.794   8.779  18.213  0.00  0.00    +0.000 N 
ATOM      6  N   UNL     1       1.299   7.905  20.367  0.00  0.00    +0.000 NA
ATOM      7  C   UNL     1       1.426   6.908  21.242  0.00  0.00    +0.000 A 
ATOM      8  N   UNL     1       2.170   5.808  21.079  0.00  0.00    +0.000 NA
ATOM      9  C   UNL     1       2.847   5.708  19.932  0.00  0.00    +0.000 A 
ATOM     10  C   UNL     1       3.550   4.548  19.664  0.00  0.00    +0.000 A 
ATOM     11  C   UNL     1       4.181   4.299  18.426  0.00  0.00    +0.000 A 
ATOM     12  H   UNL     1       2.659   9.214  17.907  0.00  0.00    +0.000 HD
ENDROOT
BRANCH   5  13
ATOM     13  C   UNL     1       0.679   9.635  18.135  0.00  0.00    +0.000 A 
ATOM     14  C   UNL     1      -0.468   9.258  17.422  0.00  0.00    +0.000 A 
ATOM     15  C   UNL     1      -1.624  10.035  17.464  0.00  0.00    +0.000 A 
ATOM     16  C   UNL     1      -1.632  11.212  18.207  0.00  0.00    +0.000 A 
ATOM     17 BR   UNL     1      -3.235  12.202  18.361  0.00  0.00    +0.000 Br
ATOM     18  C   UNL     1      -0.482  11.646  18.861  0.00  0.00    +0.000 A 
ATOM     19  C   UNL     1       0.663  10.860  18.813  0.00  0.00    +0.000 A 
ATOM     20  F   UNL     1       1.765  11.268  19.463  0.00  0.00    +0.000 F 
ENDBRANCH   5  13
BRANCH   1  23
ATOM     21  C   UNL     1       6.139   5.254  15.926  0.00  0.00    +0.000 C 
ATOM     22  O   UNL     1       7.006   5.551  16.743  0.00  0.00    +0.000 OA
ATOM     23  N   UNL     1       4.778   5.140  16.177  0.00  0.00    +0.000 N 
ATOM     24  H   UNL     1       4.127   5.077  15.405  0.00  0.00    +0.000 HD
BRANCH  21  26
ATOM     25  C   UNL     1       5.988   4.008  13.838  0.00  0.00    +0.000 C 
ATOM     26  C   UNL     1       6.537   5.032  14.509  0.00  0.00    +0.000 C 
ENDBRANCH  21  26
ENDBRANCH   1  23
BRANCH  11  27
ATOM     27  O   UNL     1       4.733   3.070  18.105  0.00  0.00    +0.000 OA
BRANCH  27  28
ATOM     28  C   UNL     1       3.874   1.947  18.411  0.00  0.00    +0.000 C 
BRANCH  28  29
ATOM     29  C   UNL     1       2.506   2.051  17.725  0.00  0.00    +0.000 C 
BRANCH  29  30
ATOM     30  N   UNL     1       1.402   1.780  18.641  0.00  0.00    +0.000 NA
ATOM     31  H   UNL     1       0.628   1.368  18.117  0.00  0.00    +0.000 HD
ATOM     32  H   UNL     1       1.058   2.653  19.033  0.00  0.00    +0.000 HD
ENDBRANCH  29  30
ENDBRANCH  28  29
ENDBRANCH  27  28
ENDBRANCH  11  27
TORSDOF 7
ENDMDL
MODEL 9
REMARK VINA RESULT:      -6.1      6.180     10.662
REMARK  Name = 
REMARK  7 active torsions:
REMARK  status: ('A' for Active; 'I' for Inactive)
REMARK    1  A    between atoms: C_2  and  C_3
REMARK    2  A    between atoms: N_5  and  C_6
REMARK    3  A    between atoms: N_10  and  C_11
REMARK    4  A    between atoms: C_24  and  O_25
REMARK    5  A    between atoms: O_25  and  C_26
REMARK    6  A    between atoms: C_26  and  C_27
REMARK    7  A    between atoms: C_27  and  N_28
REMARK                            x       y       z     vdW  Elec       q    Type
REMARK                         _______ _______ _______ _____ _____    ______ ____
ROOT
ATOM      1  C   UNL     1      -2.578  13.225  21.993  0.00  0.00    +0.000 A 
ATOM      2  C   UNL     1      -1.647  12.603  21.153  0.00  0.00    +0.000 A 
ATOM      3  C   UNL     1      -2.024  11.970  19.956  0.00  0.00    +0.000 A 
ATOM      4  C   UNL     1      -1.181  11.140  19.202  0.00  0.00    +0.000 A 
ATOM      5  N   UNL     1       0.110  10.827  19.692  0.00  0.00    +0.000 N 
ATOM      6  N   UNL     1      -1.609  10.542  18.075  0.00  0.00    +0.000 NA
ATOM      7  C   UNL     1      -2.871  10.766  17.711  0.00  0.00    +0.000 A 
ATOM      8  N   UNL     1      -3.759  11.515  18.373  0.00  0.00    +0.000 NA
ATOM      9  C   UNL     1      -3.334  12.091  19.501  0.00  0.00    +0.000 A 
ATOM     10  C   UNL     1      -4.235  12.792  20.282  0.00  0.00    +0.000 A 
ATOM     11  C   UNL     1      -3.910  13.316  21.551  0.00  0.00    +0.000 A 
ATOM     12  H   UNL     1       0.681  11.653  19.848  0.00  0.00    +0.000 HD
ENDROOT
BRANCH   5  13
ATOM     13  C   UNL     1       0.857   9.692  19.324  0.00  0.00    +0.000 A 
ATOM     14  C   UNL     1       1.433   9.594  18.049  0.00  0.00    +0.000 A 
ATOM     15  C   UNL     1       2.292   8.543  17.731  0.00  0.00    +0.000 A 
ATOM     16  C   UNL     1       2.565   7.568  18.686  0.00  0.00    +0.000 A 
ATOM     17 BR   UNL     1       3.821   6.211  18.295  0.00  0.00    +0.000 Br
ATOM     18  C   UNL     1       1.944   7.602  19.932  0.00  0.00    +0.000 A 
ATOM     19  C   UNL     1       1.092   8.657  20.237  0.00  0.00    +0.000 A 
ATOM     20  F   UNL     1       0.513   8.702  21.447  0.00  0.00    +0.000 F 
ENDBRANCH   5  13
BRANCH   1  23
ATOM     21  C   UNL     1      -1.615  14.948  23.492  0.00  0.00    +0.000 C 
ATOM     22  O   UNL     1      -1.364  15.790  22.635  0.00  0.00    +0.000 OA
ATOM     23  N   UNL     1      -2.175  13.696  23.274  0.00  0.00    +0.000 N 
ATOM     24  H   UNL     1      -2.170  13.006  24.014  0.00  0.00    +0.000 HD
BRANCH  21  26
ATOM     25  C   UNL     1      -2.229  15.227  25.834  0.00  0.00    +0.000 C 
ATOM     26  C   UNL     1      -1.257  15.237  24.908  0.00  0.00    +0.000 C 
ENDBRANCH  21  26
ENDBRANCH   1  23
BRANCH  11  27
ATOM     27  O   UNL     1      -4.860  13.864  22.397  0.00  0.00    +0.000 OA
BRANCH  27  28
ATOM     28  C   UNL     1      -6.137  13.184  22.358  0.00  0.00    +0.000 C 
BRANCH  28  29
ATOM     29  C   UNL     1      -6.677  12.871  23.758  0.00  0.00    +0.000 C 
BRANCH  29  30
ATOM     30  N   UNL     1      -7.467  11.643  23.789  0.00  0.00    +0.000 NA
ATOM     31  H   UNL     1      -7.710  11.427  24.757  0.00  0.00    +0.000 HD
ATOM     32  H   UNL     1      -6.907  10.867  23.447  0.00  0.00    +0.000 HD
ENDBRANCH  29  30
ENDBRANCH  28  29
ENDBRANCH  27  28
ENDBRANCH  11  27
TORSDOF 7
ENDMDL
