MODEL 1
REMARK VINA RESULT:      -8.2      0.000      0.000
REMARK  Name = 
REMARK  8 active torsions:
REMARK  status: ('A' for Active; 'I' for Inactive)
REMARK    1  A    between atoms: C_1  and  S_2
REMARK    2  A    between atoms: S_2  and  C_3
REMARK    3  A    between atoms: C_6  and  C_7
REMARK    4  A    between atoms: C_10  and  N_11
REMARK    5  A    between atoms: N_14  and  C_15
REMARK    6  A    between atoms: C_18  and  S_19
REMARK    7  A    between atoms: S_19  and  C_20
REMARK    8  A    between atoms: C_28  and  N_29
REMARK                            x       y       z     vdW  Elec       q    Type
REMARK                         _______ _______ _______ _____ _____    ______ ____
ROOT
ATOM      1  C   UNL     1       1.951   7.797  19.641  0.00  0.00    +0.000 A 
ATOM      2  C   UNL     1       1.388   8.341  20.811  0.00  0.00    +0.000 A 
ATOM      3  C   UNL     1       0.695   9.557  20.811  0.00  0.00    +0.000 A 
ATOM      4  C   UNL     1       0.545  10.292  19.637  0.00  0.00    +0.000 A 
ATOM      5  C   UNL     1       1.072   9.765  18.454  0.00  0.00    +0.000 A 
ATOM      6  C   UNL     1       1.776   8.542  18.460  0.00  0.00    +0.000 A 
ENDROOT
BRANCH   1  10
ATOM      7  C   UNL     1       3.778   4.009  19.629  0.00  0.00    +0.000 A 
ATOM      8  C   UNL     1       2.662   4.325  20.386  0.00  0.00    +0.000 A 
ATOM      9  N   UNL     1       2.087   5.535  20.436  0.00  0.00    +0.000 NA
ATOM     10  C   UNL     1       2.653   6.491  19.686  0.00  0.00    +0.000 A 
ATOM     11  N   UNL     1       3.762   6.303  18.939  0.00  0.00    +0.000 NA
ATOM     12  C   UNL     1       4.349   5.072  18.912  0.00  0.00    +0.000 A 
BRANCH  12  13
ATOM     13  N   UNL     1       5.482   4.961  18.125  0.00  0.00    +0.000 N 
ATOM     14  C   UNL     1       6.812   5.468  18.488  0.00  0.00    +0.000 C 
ATOM     15  C   UNL     1       7.366   6.411  17.406  0.00  0.00    +0.000 C 
ATOM     16  O   UNL     1       7.328   5.819  16.102  0.00  0.00    +0.000 OA
ATOM     17  C   UNL     1       5.971   5.498  15.756  0.00  0.00    +0.000 C 
ATOM     18  C   UNL     1       5.373   4.480  16.738  0.00  0.00    +0.000 C 
ENDBRANCH  12  13
BRANCH   7  20
ATOM     19  C   UNL     1       3.279   1.727  18.194  0.00  0.00    +0.000 C 
ATOM     20  S   UNL     1       4.236   2.278  19.628  0.00  0.00    +0.000 S 
ENDBRANCH   7  20
ENDBRANCH   1  10
BRANCH   4  21
ATOM     21  N   UNL     1      -0.146  11.528  19.608  0.00  0.00    +0.000 N 
ATOM     22  C   UNL     1      -1.176  11.869  20.475  0.00  0.00    +0.000 C 
ATOM     23  O   UNL     1      -1.498  11.222  21.465  0.00  0.00    +0.000 OA
ATOM     24  N   UNL     1      -1.826  13.028  20.070  0.00  0.00    +0.000 N 
ATOM     25  H   UNL     1       0.308  12.300  19.141  0.00  0.00    +0.000 HD
ATOM     26  H   UNL     1      -1.879  13.139  19.067  0.00  0.00    +0.000 HD
BRANCH  24  27
ATOM     27  C   UNL     1      -2.879  13.592  20.828  0.00  0.00    +0.000 A 
ATOM     28  C   UNL     1      -4.218  13.220  20.627  0.00  0.00    +0.000 A 
ATOM     29  C   UNL     1      -5.241  13.795  21.382  0.00  0.00    +0.000 A 
ATOM     30  C   UNL     1      -4.919  14.754  22.343  0.00  0.00    +0.000 A 
ATOM     31  C   UNL     1      -3.594  15.150  22.541  0.00  0.00    +0.000 A 
ATOM     32  C   UNL     1      -2.572  14.545  21.804  0.00  0.00    +0.000 A 
BRANCH  30  33
ATOM     33  S   UNL     1      -6.206  15.504  23.313  0.00  0.00    +0.000 S 
ATOM     34  C   UNL     1      -7.078  14.101  23.963  0.00  0.00    +0.000 C 
ATOM     35  O   UNL     1      -5.572  16.194  24.422  0.00  0.00    +0.000 OA
ATOM     36  O   UNL     1      -7.097  16.203  22.409  0.00  0.00    +0.000 OA
ENDBRANCH  30  33
ENDBRANCH  24  27
ENDBRANCH   4  21
TORSDOF 6
ENDMDL
MODEL 2
REMARK VINA RESULT:      -8.1      0.661      1.397
REMARK  Name = 
REMARK  8 active torsions:
REMARK  status: ('A' for Active; 'I' for Inactive)
REMARK    1  A    between atoms: C_1  and  S_2
REMARK    2  A    between atoms: S_2  and  C_3
REMARK    3  A    between atoms: C_6  and  C_7
REMARK    4  A    between atoms: C_10  and  N_11
REMARK    5  A    between atoms: N_14  and  C_15
REMARK    6  A    between atoms: C_18  and  S_19
REMARK    7  A    between atoms: S_19  and  C_20
REMARK    8  A    between atoms: C_28  and  N_29
REMARK                            x       y       z     vdW  Elec       q    Type
REMARK                         _______ _______ _______ _____ _____    ______ ____
ROOT
ATOM      1  C   UNL     1       1.902   7.778  19.770  0.00  0.00    +0.000 A 
ATOM      2  C   UNL     1       1.808   8.539  18.590  0.00  0.00    +0.000 A 
ATOM      3  C   UNL     1       1.172   9.785  18.552  0.00  0.00    +0.000 A 
ATOM      4  C   UNL     1       0.588  10.322  19.697  0.00  0.00    +0.000 A 
ATOM      5  C   UNL     1       0.687   9.601  20.891  0.00  0.00    +0.000 A 
ATOM      6  C   UNL     1       1.323   8.341  20.922  0.00  0.00    +0.000 A 
ENDROOT
BRANCH   1  10
ATOM      7  C   UNL     1       3.748   4.002  19.621  0.00  0.00    +0.000 A 
ATOM      8  C   UNL     1       2.641   4.290  20.403  0.00  0.00    +0.000 A 
ATOM      9  N   UNL     1       2.061   5.494  20.497  0.00  0.00    +0.000 NA
ATOM     10  C   UNL     1       2.611   6.475  19.767  0.00  0.00    +0.000 A 
ATOM     11  N   UNL     1       3.709   6.315  18.998  0.00  0.00    +0.000 NA
ATOM     12  C   UNL     1       4.302   5.089  18.927  0.00  0.00    +0.000 A 
BRANCH  12  13
ATOM     13  N   UNL     1       5.424   5.007  18.120  0.00  0.00    +0.000 N 
ATOM     14  C   UNL     1       6.766   5.473  18.495  0.00  0.00    +0.000 C 
ATOM     15  C   UNL     1       7.321   6.468  17.462  0.00  0.00    +0.000 C 
ATOM     16  O   UNL     1       7.258   5.955  16.126  0.00  0.00    +0.000 OA
ATOM     17  C   UNL     1       5.893   5.674  15.780  0.00  0.00    +0.000 C 
ATOM     18  C   UNL     1       5.291   4.609  16.708  0.00  0.00    +0.000 C 
ENDBRANCH  12  13
BRANCH   7  20
ATOM     19  C   UNL     1       3.272   1.770  18.102  0.00  0.00    +0.000 C 
ATOM     20  S   UNL     1       4.214   2.274  19.563  0.00  0.00    +0.000 S 
ENDBRANCH   7  20
ENDBRANCH   1  10
BRANCH   4  21
ATOM     21  N   UNL     1      -0.068  11.578  19.688  0.00  0.00    +0.000 N 
ATOM     22  C   UNL     1      -1.063  11.946  20.584  0.00  0.00    +0.000 C 
ATOM     23  O   UNL     1      -1.375  11.306  21.582  0.00  0.00    +0.000 OA
ATOM     24  N   UNL     1      -1.691  13.123  20.199  0.00  0.00    +0.000 N 
ATOM     25  H   UNL     1       0.394  12.337  19.209  0.00  0.00    +0.000 HD
ATOM     26  H   UNL     1      -1.768  13.238  19.198  0.00  0.00    +0.000 HD
BRANCH  24  27
ATOM     27  C   UNL     1      -2.706  13.715  20.987  0.00  0.00    +0.000 A 
ATOM     28  C   UNL     1      -2.407  14.559  22.067  0.00  0.00    +0.000 A 
ATOM     29  C   UNL     1      -3.424  15.126  22.836  0.00  0.00    +0.000 A 
ATOM     30  C   UNL     1      -4.753  14.840  22.519  0.00  0.00    +0.000 A 
ATOM     31  C   UNL     1      -5.067  13.986  21.460  0.00  0.00    +0.000 A 
ATOM     32  C   UNL     1      -4.043  13.449  20.675  0.00  0.00    +0.000 A 
BRANCH  30  33
ATOM     33  S   UNL     1      -6.066  15.547  23.487  0.00  0.00    +0.000 S 
ATOM     34  C   UNL     1      -7.059  16.366  22.266  0.00  0.00    +0.000 C 
ATOM     35  O   UNL     1      -6.841  14.450  24.039  0.00  0.00    +0.000 OA
ATOM     36  O   UNL     1      -5.490  16.562  24.348  0.00  0.00    +0.000 OA
ENDBRANCH  30  33
ENDBRANCH  24  27
ENDBRANCH   4  21
TORSDOF 6
ENDMDL
MODEL 3
REMARK VINA RESULT:      -8.0      0.899      1.776
REMARK  Name = 
REMARK  8 active torsions:
REMARK  status: ('A' for Active; 'I' for Inactive)
REMARK    1  A    between atoms: C_1  and  S_2
REMARK    2  A    between atoms: S_2  and  C_3
REMARK    3  A    between atoms: C_6  and  C_7
REMARK    4  A    between atoms: C_10  and  N_11
REMARK    5  A    between atoms: N_14  and  C_15
REMARK    6  A    between atoms: C_18  and  S_19
REMARK    7  A    between atoms: S_19  and  C_20
REMARK    8  A    between atoms: C_28  and  N_29
REMARK                            x       y       z     vdW  Elec       q    Type
REMARK                         _______ _______ _______ _____ _____    ______ ____
ROOT
ATOM      1  C   UNL     1       1.768   8.191  19.416  0.00  0.00    +0.000 A 
ATOM      2  C   UNL     1       1.523   8.883  18.214  0.00  0.00    +0.000 A 
ATOM      3  C   UNL     1       0.809  10.085  18.177  0.00  0.00    +0.000 A 
ATOM      4  C   UNL     1       0.295  10.646  19.344  0.00  0.00    +0.000 A 
ATOM      5  C   UNL     1       0.544   9.995  20.556  0.00  0.00    +0.000 A 
ATOM      6  C   UNL     1       1.259   8.779  20.588  0.00  0.00    +0.000 A 
ENDROOT
BRANCH   1  10
ATOM      7  C   UNL     1       3.831   4.529  19.271  0.00  0.00    +0.000 A 
ATOM      8  C   UNL     1       2.767   4.782  20.121  0.00  0.00    +0.000 A 
ATOM      9  N   UNL     1       2.121   5.953  20.213  0.00  0.00    +0.000 NA
ATOM     10  C   UNL     1       2.555   6.933  19.408  0.00  0.00    +0.000 A 
ATOM     11  N   UNL     1       3.604   6.808  18.567  0.00  0.00    +0.000 NA
ATOM     12  C   UNL     1       4.266   5.617  18.498  0.00  0.00    +0.000 A 
BRANCH  12  13
ATOM     13  N   UNL     1       5.330   5.569  17.614  0.00  0.00    +0.000 N 
ATOM     14  C   UNL     1       5.247   5.103  16.223  0.00  0.00    +0.000 C 
ATOM     15  C   UNL     1       6.261   3.979  15.949  0.00  0.00    +0.000 C 
ATOM     16  O   UNL     1       7.590   4.339  16.343  0.00  0.00    +0.000 OA
ATOM     17  C   UNL     1       7.617   4.625  17.750  0.00  0.00    +0.000 C 
ATOM     18  C   UNL     1       6.701   5.808  18.095  0.00  0.00    +0.000 C 
ENDBRANCH  12  13
BRANCH   7  20
ATOM     19  C   UNL     1       3.353   2.199  17.908  0.00  0.00    +0.000 C 
ATOM     20  S   UNL     1       4.399   2.831  19.243  0.00  0.00    +0.000 S 
ENDBRANCH   7  20
ENDBRANCH   1  10
BRANCH   4  21
ATOM     21  N   UNL     1      -0.437  11.859  19.336  0.00  0.00    +0.000 N 
ATOM     22  C   UNL     1      -1.423  12.182  20.259  0.00  0.00    +0.000 C 
ATOM     23  O   UNL     1      -1.662  11.543  21.278  0.00  0.00    +0.000 OA
ATOM     24  N   UNL     1      -2.136  13.311  19.876  0.00  0.00    +0.000 N 
ATOM     25  H   UNL     1      -0.039  12.636  18.829  0.00  0.00    +0.000 HD
ATOM     26  H   UNL     1      -2.253  13.402  18.877  0.00  0.00    +0.000 HD
BRANCH  24  27
ATOM     27  C   UNL     1      -3.159  13.854  20.688  0.00  0.00    +0.000 A 
ATOM     28  C   UNL     1      -2.902  14.870  21.621  0.00  0.00    +0.000 A 
ATOM     29  C   UNL     1      -3.926  15.387  22.417  0.00  0.00    +0.000 A 
ATOM     30  C   UNL     1      -5.216  14.875  22.278  0.00  0.00    +0.000 A 
ATOM     31  C   UNL     1      -5.484  13.849  21.369  0.00  0.00    +0.000 A 
ATOM     32  C   UNL     1      -4.460  13.362  20.552  0.00  0.00    +0.000 A 
BRANCH  30  33
ATOM     33  S   UNL     1      -6.535  15.513  23.285  0.00  0.00    +0.000 S 
ATOM     34  C   UNL     1      -5.698  16.655  24.354  0.00  0.00    +0.000 C 
ATOM     35  O   UNL     1      -7.419  16.272  22.418  0.00  0.00    +0.000 OA
ATOM     36  O   UNL     1      -7.041  14.427  24.100  0.00  0.00    +0.000 OA
ENDBRANCH  30  33
ENDBRANCH  24  27
ENDBRANCH   4  21
TORSDOF 6
ENDMDL
MODEL 4
REMARK VINA RESULT:      -7.9      3.007      4.087
REMARK  Name = 
REMARK  8 active torsions:
REMARK  status: ('A' for Active; 'I' for Inactive)
REMARK    1  A    between atoms: C_1  and  S_2
REMARK    2  A    between atoms: S_2  and  C_3
REMARK    3  A    between atoms: C_6  and  C_7
REMARK    4  A    between atoms: C_10  and  N_11
REMARK    5  A    between atoms: N_14  and  C_15
REMARK    6  A    between atoms: C_18  and  S_19
REMARK    7  A    between atoms: S_19  and  C_20
REMARK    8  A    between atoms: C_28  and  N_29
REMARK                            x       y       z     vdW  Elec       q    Type
REMARK                         _______ _______ _______ _____ _____    ______ ____
ROOT
ATOM      1  C   UNL     1       1.947   8.373  18.681  0.00  0.00    +0.000 A 
ATOM      2  C   UNL     1       1.512   8.344  20.019  0.00  0.00    +0.000 A 
ATOM      3  C   UNL     1       0.624   9.294  20.537  0.00  0.00    +0.000 A 
ATOM      4  C   UNL     1       0.140  10.327  19.738  0.00  0.00    +0.000 A 
ATOM      5  C   UNL     1       0.535  10.368  18.397  0.00  0.00    +0.000 A 
ATOM      6  C   UNL     1       1.435   9.411  17.881  0.00  0.00    +0.000 A 
ENDROOT
BRANCH   1  10
ATOM      7  C   UNL     1       4.703   5.466  17.399  0.00  0.00    +0.000 A 
ATOM      8  C   UNL     1       4.815   6.817  17.110  0.00  0.00    +0.000 A 
ATOM      9  N   UNL     1       3.929   7.754  17.474  0.00  0.00    +0.000 NA
ATOM     10  C   UNL     1       2.867   7.326  18.171  0.00  0.00    +0.000 A 
ATOM     11  N   UNL     1       2.640   6.032  18.477  0.00  0.00    +0.000 NA
ATOM     12  C   UNL     1       3.539   5.084  18.084  0.00  0.00    +0.000 A 
BRANCH  12  13
ATOM     13  N   UNL     1       3.234   3.780  18.434  0.00  0.00    +0.000 N 
ATOM     14  C   UNL     1       2.316   2.903  17.695  0.00  0.00    +0.000 C 
ATOM     15  C   UNL     1       1.209   2.354  18.612  0.00  0.00    +0.000 C 
ATOM     16  O   UNL     1       1.738   1.743  19.795  0.00  0.00    +0.000 OA
ATOM     17  C   UNL     1       2.491   2.711  20.543  0.00  0.00    +0.000 C 
ATOM     18  C   UNL     1       3.681   3.240  19.729  0.00  0.00    +0.000 C 
ENDBRANCH  12  13
BRANCH   7  20
ATOM     19  C   UNL     1       5.626   4.062  15.233  0.00  0.00    +0.000 C 
ATOM     20  S   UNL     1       6.112   4.465  16.929  0.00  0.00    +0.000 S 
ENDBRANCH   7  20
ENDBRANCH   1  10
BRANCH   4  21
ATOM     21  N   UNL     1      -0.754  11.307  20.235  0.00  0.00    +0.000 N 
ATOM     22  C   UNL     1      -0.389  12.333  21.097  0.00  0.00    +0.000 C 
ATOM     23  O   UNL     1       0.766  12.615  21.397  0.00  0.00    +0.000 OA
ATOM     24  N   UNL     1      -1.498  12.993  21.609  0.00  0.00    +0.000 N 
ATOM     25  H   UNL     1      -1.616  11.446  19.728  0.00  0.00    +0.000 HD
ATOM     26  H   UNL     1      -2.298  12.395  21.758  0.00  0.00    +0.000 HD
BRANCH  24  27
ATOM     27  C   UNL     1      -1.366  14.106  22.473  0.00  0.00    +0.000 A 
ATOM     28  C   UNL     1      -1.118  15.398  21.983  0.00  0.00    +0.000 A 
ATOM     29  C   UNL     1      -0.985  16.480  22.854  0.00  0.00    +0.000 A 
ATOM     30  C   UNL     1      -1.097  16.262  24.228  0.00  0.00    +0.000 A 
ATOM     31  C   UNL     1      -1.323  14.980  24.732  0.00  0.00    +0.000 A 
ATOM     32  C   UNL     1      -1.489  13.908  23.851  0.00  0.00    +0.000 A 
BRANCH  30  33
ATOM     33  S   UNL     1      -0.925  17.625  25.357  0.00  0.00    +0.000 S 
ATOM     34  C   UNL     1      -0.513  16.821  26.884  0.00  0.00    +0.000 C 
ATOM     35  O   UNL     1       0.225  18.403  24.932  0.00  0.00    +0.000 OA
ATOM     36  O   UNL     1      -2.227  18.242  25.514  0.00  0.00    +0.000 OA
ENDBRANCH  30  33
ENDBRANCH  24  27
ENDBRANCH   4  21
TORSDOF 6
ENDMDL
MODEL 5
REMARK VINA RESULT:      -7.9      3.367      4.368
REMARK  Name = 
REMARK  8 active torsions:
REMARK  status: ('A' for Active; 'I' for Inactive)
REMARK    1  A    between atoms: C_1  and  S_2
REMARK    2  A    between atoms: S_2  and  C_3
REMARK    3  A    between atoms: C_6  and  C_7
REMARK    4  A    between atoms: C_10  and  N_11
REMARK    5  A    between atoms: N_14  and  C_15
REMARK    6  A    between atoms: C_18  and  S_19
REMARK    7  A    between atoms: S_19  and  C_20
REMARK    8  A    between atoms: C_28  and  N_29
REMARK                            x       y       z     vdW  Elec       q    Type
REMARK                         _______ _______ _______ _____ _____    ______ ____
ROOT
ATOM      1  C   UNL     1       2.095   8.231  18.612  0.00  0.00    +0.000 A 
ATOM      2  C   UNL     1       1.646   9.303  17.817  0.00  0.00    +0.000 A 
ATOM      3  C   UNL     1       0.827  10.318  18.325  0.00  0.00    +0.000 A 
ATOM      4  C   UNL     1       0.409  10.299  19.653  0.00  0.00    +0.000 A 
ATOM      5  C   UNL     1       0.859   9.260  20.474  0.00  0.00    +0.000 A 
ATOM      6  C   UNL     1       1.679   8.235  19.956  0.00  0.00    +0.000 A 
ENDROOT
BRANCH   1  10
ATOM      7  C   UNL     1       4.778   5.351  17.130  0.00  0.00    +0.000 A 
ATOM      8  C   UNL     1       4.852   6.702  16.829  0.00  0.00    +0.000 A 
ATOM      9  N   UNL     1       3.986   7.631  17.257  0.00  0.00    +0.000 NA
ATOM     10  C   UNL     1       2.985   7.193  18.035  0.00  0.00    +0.000 A 
ATOM     11  N   UNL     1       2.797   5.897  18.361  0.00  0.00    +0.000 NA
ATOM     12  C   UNL     1       3.674   4.958  17.903  0.00  0.00    +0.000 A 
BRANCH  12  13
ATOM     13  N   UNL     1       3.413   3.653  18.279  0.00  0.00    +0.000 N 
ATOM     14  C   UNL     1       2.468   2.755  17.601  0.00  0.00    +0.000 C 
ATOM     15  C   UNL     1       1.426   2.194  18.583  0.00  0.00    +0.000 C 
ATOM     16  O   UNL     1       2.032   1.602  19.737  0.00  0.00    +0.000 OA
ATOM     17  C   UNL     1       2.811   2.587  20.434  0.00  0.00    +0.000 C 
ATOM     18  C   UNL     1       3.943   3.130  19.550  0.00  0.00    +0.000 C 
ENDBRANCH  12  13
BRANCH   7  20
ATOM     19  C   UNL     1       5.999   4.655  14.776  0.00  0.00    +0.000 C 
ATOM     20  S   UNL     1       6.158   4.364  16.556  0.00  0.00    +0.000 S 
ENDBRANCH   7  20
ENDBRANCH   1  10
BRANCH   4  21
ATOM     21  N   UNL     1      -0.424  11.309  20.193  0.00  0.00    +0.000 N 
ATOM     22  C   UNL     1       0.009  12.291  21.074  0.00  0.00    +0.000 C 
ATOM     23  O   UNL     1       1.182  12.506  21.358  0.00  0.00    +0.000 OA
ATOM     24  N   UNL     1      -1.056  12.992  21.625  0.00  0.00    +0.000 N 
ATOM     25  H   UNL     1      -1.287  11.505  19.707  0.00  0.00    +0.000 HD
ATOM     26  H   UNL     1      -1.883  12.432  21.775  0.00  0.00    +0.000 HD
BRANCH  24  27
ATOM     27  C   UNL     1      -0.852  14.074  22.515  0.00  0.00    +0.000 A 
ATOM     28  C   UNL     1      -0.067  15.183  22.164  0.00  0.00    +0.000 A 
ATOM     29  C   UNL     1       0.126  16.235  23.061  0.00  0.00    +0.000 A 
ATOM     30  C   UNL     1      -0.469  16.170  24.321  0.00  0.00    +0.000 A 
ATOM     31  C   UNL     1      -1.236  15.063  24.693  0.00  0.00    +0.000 A 
ATOM     32  C   UNL     1      -1.452  14.030  23.777  0.00  0.00    +0.000 A 
BRANCH  30  33
ATOM     33  S   UNL     1      -0.232  17.496  25.482  0.00  0.00    +0.000 S 
ATOM     34  C   UNL     1      -1.869  18.153  25.669  0.00  0.00    +0.000 C 
ATOM     35  O   UNL     1       0.164  16.903  26.747  0.00  0.00    +0.000 OA
ATOM     36  O   UNL     1       0.586  18.508  24.843  0.00  0.00    +0.000 OA
ENDBRANCH  30  33
ENDBRANCH  24  27
ENDBRANCH   4  21
TORSDOF 6
ENDMDL
MODEL 6
REMARK VINA RESULT:      -7.9      2.212      3.483
REMARK  Name = 
REMARK  8 active torsions:
REMARK  status: ('A' for Active; 'I' for Inactive)
REMARK    1  A    between atoms: C_1  and  S_2
REMARK    2  A    between atoms: S_2  and  C_3
REMARK    3  A    between atoms: C_6  and  C_7
REMARK    4  A    between atoms: C_10  and  N_11
REMARK    5  A    between atoms: N_14  and  C_15
REMARK    6  A    between atoms: C_18  and  S_19
REMARK    7  A    between atoms: S_19  and  C_20
REMARK    8  A    between atoms: C_28  and  N_29
REMARK                            x       y       z     vdW  Elec       q    Type
REMARK                         _______ _______ _______ _____ _____    ______ ____
ROOT
ATOM      1  C   UNL     1       2.387   8.159  18.527  0.00  0.00    +0.000 A 
ATOM      2  C   UNL     1       2.231   9.366  17.819  0.00  0.00    +0.000 A 
ATOM      3  C   UNL     1       1.560  10.468  18.360  0.00  0.00    +0.000 A 
ATOM      4  C   UNL     1       1.001  10.408  19.634  0.00  0.00    +0.000 A 
ATOM      5  C   UNL     1       1.161   9.231  20.372  0.00  0.00    +0.000 A 
ATOM      6  C   UNL     1       1.833   8.119  19.820  0.00  0.00    +0.000 A 
ENDROOT
BRANCH   1  10
ATOM      7  C   UNL     1       4.675   5.002  16.951  0.00  0.00    +0.000 A 
ATOM      8  C   UNL     1       4.848   6.331  16.600  0.00  0.00    +0.000 A 
ATOM      9  N   UNL     1       4.106   7.348  17.058  0.00  0.00    +0.000 NA
ATOM     10  C   UNL     1       3.132   7.028  17.922  0.00  0.00    +0.000 A 
ATOM     11  N   UNL     1       2.852   5.764  18.306  0.00  0.00    +0.000 NA
ATOM     12  C   UNL     1       3.602   4.735  17.817  0.00  0.00    +0.000 A 
BRANCH  12  13
ATOM     13  N   UNL     1       3.252   3.470  18.256  0.00  0.00    +0.000 N 
ATOM     14  C   UNL     1       2.189   2.642  17.672  0.00  0.00    +0.000 C 
ATOM     15  C   UNL     1       1.169   2.208  18.739  0.00  0.00    +0.000 C 
ATOM     16  O   UNL     1       1.796   1.598  19.872  0.00  0.00    +0.000 OA
ATOM     17  C   UNL     1       2.704   2.530  20.482  0.00  0.00    +0.000 C 
ATOM     18  C   UNL     1       3.818   2.941  19.508  0.00  0.00    +0.000 C 
ENDBRANCH  12  13
BRANCH   7  20
ATOM     19  C   UNL     1       7.398   4.691  16.939  0.00  0.00    +0.000 C 
ATOM     20  S   UNL     1       5.910   3.874  16.311  0.00  0.00    +0.000 S 
ENDBRANCH   7  20
ENDBRANCH   1  10
BRANCH   4  21
ATOM     21  N   UNL     1       0.311  11.505  20.205  0.00  0.00    +0.000 N 
ATOM     22  C   UNL     1      -0.984  11.439  20.704  0.00  0.00    +0.000 C 
ATOM     23  O   UNL     1      -1.619  10.403  20.865  0.00  0.00    +0.000 OA
ATOM     24  N   UNL     1      -1.493  12.702  20.978  0.00  0.00    +0.000 N 
ATOM     25  H   UNL     1       0.866  12.284  20.528  0.00  0.00    +0.000 HD
ATOM     26  H   UNL     1      -1.174  13.419  20.343  0.00  0.00    +0.000 HD
BRANCH  24  27
ATOM     27  C   UNL     1      -2.780  12.877  21.541  0.00  0.00    +0.000 A 
ATOM     28  C   UNL     1      -3.028  12.654  22.904  0.00  0.00    +0.000 A 
ATOM     29  C   UNL     1      -4.307  12.826  23.435  0.00  0.00    +0.000 A 
ATOM     30  C   UNL     1      -5.345  13.222  22.591  0.00  0.00    +0.000 A 
ATOM     31  C   UNL     1      -5.119  13.428  21.228  0.00  0.00    +0.000 A 
ATOM     32  C   UNL     1      -3.828  13.286  20.711  0.00  0.00    +0.000 A 
BRANCH  30  33
ATOM     33  S   UNL     1      -6.984  13.442  23.245  0.00  0.00    +0.000 S 
ATOM     34  C   UNL     1      -6.976  15.139  23.763  0.00  0.00    +0.000 C 
ATOM     35  O   UNL     1      -7.916  13.312  22.140  0.00  0.00    +0.000 OA
ATOM     36  O   UNL     1      -7.108  12.615  24.429  0.00  0.00    +0.000 OA
ENDBRANCH  30  33
ENDBRANCH  24  27
ENDBRANCH   4  21
TORSDOF 6
ENDMDL
MODEL 7
REMARK VINA RESULT:      -7.9      1.345      1.773
REMARK  Name = 
REMARK  8 active torsions:
REMARK  status: ('A' for Active; 'I' for Inactive)
REMARK    1  A    between atoms: C_1  and  S_2
REMARK    2  A    between atoms: S_2  and  C_3
REMARK    3  A    between atoms: C_6  and  C_7
REMARK    4  A    between atoms: C_10  and  N_11
REMARK    5  A    between atoms: N_14  and  C_15
REMARK    6  A    between atoms: C_18  and  S_19
REMARK    7  A    between atoms: S_19  and  C_20
REMARK    8  A    between atoms: C_28  and  N_29
REMARK                            x       y       z     vdW  Elec       q    Type
REMARK                         _______ _______ _______ _____ _____    ______ ____
ROOT
ATOM      1  C   UNL     1       1.882   7.895  19.337  0.00  0.00    +0.000 A 
ATOM      2  C   UNL     1       1.151   8.431  20.415  0.00  0.00    +0.000 A 
ATOM      3  C   UNL     1       0.429   9.624  20.307  0.00  0.00    +0.000 A 
ATOM      4  C   UNL     1       0.415  10.344  19.116  0.00  0.00    +0.000 A 
ATOM      5  C   UNL     1       1.111   9.825  18.020  0.00  0.00    +0.000 A 
ATOM      6  C   UNL     1       1.844   8.624  18.134  0.00  0.00    +0.000 A 
ENDROOT
BRANCH   1  10
ATOM      7  C   UNL     1       3.786   4.157  19.641  0.00  0.00    +0.000 A 
ATOM      8  C   UNL     1       2.657   4.509  20.363  0.00  0.00    +0.000 A 
ATOM      9  N   UNL     1       2.057   5.707  20.312  0.00  0.00    +0.000 NA
ATOM     10  C   UNL     1       2.610   6.611  19.491  0.00  0.00    +0.000 A 
ATOM     11  N   UNL     1       3.728   6.388  18.769  0.00  0.00    +0.000 NA
ATOM     12  C   UNL     1       4.340   5.171  18.844  0.00  0.00    +0.000 A 
BRANCH  12  13
ATOM     13  N   UNL     1       5.482   5.021  18.076  0.00  0.00    +0.000 N 
ATOM     14  C   UNL     1       6.807   5.549  18.426  0.00  0.00    +0.000 C 
ATOM     15  C   UNL     1       7.371   6.435  17.302  0.00  0.00    +0.000 C 
ATOM     16  O   UNL     1       7.347   5.776  16.030  0.00  0.00    +0.000 OA
ATOM     17  C   UNL     1       5.995   5.435  15.687  0.00  0.00    +0.000 C 
ATOM     18  C   UNL     1       5.387   4.469  16.714  0.00  0.00    +0.000 C 
ENDBRANCH  12  13
BRANCH   7  20
ATOM     19  C   UNL     1       3.333   1.755  18.399  0.00  0.00    +0.000 C 
ATOM     20  S   UNL     1       4.278   2.441  19.782  0.00  0.00    +0.000 S 
ENDBRANCH   7  20
ENDBRANCH   1  10
BRANCH   4  21
ATOM     21  N   UNL     1      -0.302  11.559  18.979  0.00  0.00    +0.000 N 
ATOM     22  C   UNL     1      -0.618  12.403  20.036  0.00  0.00    +0.000 C 
ATOM     23  O   UNL     1      -0.178  12.291  21.175  0.00  0.00    +0.000 OA
ATOM     24  N   UNL     1      -1.523  13.385  19.656  0.00  0.00    +0.000 N 
ATOM     25  H   UNL     1      -0.335  11.976  18.060  0.00  0.00    +0.000 HD
ATOM     26  H   UNL     1      -2.193  13.080  18.964  0.00  0.00    +0.000 HD
BRANCH  24  27
ATOM     27  C   UNL     1      -1.952  14.388  20.557  0.00  0.00    +0.000 A 
ATOM     28  C   UNL     1      -1.211  15.561  20.768  0.00  0.00    +0.000 A 
ATOM     29  C   UNL     1      -1.650  16.533  21.668  0.00  0.00    +0.000 A 
ATOM     30  C   UNL     1      -2.841  16.324  22.364  0.00  0.00    +0.000 A 
ATOM     31  C   UNL     1      -3.580  15.153  22.182  0.00  0.00    +0.000 A 
ATOM     32  C   UNL     1      -3.150  14.200  21.254  0.00  0.00    +0.000 A 
BRANCH  30  33
ATOM     33  S   UNL     1      -3.417  17.547  23.519  0.00  0.00    +0.000 S 
ATOM     34  C   UNL     1      -3.684  16.599  24.995  0.00  0.00    +0.000 C 
ATOM     35  O   UNL     1      -2.321  18.467  23.765  0.00  0.00    +0.000 OA
ATOM     36  O   UNL     1      -4.705  18.026  23.057  0.00  0.00    +0.000 OA
ENDBRANCH  30  33
ENDBRANCH  24  27
ENDBRANCH   4  21
TORSDOF 6
ENDMDL
MODEL 8
REMARK VINA RESULT:      -7.8      0.711      1.091
REMARK  Name = 
REMARK  8 active torsions:
REMARK  status: ('A' for Active; 'I' for Inactive)
REMARK    1  A    between atoms: C_1  and  S_2
REMARK    2  A    between atoms: S_2  and  C_3
REMARK    3  A    between atoms: C_6  and  C_7
REMARK    4  A    between atoms: C_10  and  N_11
REMARK    5  A    between atoms: N_14  and  C_15
REMARK    6  A    between atoms: C_18  and  S_19
REMARK    7  A    between atoms: S_19  and  C_20
REMARK    8  A    between atoms: C_28  and  N_29
REMARK                            x       y       z     vdW  Elec       q    Type
REMARK                         _______ _______ _______ _____ _____    ______ ____
ROOT
ATOM      1  C   UNL     1       1.968   7.685  19.507  0.00  0.00    +0.000 A 
ATOM      2  C   UNL     1       1.887   8.507  18.367  0.00  0.00    +0.000 A 
ATOM      3  C   UNL     1       1.363   9.803  18.417  0.00  0.00    +0.000 A 
ATOM      4  C   UNL     1       0.883  10.333  19.612  0.00  0.00    +0.000 A 
ATOM      5  C   UNL     1       0.972   9.549  20.766  0.00  0.00    +0.000 A 
ATOM      6  C   UNL     1       1.495   8.239  20.710  0.00  0.00    +0.000 A 
ENDROOT
BRANCH   1  10
ATOM      7  C   UNL     1       3.471   3.779  19.086  0.00  0.00    +0.000 A 
ATOM      8  C   UNL     1       2.384   4.106  19.880  0.00  0.00    +0.000 A 
ATOM      9  N   UNL     1       1.912   5.348  20.060  0.00  0.00    +0.000 NA
ATOM     10  C   UNL     1       2.558   6.327  19.410  0.00  0.00    +0.000 A 
ATOM     11  N   UNL     1       3.648   6.126  18.640  0.00  0.00    +0.000 NA
ATOM     12  C   UNL     1       4.130   4.860  18.480  0.00  0.00    +0.000 A 
BRANCH  12  13
ATOM     13  N   UNL     1       5.251   4.738  17.678  0.00  0.00    +0.000 N 
ATOM     14  C   UNL     1       6.620   5.080  18.087  0.00  0.00    +0.000 C 
ATOM     15  C   UNL     1       7.260   6.085  17.114  0.00  0.00    +0.000 C 
ATOM     16  O   UNL     1       7.173   5.652  15.752  0.00  0.00    +0.000 OA
ATOM     17  C   UNL     1       5.795   5.495  15.381  0.00  0.00    +0.000 C 
ATOM     18  C   UNL     1       5.104   4.430  16.245  0.00  0.00    +0.000 C 
ENDBRANCH  12  13
BRANCH   7  20
ATOM     19  C   UNL     1       4.730   1.739  20.416  0.00  0.00    +0.000 C 
ATOM     20  S   UNL     1       3.783   2.025  18.901  0.00  0.00    +0.000 S 
ENDBRANCH   7  20
ENDBRANCH   1  10
BRANCH   4  21
ATOM     21  N   UNL     1       0.341  11.639  19.691  0.00  0.00    +0.000 N 
ATOM     22  C   UNL     1      -0.727  11.994  20.506  0.00  0.00    +0.000 C 
ATOM     23  O   UNL     1      -1.217  11.274  21.368  0.00  0.00    +0.000 OA
ATOM     24  N   UNL     1      -1.200  13.266  20.207  0.00  0.00    +0.000 N 
ATOM     25  H   UNL     1       0.922  12.401  19.374  0.00  0.00    +0.000 HD
ATOM     26  H   UNL     1      -1.138  13.507  19.229  0.00  0.00    +0.000 HD
BRANCH  24  27
ATOM     27  C   UNL     1      -2.254  13.857  20.943  0.00  0.00    +0.000 A 
ATOM     28  C   UNL     1      -3.599  13.548  20.686  0.00  0.00    +0.000 A 
ATOM     29  C   UNL     1      -4.623  14.149  21.419  0.00  0.00    +0.000 A 
ATOM     30  C   UNL     1      -4.295  15.070  22.414  0.00  0.00    +0.000 A 
ATOM     31  C   UNL     1      -2.962  15.404  22.668  0.00  0.00    +0.000 A 
ATOM     32  C   UNL     1      -1.941  14.772  21.952  0.00  0.00    +0.000 A 
BRANCH  30  33
ATOM     33  S   UNL     1      -5.583  15.852  23.358  0.00  0.00    +0.000 S 
ATOM     34  C   UNL     1      -6.699  14.513  23.687  0.00  0.00    +0.000 C 
ATOM     35  O   UNL     1      -5.004  16.278  24.619  0.00  0.00    +0.000 OA
ATOM     36  O   UNL     1      -6.262  16.796  22.491  0.00  0.00    +0.000 OA
ENDBRANCH  30  33
ENDBRANCH  24  27
ENDBRANCH   4  21
TORSDOF 6
ENDMDL
MODEL 9
REMARK VINA RESULT:      -7.7      1.500      2.230
REMARK  Name = 
REMARK  8 active torsions:
REMARK  status: ('A' for Active; 'I' for Inactive)
REMARK    1  A    between atoms: C_1  and  S_2
REMARK    2  A    between atoms: S_2  and  C_3
REMARK    3  A    between atoms: C_6  and  C_7
REMARK    4  A    between atoms: C_10  and  N_11
REMARK    5  A    between atoms: N_14  and  C_15
REMARK    6  A    between atoms: C_18  and  S_19
REMARK    7  A    between atoms: S_19  and  C_20
REMARK    8  A    between atoms: C_28  and  N_29
REMARK                            x       y       z     vdW  Elec       q    Type
REMARK                         _______ _______ _______ _____ _____    ______ ____
ROOT
ATOM      1  C   UNL     1       1.913   7.595  19.817  0.00  0.00    +0.000 A 
ATOM      2  C   UNL     1       1.986   8.467  18.715  0.00  0.00    +0.000 A 
ATOM      3  C   UNL     1       1.328   9.701  18.694  0.00  0.00    +0.000 A 
ATOM      4  C   UNL     1       0.554  10.115  19.776  0.00  0.00    +0.000 A 
ATOM      5  C   UNL     1       0.483   9.281  20.896  0.00  0.00    +0.000 A 
ATOM      6  C   UNL     1       1.143   8.034  20.910  0.00  0.00    +0.000 A 
ENDROOT
BRANCH   1  10
ATOM      7  C   UNL     1       3.841   3.860  19.645  0.00  0.00    +0.000 A 
ATOM      8  C   UNL     1       2.753   4.131  20.460  0.00  0.00    +0.000 A 
ATOM      9  N   UNL     1       2.148   5.323  20.560  0.00  0.00    +0.000 NA
ATOM     10  C   UNL     1       2.652   6.308  19.804  0.00  0.00    +0.000 A 
ATOM     11  N   UNL     1       3.729   6.165  19.003  0.00  0.00    +0.000 NA
ATOM     12  C   UNL     1       4.348   4.952  18.924  0.00  0.00    +0.000 A 
BRANCH  12  13
ATOM     13  N   UNL     1       5.445   4.888  18.083  0.00  0.00    +0.000 N 
ATOM     14  C   UNL     1       6.789   5.381  18.414  0.00  0.00    +0.000 C 
ATOM     15  C   UNL     1       7.292   6.381  17.359  0.00  0.00    +0.000 C 
ATOM     16  O   UNL     1       7.198   5.860  16.029  0.00  0.00    +0.000 OA
ATOM     17  C   UNL     1       5.828   5.551  15.726  0.00  0.00    +0.000 C 
ATOM     18  C   UNL     1       5.276   4.480  16.678  0.00  0.00    +0.000 C 
ENDBRANCH  12  13
BRANCH   7  20
ATOM     19  C   UNL     1       3.362   1.600  18.170  0.00  0.00    +0.000 C 
ATOM     20  S   UNL     1       4.345   2.143  19.589  0.00  0.00    +0.000 S 
ENDBRANCH   7  20
ENDBRANCH   1  10
BRANCH   4  21
ATOM     21  N   UNL     1      -0.128  11.356  19.781  0.00  0.00    +0.000 N 
ATOM     22  C   UNL     1      -0.387  12.101  20.925  0.00  0.00    +0.000 C 
ATOM     23  O   UNL     1       0.081  11.865  22.033  0.00  0.00    +0.000 OA
ATOM     24  N   UNL     1      -1.273  13.141  20.671  0.00  0.00    +0.000 N 
ATOM     25  H   UNL     1      -0.174  11.862  18.909  0.00  0.00    +0.000 HD
ATOM     26  H   UNL     1      -1.971  12.924  19.974  0.00  0.00    +0.000 HD
BRANCH  24  27
ATOM     27  C   UNL     1      -1.645  14.061  21.679  0.00  0.00    +0.000 A 
ATOM     28  C   UNL     1      -2.982  14.431  21.886  0.00  0.00    +0.000 A 
ATOM     29  C   UNL     1      -3.326  15.347  22.882  0.00  0.00    +0.000 A 
ATOM     30  C   UNL     1      -2.317  15.898  23.673  0.00  0.00    +0.000 A 
ATOM     31  C   UNL     1      -0.979  15.556  23.466  0.00  0.00    +0.000 A 
ATOM     32  C   UNL     1      -0.648  14.613  22.489  0.00  0.00    +0.000 A 
BRANCH  30  33
ATOM     33  S   UNL     1      -2.730  17.071  24.944  0.00  0.00    +0.000 S 
ATOM     34  C   UNL     1      -2.586  18.628  24.106  0.00  0.00    +0.000 C 
ATOM     35  O   UNL     1      -4.127  16.870  25.287  0.00  0.00    +0.000 OA
ATOM     36  O   UNL     1      -1.696  17.012  25.959  0.00  0.00    +0.000 OA
ENDBRANCH  30  33
ENDBRANCH  24  27
ENDBRANCH   4  21
TORSDOF 6
ENDMDL
