MODEL 1
REMARK VINA RESULT:      -6.9      0.000      0.000
REMARK  Name = 
REMARK  12 active torsions:
REMARK  status: ('A' for Active; 'I' for Inactive)
REMARK    1  A    between atoms: C_2  and  O_3
REMARK    2  A    between atoms: O_3  and  C_4
REMARK    3  A    between atoms: C_4  and  C_6
REMARK    4  A    between atoms: C_10  and  O_11
REMARK    5  A    between atoms: O_11  and  C_12
REMARK    6  A    between atoms: C_12  and  C_13
REMARK    7  A    between atoms: C_13  and  O_14
REMARK    8  A    between atoms: C_13  and  C_15
REMARK    9  A    between atoms: C_15  and  N_16
REMARK   10  A    between atoms: N_16  and  C_17
REMARK   11  A    between atoms: C_17  and  C_18
REMARK   12  A    between atoms: C_17  and  C_19
REMARK                            x       y       z     vdW  Elec       q    Type
REMARK                         _______ _______ _______ _____ _____    ______ ____
ROOT
ATOM      1  C   UNL     1       6.448   5.174  15.648  0.00  0.00    +0.000 A 
ATOM      2  C   UNL     1       7.100   6.160  16.404  0.00  0.00    +0.000 A 
ATOM      3  C   UNL     1       6.634   6.495  17.673  0.00  0.00    +0.000 A 
ATOM      4  C   UNL     1       5.521   5.839  18.197  0.00  0.00    +0.000 A 
ATOM      5  C   UNL     1       4.865   4.852  17.457  0.00  0.00    +0.000 A 
ATOM      6  C   UNL     1       5.320   4.533  16.175  0.00  0.00    +0.000 A 
ENDROOT
BRANCH   1   7
ATOM      7  C   UNL     1       7.016   4.824  14.318  0.00  0.00    +0.000 C 
ATOM      8  O   UNL     1       7.846   5.532  13.759  0.00  0.00    +0.000 OA
BRANCH   7   9
ATOM      9  O   UNL     1       6.502   3.646  13.859  0.00  0.00    +0.000 OA
BRANCH   9  11
ATOM     10  C   UNL     1       5.086   3.309  11.962  0.00  0.00    +0.000 C 
ATOM     11  C   UNL     1       6.282   3.587  12.480  0.00  0.00    +0.000 C 
ENDBRANCH   9  11
ENDBRANCH   7   9
ENDBRANCH   1   7
BRANCH   5  12
ATOM     12  O   UNL     1       3.812   4.255  18.095  0.00  0.00    +0.000 OA
BRANCH  12  13
ATOM     13  C   UNL     1       4.108   3.055  18.823  0.00  0.00    +0.000 C 
BRANCH  13  14
ATOM     14  C   UNL     1       3.203   1.923  18.321  0.00  0.00    +0.000 C 
BRANCH  14  15
ATOM     15  O   UNL     1       3.875   0.665  18.467  0.00  0.00    +0.000 OA
ATOM     16  H   UNL     1       4.003   0.319  17.564  0.00  0.00    +0.000 HD
ENDBRANCH  14  15
BRANCH  14  17
ATOM     17  C   UNL     1       1.866   1.875  19.083  0.00  0.00    +0.000 C 
BRANCH  17  18
ATOM     18  N   UNL     1       1.223   3.190  19.119  0.00  0.00    +0.000 NA
ATOM     19  H   UNL     1       0.347   3.153  18.595  0.00  0.00    +0.000 HD
BRANCH  18  20
ATOM     20  C   UNL     1       0.952   3.676  20.476  0.00  0.00    +0.000 C 
ATOM     21  C   UNL     1       1.518   2.754  21.559  0.00  0.00    +0.000 C 
ATOM     22  C   UNL     1       1.583   5.064  20.609  0.00  0.00    +0.000 C 
ENDBRANCH  18  20
ENDBRANCH  17  18
ENDBRANCH  14  17
ENDBRANCH  13  14
ENDBRANCH  12  13
ENDBRANCH   5  12
TORSDOF 10
ENDMDL
MODEL 2
REMARK VINA RESULT:      -6.5      1.927      3.075
REMARK  Name = 
REMARK  12 active torsions:
REMARK  status: ('A' for Active; 'I' for Inactive)
REMARK    1  A    between atoms: C_2  and  O_3
REMARK    2  A    between atoms: O_3  and  C_4
REMARK    3  A    between atoms: C_4  and  C_6
REMARK    4  A    between atoms: C_10  and  O_11
REMARK    5  A    between atoms: O_11  and  C_12
REMARK    6  A    between atoms: C_12  and  C_13
REMARK    7  A    between atoms: C_13  and  O_14
REMARK    8  A    between atoms: C_13  and  C_15
REMARK    9  A    between atoms: C_15  and  N_16
REMARK   10  A    between atoms: N_16  and  C_17
REMARK   11  A    between atoms: C_17  and  C_18
REMARK   12  A    between atoms: C_17  and  C_19
REMARK                            x       y       z     vdW  Elec       q    Type
REMARK                         _______ _______ _______ _____ _____    ______ ____
ROOT
ATOM      1  C   UNL     1       5.510   6.007  17.488  0.00  0.00    +0.000 A 
ATOM      2  C   UNL     1       4.641   7.027  17.072  0.00  0.00    +0.000 A 
ATOM      3  C   UNL     1       3.437   7.240  17.740  0.00  0.00    +0.000 A 
ATOM      4  C   UNL     1       3.101   6.442  18.832  0.00  0.00    +0.000 A 
ATOM      5  C   UNL     1       3.959   5.425  19.259  0.00  0.00    +0.000 A 
ATOM      6  C   UNL     1       5.156   5.198  18.575  0.00  0.00    +0.000 A 
ENDROOT
BRANCH   1   7
ATOM      7  C   UNL     1       6.803   5.854  16.767  0.00  0.00    +0.000 C 
ATOM      8  O   UNL     1       7.642   6.746  16.741  0.00  0.00    +0.000 OA
BRANCH   7   9
ATOM      9  O   UNL     1       6.901   4.621  16.190  0.00  0.00    +0.000 OA
BRANCH   9  11
ATOM     10  C   UNL     1       5.998   4.021  14.059  0.00  0.00    +0.000 C 
ATOM     11  C   UNL     1       6.938   4.617  14.793  0.00  0.00    +0.000 C 
ENDBRANCH   9  11
ENDBRANCH   7   9
ENDBRANCH   1   7
BRANCH   5  12
ATOM     12  O   UNL     1       3.536   4.739  20.364  0.00  0.00    +0.000 OA
BRANCH  12  13
ATOM     13  C   UNL     1       2.170   4.940  20.753  0.00  0.00    +0.000 C 
BRANCH  13  14
ATOM     14  C   UNL     1       1.471   3.579  20.869  0.00  0.00    +0.000 C 
BRANCH  14  15
ATOM     15  O   UNL     1       0.210   3.624  20.188  0.00  0.00    +0.000 OA
ATOM     16  H   UNL     1      -0.451   3.889  20.857  0.00  0.00    +0.000 HD
ENDBRANCH  14  15
BRANCH  14  17
ATOM     17  C   UNL     1       2.325   2.443  20.279  0.00  0.00    +0.000 C 
BRANCH  17  18
ATOM     18  N   UNL     1       1.661   1.810  19.137  0.00  0.00    +0.000 NA
ATOM     19  H   UNL     1       0.739   2.229  19.009  0.00  0.00    +0.000 HD
BRANCH  18  20
ATOM     20  C   UNL     1       2.417   1.914  17.885  0.00  0.00    +0.000 C 
ATOM     21  C   UNL     1       2.264   3.279  17.212  0.00  0.00    +0.000 C 
ATOM     22  C   UNL     1       3.893   1.669  18.210  0.00  0.00    +0.000 C 
ENDBRANCH  18  20
ENDBRANCH  17  18
ENDBRANCH  14  17
ENDBRANCH  13  14
ENDBRANCH  12  13
ENDBRANCH   5  12
TORSDOF 10
ENDMDL
MODEL 3
REMARK VINA RESULT:      -6.4      1.079      1.379
REMARK  Name = 
REMARK  12 active torsions:
REMARK  status: ('A' for Active; 'I' for Inactive)
REMARK    1  A    between atoms: C_2  and  O_3
REMARK    2  A    between atoms: O_3  and  C_4
REMARK    3  A    between atoms: C_4  and  C_6
REMARK    4  A    between atoms: C_10  and  O_11
REMARK    5  A    between atoms: O_11  and  C_12
REMARK    6  A    between atoms: C_12  and  C_13
REMARK    7  A    between atoms: C_13  and  O_14
REMARK    8  A    between atoms: C_13  and  C_15
REMARK    9  A    between atoms: C_15  and  N_16
REMARK   10  A    between atoms: N_16  and  C_17
REMARK   11  A    between atoms: C_17  and  C_18
REMARK   12  A    between atoms: C_17  and  C_19
REMARK                            x       y       z     vdW  Elec       q    Type
REMARK                         _______ _______ _______ _____ _____    ______ ____
ROOT
ATOM      1  C   UNL     1       6.415   4.941  16.173  0.00  0.00    +0.000 A 
ATOM      2  C   UNL     1       7.123   5.792  17.035  0.00  0.00    +0.000 A 
ATOM      3  C   UNL     1       6.842   5.802  18.400  0.00  0.00    +0.000 A 
ATOM      4  C   UNL     1       5.860   4.954  18.910  0.00  0.00    +0.000 A 
ATOM      5  C   UNL     1       5.150   4.099  18.063  0.00  0.00    +0.000 A 
ATOM      6  C   UNL     1       5.418   4.106  16.691  0.00  0.00    +0.000 A 
ENDROOT
BRANCH   1   7
ATOM      7  C   UNL     1       6.788   4.939  14.732  0.00  0.00    +0.000 C 
ATOM      8  O   UNL     1       7.823   5.456  14.328  0.00  0.00    +0.000 OA
BRANCH   7   9
ATOM      9  O   UNL     1       5.850   4.291  13.983  0.00  0.00    +0.000 OA
BRANCH   9  11
ATOM     10  C   UNL     1       5.530   3.073  11.950  0.00  0.00    +0.000 C 
ATOM     11  C   UNL     1       6.337   3.648  12.842  0.00  0.00    +0.000 C 
ENDBRANCH   9  11
ENDBRANCH   7   9
ENDBRANCH   1   7
BRANCH   5  12
ATOM     12  O   UNL     1       4.242   3.289  18.688  0.00  0.00    +0.000 OA
BRANCH  12  13
ATOM     13  C   UNL     1       3.725   2.197  17.915  0.00  0.00    +0.000 C 
BRANCH  13  14
ATOM     14  C   UNL     1       2.194   2.285  17.878  0.00  0.00    +0.000 C 
BRANCH  14  15
ATOM     15  O   UNL     1       1.636   1.427  18.883  0.00  0.00    +0.000 OA
ATOM     16  H   UNL     1       1.425   0.585  18.436  0.00  0.00    +0.000 HD
ENDBRANCH  14  15
BRANCH  14  17
ATOM     17  C   UNL     1       1.695   3.723  18.105  0.00  0.00    +0.000 C 
BRANCH  17  18
ATOM     18  N   UNL     1       1.135   3.890  19.448  0.00  0.00    +0.000 NA
ATOM     19  H   UNL     1       0.872   2.977  19.821  0.00  0.00    +0.000 HD
BRANCH  18  20
ATOM     20  C   UNL     1       2.048   4.549  20.388  0.00  0.00    +0.000 C 
ATOM     21  C   UNL     1       1.580   5.952  20.783  0.00  0.00    +0.000 C 
ATOM     22  C   UNL     1       2.140   3.673  21.640  0.00  0.00    +0.000 C 
ENDBRANCH  18  20
ENDBRANCH  17  18
ENDBRANCH  14  17
ENDBRANCH  13  14
ENDBRANCH  12  13
ENDBRANCH   5  12
TORSDOF 10
ENDMDL
MODEL 4
REMARK VINA RESULT:      -6.2      1.130      1.246
REMARK  Name = 
REMARK  12 active torsions:
REMARK  status: ('A' for Active; 'I' for Inactive)
REMARK    1  A    between atoms: C_2  and  O_3
REMARK    2  A    between atoms: O_3  and  C_4
REMARK    3  A    between atoms: C_4  and  C_6
REMARK    4  A    between atoms: C_10  and  O_11
REMARK    5  A    between atoms: O_11  and  C_12
REMARK    6  A    between atoms: C_12  and  C_13
REMARK    7  A    between atoms: C_13  and  O_14
REMARK    8  A    between atoms: C_13  and  C_15
REMARK    9  A    between atoms: C_15  and  N_16
REMARK   10  A    between atoms: N_16  and  C_17
REMARK   11  A    between atoms: C_17  and  C_18
REMARK   12  A    between atoms: C_17  and  C_19
REMARK                            x       y       z     vdW  Elec       q    Type
REMARK                         _______ _______ _______ _____ _____    ______ ____
ROOT
ATOM      1  C   UNL     1       6.290   4.900  16.020  0.00  0.00    +0.000 A 
ATOM      2  C   UNL     1       7.116   5.406  17.034  0.00  0.00    +0.000 A 
ATOM      3  C   UNL     1       6.627   5.556  18.330  0.00  0.00    +0.000 A 
ATOM      4  C   UNL     1       5.313   5.191  18.620  0.00  0.00    +0.000 A 
ATOM      5  C   UNL     1       4.480   4.682  17.620  0.00  0.00    +0.000 A 
ATOM      6  C   UNL     1       4.966   4.553  16.316  0.00  0.00    +0.000 A 
ENDROOT
BRANCH   1   7
ATOM      7  C   UNL     1       6.878   4.718  14.665  0.00  0.00    +0.000 C 
ATOM      8  O   UNL     1       7.673   5.520  14.189  0.00  0.00    +0.000 OA
BRANCH   7   9
ATOM      9  O   UNL     1       6.425   3.570  14.082  0.00  0.00    +0.000 OA
BRANCH   9  11
ATOM     10  C   UNL     1       5.885   2.825  11.876  0.00  0.00    +0.000 C 
ATOM     11  C   UNL     1       5.798   3.736  12.845  0.00  0.00    +0.000 C 
ENDBRANCH   9  11
ENDBRANCH   7   9
ENDBRANCH   1   7
BRANCH   5  12
ATOM     12  O   UNL     1       3.228   4.324  18.038  0.00  0.00    +0.000 OA
BRANCH  12  13
ATOM     13  C   UNL     1       2.586   3.277  17.298  0.00  0.00    +0.000 C 
BRANCH  13  14
ATOM     14  C   UNL     1       1.381   2.760  18.095  0.00  0.00    +0.000 C 
BRANCH  14  15
ATOM     15  O   UNL     1       1.691   1.481  18.665  0.00  0.00    +0.000 OA
ATOM     16  H   UNL     1       0.899   1.208  19.167  0.00  0.00    +0.000 HD
ENDBRANCH  14  15
BRANCH  14  17
ATOM     17  C   UNL     1       0.975   3.731  19.217  0.00  0.00    +0.000 C 
BRANCH  17  18
ATOM     18  N   UNL     1       0.786   3.031  20.490  0.00  0.00    +0.000 NA
ATOM     19  H   UNL     1       0.829   2.023  20.330  0.00  0.00    +0.000 HD
BRANCH  18  20
ATOM     20  C   UNL     1       1.766   3.399  21.516  0.00  0.00    +0.000 C 
ATOM     21  C   UNL     1       2.966   2.450  21.556  0.00  0.00    +0.000 C 
ATOM     22  C   UNL     1       2.250   4.819  21.210  0.00  0.00    +0.000 C 
ENDBRANCH  18  20
ENDBRANCH  17  18
ENDBRANCH  14  17
ENDBRANCH  13  14
ENDBRANCH  12  13
ENDBRANCH   5  12
TORSDOF 10
ENDMDL
MODEL 5
REMARK VINA RESULT:      -6.2      2.624      3.998
REMARK  Name = 
REMARK  12 active torsions:
REMARK  status: ('A' for Active; 'I' for Inactive)
REMARK    1  A    between atoms: C_2  and  O_3
REMARK    2  A    between atoms: O_3  and  C_4
REMARK    3  A    between atoms: C_4  and  C_6
REMARK    4  A    between atoms: C_10  and  O_11
REMARK    5  A    between atoms: O_11  and  C_12
REMARK    6  A    between atoms: C_12  and  C_13
REMARK    7  A    between atoms: C_13  and  O_14
REMARK    8  A    between atoms: C_13  and  C_15
REMARK    9  A    between atoms: C_15  and  N_16
REMARK   10  A    between atoms: N_16  and  C_17
REMARK   11  A    between atoms: C_17  and  C_18
REMARK   12  A    between atoms: C_17  and  C_19
REMARK                            x       y       z     vdW  Elec       q    Type
REMARK                         _______ _______ _______ _____ _____    ______ ____
ROOT
ATOM      1  C   UNL     1       5.602   6.044  17.732  0.00  0.00    +0.000 A 
ATOM      2  C   UNL     1       4.625   6.877  17.167  0.00  0.00    +0.000 A 
ATOM      3  C   UNL     1       3.372   6.996  17.765  0.00  0.00    +0.000 A 
ATOM      4  C   UNL     1       3.095   6.292  18.936  0.00  0.00    +0.000 A 
ATOM      5  C   UNL     1       4.061   5.462  19.511  0.00  0.00    +0.000 A 
ATOM      6  C   UNL     1       5.309   5.327  18.898  0.00  0.00    +0.000 A 
ENDROOT
BRANCH   1   7
ATOM      7  C   UNL     1       6.937   5.989  17.076  0.00  0.00    +0.000 C 
ATOM      8  O   UNL     1       7.481   4.927  16.797  0.00  0.00    +0.000 OA
BRANCH   7   9
ATOM      9  O   UNL     1       7.419   7.244  16.837  0.00  0.00    +0.000 OA
BRANCH   9  11
ATOM     10  C   UNL     1       8.201   9.203  17.962  0.00  0.00    +0.000 C 
ATOM     11  C   UNL     1       7.982   7.888  17.941  0.00  0.00    +0.000 C 
ENDBRANCH   9  11
ENDBRANCH   7   9
ENDBRANCH   1   7
BRANCH   5  12
ATOM     12  O   UNL     1       3.682   4.858  20.679  0.00  0.00    +0.000 OA
BRANCH  12  13
ATOM     13  C   UNL     1       2.272   4.670  20.869  0.00  0.00    +0.000 C 
BRANCH  13  14
ATOM     14  C   UNL     1       1.952   3.170  20.824  0.00  0.00    +0.000 C 
BRANCH  14  15
ATOM     15  O   UNL     1       1.416   2.752  22.086  0.00  0.00    +0.000 OA
ATOM     16  H   UNL     1       1.425   3.542  22.660  0.00  0.00    +0.000 HD
ENDBRANCH  14  15
BRANCH  14  17
ATOM     17  C   UNL     1       0.947   2.831  19.708  0.00  0.00    +0.000 C 
BRANCH  17  18
ATOM     18  N   UNL     1       1.539   1.942  18.706  0.00  0.00    +0.000 NA
ATOM     19  H   UNL     1       0.932   1.905  17.886  0.00  0.00    +0.000 HD
BRANCH  18  20
ATOM     20  C   UNL     1       2.888   2.340  18.290  0.00  0.00    +0.000 C 
ATOM     21  C   UNL     1       3.827   1.146  18.105  0.00  0.00    +0.000 C 
ATOM     22  C   UNL     1       2.762   3.099  16.966  0.00  0.00    +0.000 C 
ENDBRANCH  18  20
ENDBRANCH  17  18
ENDBRANCH  14  17
ENDBRANCH  13  14
ENDBRANCH  12  13
ENDBRANCH   5  12
TORSDOF 10
ENDMDL
MODEL 6
REMARK VINA RESULT:      -6.2      2.453      6.825
REMARK  Name = 
REMARK  12 active torsions:
REMARK  status: ('A' for Active; 'I' for Inactive)
REMARK    1  A    between atoms: C_2  and  O_3
REMARK    2  A    between atoms: O_3  and  C_4
REMARK    3  A    between atoms: C_4  and  C_6
REMARK    4  A    between atoms: C_10  and  O_11
REMARK    5  A    between atoms: O_11  and  C_12
REMARK    6  A    between atoms: C_12  and  C_13
REMARK    7  A    between atoms: C_13  and  O_14
REMARK    8  A    between atoms: C_13  and  C_15
REMARK    9  A    between atoms: C_15  and  N_16
REMARK   10  A    between atoms: N_16  and  C_17
REMARK   11  A    between atoms: C_17  and  C_18
REMARK   12  A    between atoms: C_17  and  C_19
REMARK                            x       y       z     vdW  Elec       q    Type
REMARK                         _______ _______ _______ _____ _____    ______ ____
ROOT
ATOM      1  C   UNL     1       2.482   4.315  18.300  0.00  0.00    +0.000 A 
ATOM      2  C   UNL     1       1.828   5.547  18.148  0.00  0.00    +0.000 A 
ATOM      3  C   UNL     1       2.563   6.713  17.948  0.00  0.00    +0.000 A 
ATOM      4  C   UNL     1       3.955   6.652  17.889  0.00  0.00    +0.000 A 
ATOM      5  C   UNL     1       4.619   5.431  18.036  0.00  0.00    +0.000 A 
ATOM      6  C   UNL     1       3.880   4.266  18.257  0.00  0.00    +0.000 A 
ENDROOT
BRANCH   1   7
ATOM      7  C   UNL     1       1.645   3.095  18.465  0.00  0.00    +0.000 C 
ATOM      8  O   UNL     1       1.793   2.106  17.757  0.00  0.00    +0.000 OA
BRANCH   7   9
ATOM      9  O   UNL     1       0.751   3.247  19.485  0.00  0.00    +0.000 OA
BRANCH   9  11
ATOM     10  C   UNL     1       1.529   2.671  21.671  0.00  0.00    +0.000 C 
ATOM     11  C   UNL     1       1.308   3.581  20.722  0.00  0.00    +0.000 C 
ENDBRANCH   9  11
ENDBRANCH   7   9
ENDBRANCH   1   7
BRANCH   5  12
ATOM     12  O   UNL     1       5.980   5.497  17.919  0.00  0.00    +0.000 OA
BRANCH  12  13
ATOM     13  C   UNL     1       6.488   5.967  16.662  0.00  0.00    +0.000 C 
BRANCH  13  14
ATOM     14  C   UNL     1       7.274   4.839  15.980  0.00  0.00    +0.000 C 
BRANCH  14  15
ATOM     15  O   UNL     1       8.033   4.118  16.960  0.00  0.00    +0.000 OA
ATOM     16  H   UNL     1       7.731   4.442  17.830  0.00  0.00    +0.000 HD
ENDBRANCH  14  15
BRANCH  14  17
ATOM     17  C   UNL     1       6.346   3.861  15.238  0.00  0.00    +0.000 C 
BRANCH  17  18
ATOM     18  N   UNL     1       5.893   4.417  13.961  0.00  0.00    +0.000 NA
ATOM     19  H   UNL     1       6.378   5.297  13.784  0.00  0.00    +0.000 HD
BRANCH  18  20
ATOM     20  C   UNL     1       6.097   3.517  12.821  0.00  0.00    +0.000 C 
ATOM     21  C   UNL     1       4.834   3.334  11.977  0.00  0.00    +0.000 C 
ATOM     22  C   UNL     1       7.209   4.110  11.952  0.00  0.00    +0.000 C 
ENDBRANCH  18  20
ENDBRANCH  17  18
ENDBRANCH  14  17
ENDBRANCH  13  14
ENDBRANCH  12  13
ENDBRANCH   5  12
TORSDOF 10
ENDMDL
MODEL 7
REMARK VINA RESULT:      -6.1      1.883      3.400
REMARK  Name = 
REMARK  12 active torsions:
REMARK  status: ('A' for Active; 'I' for Inactive)
REMARK    1  A    between atoms: C_2  and  O_3
REMARK    2  A    between atoms: O_3  and  C_4
REMARK    3  A    between atoms: C_4  and  C_6
REMARK    4  A    between atoms: C_10  and  O_11
REMARK    5  A    between atoms: O_11  and  C_12
REMARK    6  A    between atoms: C_12  and  C_13
REMARK    7  A    between atoms: C_13  and  O_14
REMARK    8  A    between atoms: C_13  and  C_15
REMARK    9  A    between atoms: C_15  and  N_16
REMARK   10  A    between atoms: N_16  and  C_17
REMARK   11  A    between atoms: C_17  and  C_18
REMARK   12  A    between atoms: C_17  and  C_19
REMARK                            x       y       z     vdW  Elec       q    Type
REMARK                         _______ _______ _______ _____ _____    ______ ____
ROOT
ATOM      1  C   UNL     1       5.881   3.598  12.709  0.00  0.00    +0.000 A 
ATOM      2  C   UNL     1       6.974   4.324  12.211  0.00  0.00    +0.000 A 
ATOM      3  C   UNL     1       7.773   5.071  13.073  0.00  0.00    +0.000 A 
ATOM      4  C   UNL     1       7.491   5.088  14.438  0.00  0.00    +0.000 A 
ATOM      5  C   UNL     1       6.408   4.366  14.948  0.00  0.00    +0.000 A 
ATOM      6  C   UNL     1       5.594   3.635  14.079  0.00  0.00    +0.000 A 
ENDROOT
BRANCH   1   7
ATOM      7  C   UNL     1       5.089   2.781  11.750  0.00  0.00    +0.000 C 
ATOM      8  O   UNL     1       5.521   1.739  11.272  0.00  0.00    +0.000 OA
BRANCH   7   9
ATOM      9  O   UNL     1       3.867   3.344  11.517  0.00  0.00    +0.000 OA
BRANCH   9  11
ATOM     10  C   UNL     1       2.858   4.270   9.557  0.00  0.00    +0.000 C 
ATOM     11  C   UNL     1       3.402   3.239  10.204  0.00  0.00    +0.000 C 
ENDBRANCH   9  11
ENDBRANCH   7   9
ENDBRANCH   1   7
BRANCH   5  12
ATOM     12  O   UNL     1       6.260   4.431  16.306  0.00  0.00    +0.000 OA
BRANCH  12  13
ATOM     13  C   UNL     1       4.981   4.868  16.787  0.00  0.00    +0.000 C 
BRANCH  13  14
ATOM     14  C   UNL     1       4.520   3.938  17.916  0.00  0.00    +0.000 C 
BRANCH  14  15
ATOM     15  O   UNL     1       5.615   3.677  18.805  0.00  0.00    +0.000 OA
ATOM     16  H   UNL     1       5.279   3.047  19.471  0.00  0.00    +0.000 HD
ENDBRANCH  14  15
BRANCH  14  17
ATOM     17  C   UNL     1       3.350   4.540  18.715  0.00  0.00    +0.000 C 
BRANCH  17  18
ATOM     18  N   UNL     1       3.081   3.771  19.932  0.00  0.00    +0.000 NA
ATOM     19  H   UNL     1       3.413   4.295  20.743  0.00  0.00    +0.000 HD
BRANCH  18  20
ATOM     20  C   UNL     1       1.664   3.441  20.119  0.00  0.00    +0.000 C 
ATOM     21  C   UNL     1       1.106   2.570  18.991  0.00  0.00    +0.000 C 
ATOM     22  C   UNL     1       1.530   2.697  21.450  0.00  0.00    +0.000 C 
ENDBRANCH  18  20
ENDBRANCH  17  18
ENDBRANCH  14  17
ENDBRANCH  13  14
ENDBRANCH  12  13
ENDBRANCH   5  12
TORSDOF 10
ENDMDL
MODEL 8
REMARK VINA RESULT:      -6.1      2.662      3.950
REMARK  Name = 
REMARK  12 active torsions:
REMARK  status: ('A' for Active; 'I' for Inactive)
REMARK    1  A    between atoms: C_2  and  O_3
REMARK    2  A    between atoms: O_3  and  C_4
REMARK    3  A    between atoms: C_4  and  C_6
REMARK    4  A    between atoms: C_10  and  O_11
REMARK    5  A    between atoms: O_11  and  C_12
REMARK    6  A    between atoms: C_12  and  C_13
REMARK    7  A    between atoms: C_13  and  O_14
REMARK    8  A    between atoms: C_13  and  C_15
REMARK    9  A    between atoms: C_15  and  N_16
REMARK   10  A    between atoms: N_16  and  C_17
REMARK   11  A    between atoms: C_17  and  C_18
REMARK   12  A    between atoms: C_17  and  C_19
REMARK                            x       y       z     vdW  Elec       q    Type
REMARK                         _______ _______ _______ _____ _____    ______ ____
ROOT
ATOM      1  C   UNL     1       4.510   6.308  17.769  0.00  0.00    +0.000 A 
ATOM      2  C   UNL     1       3.777   7.431  17.357  0.00  0.00    +0.000 A 
ATOM      3  C   UNL     1       2.660   7.845  18.079  0.00  0.00    +0.000 A 
ATOM      4  C   UNL     1       2.276   7.144  19.222  0.00  0.00    +0.000 A 
ATOM      5  C   UNL     1       3.000   6.026  19.645  0.00  0.00    +0.000 A 
ATOM      6  C   UNL     1       4.107   5.600  18.907  0.00  0.00    +0.000 A 
ENDROOT
BRANCH   1   7
ATOM      7  C   UNL     1       5.720   5.938  16.986  0.00  0.00    +0.000 C 
ATOM      8  O   UNL     1       6.113   6.612  16.040  0.00  0.00    +0.000 OA
BRANCH   7   9
ATOM      9  O   UNL     1       6.295   4.802  17.477  0.00  0.00    +0.000 OA
BRANCH   9  11
ATOM     10  C   UNL     1       7.870   5.691  19.040  0.00  0.00    +0.000 C 
ATOM     11  C   UNL     1       7.595   4.953  17.964  0.00  0.00    +0.000 C 
ENDBRANCH   9  11
ENDBRANCH   7   9
ENDBRANCH   1   7
BRANCH   5  12
ATOM     12  O   UNL     1       2.548   5.450  20.801  0.00  0.00    +0.000 OA
BRANCH  12  13
ATOM     13  C   UNL     1       1.305   4.738  20.713  0.00  0.00    +0.000 C 
BRANCH  13  14
ATOM     14  C   UNL     1       1.589   3.232  20.647  0.00  0.00    +0.000 C 
BRANCH  14  15
ATOM     15  O   UNL     1       1.400   2.647  21.942  0.00  0.00    +0.000 OA
ATOM     16  H   UNL     1       2.181   2.900  22.471  0.00  0.00    +0.000 HD
ENDBRANCH  14  15
BRANCH  14  17
ATOM     17  C   UNL     1       0.679   2.519  19.631  0.00  0.00    +0.000 C 
BRANCH  17  18
ATOM     18  N   UNL     1       1.458   1.733  18.672  0.00  0.00    +0.000 NA
ATOM     19  H   UNL     1       0.931   1.642  17.802  0.00  0.00    +0.000 HD
BRANCH  18  20
ATOM     20  C   UNL     1       2.778   2.302  18.379  0.00  0.00    +0.000 C 
ATOM     21  C   UNL     1       3.874   1.239  18.284  0.00  0.00    +0.000 C 
ATOM     22  C   UNL     1       2.678   3.050  17.047  0.00  0.00    +0.000 C 
ENDBRANCH  18  20
ENDBRANCH  17  18
ENDBRANCH  14  17
ENDBRANCH  13  14
ENDBRANCH  12  13
ENDBRANCH   5  12
TORSDOF 10
ENDMDL
MODEL 9
REMARK VINA RESULT:      -6.1      2.574      4.467
REMARK  Name = 
REMARK  12 active torsions:
REMARK  status: ('A' for Active; 'I' for Inactive)
REMARK    1  A    between atoms: C_2  and  O_3
REMARK    2  A    between atoms: O_3  and  C_4
REMARK    3  A    between atoms: C_4  and  C_6
REMARK    4  A    between atoms: C_10  and  O_11
REMARK    5  A    between atoms: O_11  and  C_12
REMARK    6  A    between atoms: C_12  and  C_13
REMARK    7  A    between atoms: C_13  and  O_14
REMARK    8  A    between atoms: C_13  and  C_15
REMARK    9  A    between atoms: C_15  and  N_16
REMARK   10  A    between atoms: N_16  and  C_17
REMARK   11  A    between atoms: C_17  and  C_18
REMARK   12  A    between atoms: C_17  and  C_19
REMARK                            x       y       z     vdW  Elec       q    Type
REMARK                         _______ _______ _______ _____ _____    ______ ____
ROOT
ATOM      1  C   UNL     1       5.986   3.425  12.476  0.00  0.00    +0.000 A 
ATOM      2  C   UNL     1       7.017   4.197  11.920  0.00  0.00    +0.000 A 
ATOM      3  C   UNL     1       7.753   5.069  12.720  0.00  0.00    +0.000 A 
ATOM      4  C   UNL     1       7.468   5.166  14.081  0.00  0.00    +0.000 A 
ATOM      5  C   UNL     1       6.447   4.400  14.649  0.00  0.00    +0.000 A 
ATOM      6  C   UNL     1       5.696   3.542  13.841  0.00  0.00    +0.000 A 
ENDROOT
BRANCH   1   7
ATOM      7  C   UNL     1       5.264   2.478  11.585  0.00  0.00    +0.000 C 
ATOM      8  O   UNL     1       5.800   1.471  11.136  0.00  0.00    +0.000 OA
BRANCH   7   9
ATOM      9  O   UNL     1       3.977   2.882  11.377  0.00  0.00    +0.000 OA
BRANCH   9  11
ATOM     10  C   UNL     1       2.885   3.960   9.544  0.00  0.00    +0.000 C 
ATOM     11  C   UNL     1       3.823   3.951  10.491  0.00  0.00    +0.000 C 
ENDBRANCH   9  11
ENDBRANCH   7   9
ENDBRANCH   1   7
BRANCH   5  12
ATOM     12  O   UNL     1       6.292   4.554  15.999  0.00  0.00    +0.000 OA
BRANCH  12  13
ATOM     13  C   UNL     1       7.497   4.682  16.767  0.00  0.00    +0.000 C 
BRANCH  13  14
ATOM     14  C   UNL     1       7.329   5.814  17.788  0.00  0.00    +0.000 C 
BRANCH  14  15
ATOM     15  O   UNL     1       7.407   7.082  17.122  0.00  0.00    +0.000 OA
ATOM     16  H   UNL     1       8.036   6.962  16.385  0.00  0.00    +0.000 HD
ENDBRANCH  14  15
BRANCH  14  17
ATOM     17  C   UNL     1       5.988   5.717  18.537  0.00  0.00    +0.000 C 
BRANCH  17  18
ATOM     18  N   UNL     1       5.780   4.378  19.094  0.00  0.00    +0.000 NA
ATOM     19  H   UNL     1       6.261   4.308  19.992  0.00  0.00    +0.000 HD
BRANCH  18  20
ATOM     20  C   UNL     1       4.368   4.028  19.274  0.00  0.00    +0.000 C 
ATOM     21  C   UNL     1       3.553   4.174  17.987  0.00  0.00    +0.000 C 
ATOM     22  C   UNL     1       4.305   2.575  19.753  0.00  0.00    +0.000 C 
ENDBRANCH  18  20
ENDBRANCH  17  18
ENDBRANCH  14  17
ENDBRANCH  13  14
ENDBRANCH  12  13
ENDBRANCH   5  12
TORSDOF 10
ENDMDL
