MODEL 1
REMARK VINA RESULT:      -8.5      0.000      0.000
REMARK  Name = 
REMARK  7 active torsions:
REMARK  status: ('A' for Active; 'I' for Inactive)
REMARK    1  A    between atoms: C_1  and  C_2
REMARK    2  A    between atoms: C_3  and  C_4
REMARK    3  A    between atoms: C_4  and  O_5
REMARK    4  A    between atoms: C_7  and  C_8
REMARK    5  A    between atoms: C_11  and  S_12
REMARK    6  A    between atoms: S_12  and  C_13
REMARK    7  A    between atoms: N_18  and  C_19
REMARK                            x       y       z     vdW  Elec       q    Type
REMARK                         _______ _______ _______ _____ _____    ______ ____
ROOT
ATOM      1  C   UNL     1       4.967   3.142  17.058  0.00  0.00    +0.000 C 
ATOM      2  C   UNL     1       4.561   4.579  17.165  0.00  0.00    +0.000 A 
ATOM      3  C   UNL     1       5.016   5.622  16.372  0.00  0.00    +0.000 A 
ATOM      4  C   UNL     1       4.305   6.777  16.773  0.00  0.00    +0.000 A 
ATOM      5  C   UNL     1       3.427   6.451  17.799  0.00  0.00    +0.000 A 
ATOM      6  N   UNL     1       3.569   5.063  18.026  0.00  0.00    +0.000 N 
ENDROOT
BRANCH   6   7
ATOM      7  C   UNL     1       2.831   4.277  18.976  0.00  0.00    +0.000 A 
ATOM      8  C   UNL     1       1.474   3.985  18.760  0.00  0.00    +0.000 A 
ATOM      9  C   UNL     1       0.713   3.386  19.768  0.00  0.00    +0.000 A 
ATOM     10  C   UNL     1       1.320   3.022  20.962  0.00  0.00    +0.000 A 
ATOM     11  F   UNL     1       0.585   2.471  21.937  0.00  0.00    +0.000 F 
ATOM     12  C   UNL     1       2.676   3.241  21.167  0.00  0.00    +0.000 A 
ATOM     13  C   UNL     1       3.430   3.882  20.181  0.00  0.00    +0.000 A 
ENDBRANCH   6   7
BRANCH   5  14
ATOM     14  C   UNL     1       2.560   7.400  18.541  0.00  0.00    +0.000 A 
ATOM     15  C   UNL     1       2.292   7.200  19.906  0.00  0.00    +0.000 A 
ATOM     16  C   UNL     1       1.546   8.131  20.640  0.00  0.00    +0.000 A 
ATOM     17  C   UNL     1       1.090   9.293  20.014  0.00  0.00    +0.000 A 
ATOM     18  C   UNL     1       1.289   9.482  18.649  0.00  0.00    +0.000 A 
ATOM     19  C   UNL     1       1.981   8.515  17.915  0.00  0.00    +0.000 A 
BRANCH  17  20
ATOM     20  S   UNL     1       0.198  10.518  20.943  0.00  0.00    +0.000 S 
ATOM     21  C   UNL     1      -0.369   9.626  22.369  0.00  0.00    +0.000 C 
ATOM     22  O   UNL     1       1.154  11.513  21.391  0.00  0.00    +0.000 OA
ATOM     23  O   UNL     1      -0.960  10.900  20.158  0.00  0.00    +0.000 OA
ENDBRANCH  17  20
ENDBRANCH   5  14
BRANCH   3  24
ATOM     24  C   UNL     1       6.034   5.551  15.281  0.00  0.00    +0.000 C 
BRANCH  24  25
ATOM     25  O   UNL     1       7.323   5.947  15.736  0.00  0.00    +0.000 OA
ATOM     26  H   UNL     1       7.963   5.465  15.187  0.00  0.00    +0.000 HD
ENDBRANCH  24  25
ENDBRANCH   3  24
TORSDOF 5
ENDMDL
MODEL 2
REMARK VINA RESULT:      -8.3      0.479      1.056
REMARK  Name = 
REMARK  7 active torsions:
REMARK  status: ('A' for Active; 'I' for Inactive)
REMARK    1  A    between atoms: C_1  and  C_2
REMARK    2  A    between atoms: C_3  and  C_4
REMARK    3  A    between atoms: C_4  and  O_5
REMARK    4  A    between atoms: C_7  and  C_8
REMARK    5  A    between atoms: C_11  and  S_12
REMARK    6  A    between atoms: S_12  and  C_13
REMARK    7  A    between atoms: N_18  and  C_19
REMARK                            x       y       z     vdW  Elec       q    Type
REMARK                         _______ _______ _______ _____ _____    ______ ____
ROOT
ATOM      1  C   UNL     1       4.701   3.383  17.399  0.00  0.00    +0.000 C 
ATOM      2  C   UNL     1       4.323   4.832  17.406  0.00  0.00    +0.000 A 
ATOM      3  C   UNL     1       4.794   5.807  16.539  0.00  0.00    +0.000 A 
ATOM      4  C   UNL     1       4.108   7.000  16.859  0.00  0.00    +0.000 A 
ATOM      5  C   UNL     1       3.230   6.766  17.909  0.00  0.00    +0.000 A 
ATOM      6  N   UNL     1       3.346   5.396  18.234  0.00  0.00    +0.000 N 
ENDROOT
BRANCH   6   7
ATOM      7  C   UNL     1       2.597   4.694  19.240  0.00  0.00    +0.000 A 
ATOM      8  C   UNL     1       3.085   4.595  20.554  0.00  0.00    +0.000 A 
ATOM      9  C   UNL     1       2.454   3.758  21.479  0.00  0.00    +0.000 A 
ATOM     10  C   UNL     1       1.304   3.073  21.111  0.00  0.00    +0.000 A 
ATOM     11  F   UNL     1       0.714   2.251  21.989  0.00  0.00    +0.000 F 
ATOM     12  C   UNL     1       0.768   3.211  19.837  0.00  0.00    +0.000 A 
ATOM     13  C   UNL     1       1.422   4.010  18.895  0.00  0.00    +0.000 A 
ENDBRANCH   6   7
BRANCH   5  14
ATOM     14  C   UNL     1       2.385   7.782  18.586  0.00  0.00    +0.000 A 
ATOM     15  C   UNL     1       2.045   7.637  19.940  0.00  0.00    +0.000 A 
ATOM     16  C   UNL     1       1.321   8.628  20.615  0.00  0.00    +0.000 A 
ATOM     17  C   UNL     1       0.961   9.796  19.939  0.00  0.00    +0.000 A 
ATOM     18  C   UNL     1       1.232   9.934  18.580  0.00  0.00    +0.000 A 
ATOM     19  C   UNL     1       1.901   8.910  17.904  0.00  0.00    +0.000 A 
BRANCH  17  20
ATOM     20  S   UNL     1       0.099  11.094  20.793  0.00  0.00    +0.000 S 
ATOM     21  C   UNL     1      -0.499  10.298  22.263  0.00  0.00    +0.000 C 
ATOM     22  O   UNL     1       1.081  12.086  21.191  0.00  0.00    +0.000 OA
ATOM     23  O   UNL     1      -1.045  11.463  19.981  0.00  0.00    +0.000 OA
ENDBRANCH  17  20
ENDBRANCH   5  14
BRANCH   3  24
ATOM     24  C   UNL     1       5.805   5.637  15.452  0.00  0.00    +0.000 C 
BRANCH  24  25
ATOM     25  O   UNL     1       7.126   5.893  15.915  0.00  0.00    +0.000 OA
ATOM     26  H   UNL     1       7.706   5.286  15.427  0.00  0.00    +0.000 HD
ENDBRANCH  24  25
ENDBRANCH   3  24
TORSDOF 5
ENDMDL
MODEL 3
REMARK VINA RESULT:      -8.3      0.674      1.015
REMARK  Name = 
REMARK  7 active torsions:
REMARK  status: ('A' for Active; 'I' for Inactive)
REMARK    1  A    between atoms: C_1  and  C_2
REMARK    2  A    between atoms: C_3  and  C_4
REMARK    3  A    between atoms: C_4  and  O_5
REMARK    4  A    between atoms: C_7  and  C_8
REMARK    5  A    between atoms: C_11  and  S_12
REMARK    6  A    between atoms: S_12  and  C_13
REMARK    7  A    between atoms: N_18  and  C_19
REMARK                            x       y       z     vdW  Elec       q    Type
REMARK                         _______ _______ _______ _____ _____    ______ ____
ROOT
ATOM      1  C   UNL     1       4.970   3.211  16.968  0.00  0.00    +0.000 C 
ATOM      2  C   UNL     1       4.563   4.647  17.083  0.00  0.00    +0.000 A 
ATOM      3  C   UNL     1       5.006   5.692  16.286  0.00  0.00    +0.000 A 
ATOM      4  C   UNL     1       4.299   6.845  16.698  0.00  0.00    +0.000 A 
ATOM      5  C   UNL     1       3.436   6.516  17.736  0.00  0.00    +0.000 A 
ATOM      6  N   UNL     1       3.582   5.128  17.959  0.00  0.00    +0.000 N 
ENDROOT
BRANCH   6   7
ATOM      7  C   UNL     1       2.858   4.340  18.916  0.00  0.00    +0.000 A 
ATOM      8  C   UNL     1       1.511   4.007  18.696  0.00  0.00    +0.000 A 
ATOM      9  C   UNL     1       0.759   3.405  19.709  0.00  0.00    +0.000 A 
ATOM     10  C   UNL     1       1.366   3.079  20.914  0.00  0.00    +0.000 A 
ATOM     11  F   UNL     1       0.639   2.526  21.893  0.00  0.00    +0.000 F 
ATOM     12  C   UNL     1       2.714   3.338  21.125  0.00  0.00    +0.000 A 
ATOM     13  C   UNL     1       3.459   3.982  20.133  0.00  0.00    +0.000 A 
ENDBRANCH   6   7
BRANCH   5  14
ATOM     14  C   UNL     1       2.578   7.462  18.492  0.00  0.00    +0.000 A 
ATOM     15  C   UNL     1       2.337   7.265  19.861  0.00  0.00    +0.000 A 
ATOM     16  C   UNL     1       1.599   8.195  20.606  0.00  0.00    +0.000 A 
ATOM     17  C   UNL     1       1.126   9.352  19.986  0.00  0.00    +0.000 A 
ATOM     18  C   UNL     1       1.297   9.538  18.617  0.00  0.00    +0.000 A 
ATOM     19  C   UNL     1       1.981   8.572  17.873  0.00  0.00    +0.000 A 
BRANCH  17  20
ATOM     20  S   UNL     1       0.244  10.575  20.928  0.00  0.00    +0.000 S 
ATOM     21  C   UNL     1       1.089  12.087  20.538  0.00  0.00    +0.000 C 
ATOM     22  O   UNL     1      -1.099  10.663  20.387  0.00  0.00    +0.000 OA
ATOM     23  O   UNL     1       0.464  10.283  22.332  0.00  0.00    +0.000 OA
ENDBRANCH  17  20
ENDBRANCH   5  14
BRANCH   3  24
ATOM     24  C   UNL     1       6.009   5.624  15.182  0.00  0.00    +0.000 C 
BRANCH  24  25
ATOM     25  O   UNL     1       7.343   5.675  15.676  0.00  0.00    +0.000 OA
ATOM     26  H   UNL     1       7.676   6.563  15.465  0.00  0.00    +0.000 HD
ENDBRANCH  24  25
ENDBRANCH   3  24
TORSDOF 5
ENDMDL
MODEL 4
REMARK VINA RESULT:      -8.3      0.798      1.365
REMARK  Name = 
REMARK  7 active torsions:
REMARK  status: ('A' for Active; 'I' for Inactive)
REMARK    1  A    between atoms: C_1  and  C_2
REMARK    2  A    between atoms: C_3  and  C_4
REMARK    3  A    between atoms: C_4  and  O_5
REMARK    4  A    between atoms: C_7  and  C_8
REMARK    5  A    between atoms: C_11  and  S_12
REMARK    6  A    between atoms: S_12  and  C_13
REMARK    7  A    between atoms: N_18  and  C_19
REMARK                            x       y       z     vdW  Elec       q    Type
REMARK                         _______ _______ _______ _____ _____    ______ ____
ROOT
ATOM      1  C   UNL     1       4.963   3.049  16.882  0.00  0.00    +0.000 C 
ATOM      2  C   UNL     1       4.614   4.501  16.988  0.00  0.00    +0.000 A 
ATOM      3  C   UNL     1       5.095   5.521  16.181  0.00  0.00    +0.000 A 
ATOM      4  C   UNL     1       4.437   6.704  16.587  0.00  0.00    +0.000 A 
ATOM      5  C   UNL     1       3.565   6.418  17.631  0.00  0.00    +0.000 A 
ATOM      6  N   UNL     1       3.657   5.028  17.864  0.00  0.00    +0.000 N 
ENDROOT
BRANCH   6   7
ATOM      7  C   UNL     1       2.907   4.276  18.830  0.00  0.00    +0.000 A 
ATOM      8  C   UNL     1       1.550   3.983  18.611  0.00  0.00    +0.000 A 
ATOM      9  C   UNL     1       0.777   3.420  19.630  0.00  0.00    +0.000 A 
ATOM     10  C   UNL     1       1.371   3.091  20.841  0.00  0.00    +0.000 A 
ATOM     11  F   UNL     1       0.625   2.575  21.826  0.00  0.00    +0.000 F 
ATOM     12  C   UNL     1       2.726   3.310  21.053  0.00  0.00    +0.000 A 
ATOM     13  C   UNL     1       3.493   3.916  20.053  0.00  0.00    +0.000 A 
ENDBRANCH   6   7
BRANCH   5  14
ATOM     14  C   UNL     1       2.749   7.404  18.382  0.00  0.00    +0.000 A 
ATOM     15  C   UNL     1       2.250   8.550  17.742  0.00  0.00    +0.000 A 
ATOM     16  C   UNL     1       1.409   9.446  18.415  0.00  0.00    +0.000 A 
ATOM     17  C   UNL     1       1.031   9.177  19.732  0.00  0.00    +0.000 A 
ATOM     18  C   UNL     1       1.564   8.082  20.407  0.00  0.00    +0.000 A 
ATOM     19  C   UNL     1       2.451   7.230  19.743  0.00  0.00    +0.000 A 
BRANCH  17  20
ATOM     20  S   UNL     1      -0.087  10.266  20.581  0.00  0.00    +0.000 S 
ATOM     21  C   UNL     1       0.893  11.715  20.883  0.00  0.00    +0.000 C 
ATOM     22  O   UNL     1      -1.142  10.627  19.652  0.00  0.00    +0.000 OA
ATOM     23  O   UNL     1      -0.399   9.657  21.860  0.00  0.00    +0.000 OA
ENDBRANCH  17  20
ENDBRANCH   5  14
BRANCH   3  24
ATOM     24  C   UNL     1       6.090   5.405  15.073  0.00  0.00    +0.000 C 
BRANCH  24  25
ATOM     25  O   UNL     1       7.400   5.762  15.500  0.00  0.00    +0.000 OA
ATOM     26  H   UNL     1       7.405   6.730  15.578  0.00  0.00    +0.000 HD
ENDBRANCH  24  25
ENDBRANCH   3  24
TORSDOF 5
ENDMDL
MODEL 5
REMARK VINA RESULT:      -8.3      0.837      1.725
REMARK  Name = 
REMARK  7 active torsions:
REMARK  status: ('A' for Active; 'I' for Inactive)
REMARK    1  A    between atoms: C_1  and  C_2
REMARK    2  A    between atoms: C_3  and  C_4
REMARK    3  A    between atoms: C_4  and  O_5
REMARK    4  A    between atoms: C_7  and  C_8
REMARK    5  A    between atoms: C_11  and  S_12
REMARK    6  A    between atoms: S_12  and  C_13
REMARK    7  A    between atoms: N_18  and  C_19
REMARK                            x       y       z     vdW  Elec       q    Type
REMARK                         _______ _______ _______ _____ _____    ______ ____
ROOT
ATOM      1  C   UNL     1       4.706   3.299  17.358  0.00  0.00    +0.000 C 
ATOM      2  C   UNL     1       4.368   4.758  17.349  0.00  0.00    +0.000 A 
ATOM      3  C   UNL     1       4.869   5.711  16.474  0.00  0.00    +0.000 A 
ATOM      4  C   UNL     1       4.215   6.926  16.781  0.00  0.00    +0.000 A 
ATOM      5  C   UNL     1       3.327   6.726  17.830  0.00  0.00    +0.000 A 
ATOM      6  N   UNL     1       3.404   5.356  18.168  0.00  0.00    +0.000 N 
ENDROOT
BRANCH   6   7
ATOM      7  C   UNL     1       2.633   4.685  19.178  0.00  0.00    +0.000 A 
ATOM      8  C   UNL     1       3.099   4.612  20.501  0.00  0.00    +0.000 A 
ATOM      9  C   UNL     1       2.446   3.802  21.435  0.00  0.00    +0.000 A 
ATOM     10  C   UNL     1       1.294   3.120  21.065  0.00  0.00    +0.000 A 
ATOM     11  F   UNL     1       0.683   2.325  21.952  0.00  0.00    +0.000 F 
ATOM     12  C   UNL     1       0.779   3.235  19.780  0.00  0.00    +0.000 A 
ATOM     13  C   UNL     1       1.456   4.006  18.831  0.00  0.00    +0.000 A 
ENDBRANCH   6   7
BRANCH   5  14
ATOM     14  C   UNL     1       2.508   7.772  18.493  0.00  0.00    +0.000 A 
ATOM     15  C   UNL     1       2.079   8.900  17.776  0.00  0.00    +0.000 A 
ATOM     16  C   UNL     1       1.236   9.853  18.363  0.00  0.00    +0.000 A 
ATOM     17  C   UNL     1       0.788   9.661  19.671  0.00  0.00    +0.000 A 
ATOM     18  C   UNL     1       1.251   8.584  20.423  0.00  0.00    +0.000 A 
ATOM     19  C   UNL     1       2.141   7.674  19.845  0.00  0.00    +0.000 A 
BRANCH  17  20
ATOM     20  S   UNL     1      -0.333  10.823  20.413  0.00  0.00    +0.000 S 
ATOM     21  C   UNL     1       0.636  12.304  20.552  0.00  0.00    +0.000 C 
ATOM     22  O   UNL     1      -1.399  11.076  19.461  0.00  0.00    +0.000 OA
ATOM     23  O   UNL     1      -0.628  10.349  21.751  0.00  0.00    +0.000 OA
ENDBRANCH  17  20
ENDBRANCH   5  14
BRANCH   3  24
ATOM     24  C   UNL     1       5.878   5.503  15.393  0.00  0.00    +0.000 C 
BRANCH  24  25
ATOM     25  O   UNL     1       7.190   5.851  15.822  0.00  0.00    +0.000 OA
ATOM     26  H   UNL     1       7.405   6.691  15.383  0.00  0.00    +0.000 HD
ENDBRANCH  24  25
ENDBRANCH   3  24
TORSDOF 5
ENDMDL
MODEL 6
REMARK VINA RESULT:      -7.9      1.028      1.791
REMARK  Name = 
REMARK  7 active torsions:
REMARK  status: ('A' for Active; 'I' for Inactive)
REMARK    1  A    between atoms: C_1  and  C_2
REMARK    2  A    between atoms: C_3  and  C_4
REMARK    3  A    between atoms: C_4  and  O_5
REMARK    4  A    between atoms: C_7  and  C_8
REMARK    5  A    between atoms: C_11  and  S_12
REMARK    6  A    between atoms: S_12  and  C_13
REMARK    7  A    between atoms: N_18  and  C_19
REMARK                            x       y       z     vdW  Elec       q    Type
REMARK                         _______ _______ _______ _____ _____    ______ ____
ROOT
ATOM      1  C   UNL     1       4.646   3.038  17.503  0.00  0.00    +0.000 C 
ATOM      2  C   UNL     1       4.353   4.505  17.441  0.00  0.00    +0.000 A 
ATOM      3  C   UNL     1       4.878   5.409  16.530  0.00  0.00    +0.000 A 
ATOM      4  C   UNL     1       4.264   6.655  16.793  0.00  0.00    +0.000 A 
ATOM      5  C   UNL     1       3.375   6.521  17.853  0.00  0.00    +0.000 A 
ATOM      6  N   UNL     1       3.411   5.163  18.241  0.00  0.00    +0.000 N 
ENDROOT
BRANCH   6   7
ATOM      7  C   UNL     1       2.625   4.554  19.278  0.00  0.00    +0.000 A 
ATOM      8  C   UNL     1       3.111   4.482  20.594  0.00  0.00    +0.000 A 
ATOM      9  C   UNL     1       2.433   3.727  21.556  0.00  0.00    +0.000 A 
ATOM     10  C   UNL     1       1.241   3.099  21.220  0.00  0.00    +0.000 A 
ATOM     11  F   UNL     1       0.605   2.355  22.134  0.00  0.00    +0.000 F 
ATOM     12  C   UNL     1       0.709   3.216  19.942  0.00  0.00    +0.000 A 
ATOM     13  C   UNL     1       1.407   3.931  18.965  0.00  0.00    +0.000 A 
ENDBRANCH   6   7
BRANCH   5  14
ATOM     14  C   UNL     1       2.592   7.615  18.480  0.00  0.00    +0.000 A 
ATOM     15  C   UNL     1       2.231   8.749  17.734  0.00  0.00    +0.000 A 
ATOM     16  C   UNL     1       1.422   9.751  18.286  0.00  0.00    +0.000 A 
ATOM     17  C   UNL     1       0.937   9.603  19.587  0.00  0.00    +0.000 A 
ATOM     18  C   UNL     1       1.333   8.519  20.366  0.00  0.00    +0.000 A 
ATOM     19  C   UNL     1       2.191   7.559  19.824  0.00  0.00    +0.000 A 
BRANCH  17  20
ATOM     20  S   UNL     1      -0.145  10.829  20.283  0.00  0.00    +0.000 S 
ATOM     21  C   UNL     1      -1.454  10.953  19.090  0.00  0.00    +0.000 C 
ATOM     22  O   UNL     1      -0.704  10.280  21.504  0.00  0.00    +0.000 OA
ATOM     23  O   UNL     1       0.577  12.088  20.295  0.00  0.00    +0.000 OA
ENDBRANCH  17  20
ENDBRANCH   5  14
BRANCH   3  24
ATOM     24  C   UNL     1       5.876   5.131  15.453  0.00  0.00    +0.000 C 
BRANCH  24  25
ATOM     25  O   UNL     1       5.267   4.540  14.311  0.00  0.00    +0.000 OA
ATOM     26  H   UNL     1       5.465   3.590  14.360  0.00  0.00    +0.000 HD
ENDBRANCH  24  25
ENDBRANCH   3  24
TORSDOF 5
ENDMDL
MODEL 7
REMARK VINA RESULT:      -7.7      4.231      6.076
REMARK  Name = 
REMARK  7 active torsions:
REMARK  status: ('A' for Active; 'I' for Inactive)
REMARK    1  A    between atoms: C_1  and  C_2
REMARK    2  A    between atoms: C_3  and  C_4
REMARK    3  A    between atoms: C_4  and  O_5
REMARK    4  A    between atoms: C_7  and  C_8
REMARK    5  A    between atoms: C_11  and  S_12
REMARK    6  A    between atoms: S_12  and  C_13
REMARK    7  A    between atoms: N_18  and  C_19
REMARK                            x       y       z     vdW  Elec       q    Type
REMARK                         _______ _______ _______ _____ _____    ______ ____
ROOT
ATOM      1  C   UNL     1       8.172   5.525  13.859  0.00  0.00    +0.000 C 
ATOM      2  C   UNL     1       6.928   4.838  14.333  0.00  0.00    +0.000 A 
ATOM      3  C   UNL     1       6.178   3.914  13.620  0.00  0.00    +0.000 A 
ATOM      4  C   UNL     1       5.150   3.473  14.484  0.00  0.00    +0.000 A 
ATOM      5  C   UNL     1       5.263   4.117  15.710  0.00  0.00    +0.000 A 
ATOM      6  N   UNL     1       6.397   4.955  15.623  0.00  0.00    +0.000 N 
ENDROOT
BRANCH   6   7
ATOM      7  C   UNL     1       6.921   5.788  16.670  0.00  0.00    +0.000 A 
ATOM      8  C   UNL     1       6.969   7.183  16.516  0.00  0.00    +0.000 A 
ATOM      9  C   UNL     1       7.647   7.972  17.449  0.00  0.00    +0.000 A 
ATOM     10  C   UNL     1       8.221   7.377  18.565  0.00  0.00    +0.000 A 
ATOM     11  F   UNL     1       8.892   8.129  19.445  0.00  0.00    +0.000 F 
ATOM     12  C   UNL     1       8.125   6.006  18.769  0.00  0.00    +0.000 A 
ATOM     13  C   UNL     1       7.488   5.208  17.815  0.00  0.00    +0.000 A 
ENDBRANCH   6   7
BRANCH   5  14
ATOM     14  C   UNL     1       4.329   3.984  16.855  0.00  0.00    +0.000 A 
ATOM     15  C   UNL     1       3.568   5.084  17.285  0.00  0.00    +0.000 A 
ATOM     16  C   UNL     1       2.621   4.953  18.309  0.00  0.00    +0.000 A 
ATOM     17  C   UNL     1       2.404   3.702  18.888  0.00  0.00    +0.000 A 
ATOM     18  C   UNL     1       3.190   2.612  18.524  0.00  0.00    +0.000 A 
ATOM     19  C   UNL     1       4.175   2.770  17.544  0.00  0.00    +0.000 A 
BRANCH  17  20
ATOM     20  S   UNL     1       1.162   3.500  20.143  0.00  0.00    +0.000 S 
ATOM     21  C   UNL     1       2.019   2.646  21.443  0.00  0.00    +0.000 C 
ATOM     22  O   UNL     1       0.813   4.821  20.633  0.00  0.00    +0.000 OA
ATOM     23  O   UNL     1       0.147   2.611  19.610  0.00  0.00    +0.000 OA
ENDBRANCH  17  20
ENDBRANCH   5  14
BRANCH   3  24
ATOM     24  C   UNL     1       6.416   3.442  12.223  0.00  0.00    +0.000 C 
BRANCH  24  25
ATOM     25  O   UNL     1       5.912   2.127  12.017  0.00  0.00    +0.000 OA
ATOM     26  H   UNL     1       6.688   1.560  11.873  0.00  0.00    +0.000 HD
ENDBRANCH  24  25
ENDBRANCH   3  24
TORSDOF 5
ENDMDL
MODEL 8
REMARK VINA RESULT:      -7.7      3.080      4.717
REMARK  Name = 
REMARK  7 active torsions:
REMARK  status: ('A' for Active; 'I' for Inactive)
REMARK    1  A    between atoms: C_1  and  C_2
REMARK    2  A    between atoms: C_3  and  C_4
REMARK    3  A    between atoms: C_4  and  O_5
REMARK    4  A    between atoms: C_7  and  C_8
REMARK    5  A    between atoms: C_11  and  S_12
REMARK    6  A    between atoms: S_12  and  C_13
REMARK    7  A    between atoms: N_18  and  C_19
REMARK                            x       y       z     vdW  Elec       q    Type
REMARK                         _______ _______ _______ _____ _____    ______ ____
ROOT
ATOM      1  C   UNL     1       4.314   2.302  19.564  0.00  0.00    +0.000 C 
ATOM      2  C   UNL     1       3.375   3.413  19.922  0.00  0.00    +0.000 A 
ATOM      3  C   UNL     1       2.325   3.341  20.825  0.00  0.00    +0.000 A 
ATOM      4  C   UNL     1       1.771   4.638  20.907  0.00  0.00    +0.000 A 
ATOM      5  C   UNL     1       2.467   5.497  20.065  0.00  0.00    +0.000 A 
ATOM      6  N   UNL     1       3.493   4.731  19.467  0.00  0.00    +0.000 N 
ENDROOT
BRANCH   6   7
ATOM      7  C   UNL     1       4.487   5.212  18.548  0.00  0.00    +0.000 A 
ATOM      8  C   UNL     1       4.269   5.150  17.162  0.00  0.00    +0.000 A 
ATOM      9  C   UNL     1       5.307   5.440  16.271  0.00  0.00    +0.000 A 
ATOM     10  C   UNL     1       6.537   5.855  16.763  0.00  0.00    +0.000 A 
ATOM     11  F   UNL     1       7.539   6.109  15.910  0.00  0.00    +0.000 F 
ATOM     12  C   UNL     1       6.751   5.989  18.129  0.00  0.00    +0.000 A 
ATOM     13  C   UNL     1       5.731   5.654  19.024  0.00  0.00    +0.000 A 
ENDBRANCH   6   7
BRANCH   5  14
ATOM     14  C   UNL     1       2.144   6.923  19.810  0.00  0.00    +0.000 A 
ATOM     15  C   UNL     1       2.349   7.482  18.539  0.00  0.00    +0.000 A 
ATOM     16  C   UNL     1       1.971   8.803  18.260  0.00  0.00    +0.000 A 
ATOM     17  C   UNL     1       1.348   9.563  19.251  0.00  0.00    +0.000 A 
ATOM     18  C   UNL     1       1.193   9.052  20.536  0.00  0.00    +0.000 A 
ATOM     19  C   UNL     1       1.631   7.754  20.818  0.00  0.00    +0.000 A 
BRANCH  17  20
ATOM     20  S   UNL     1       0.802  11.217  18.898  0.00  0.00    +0.000 S 
ATOM     21  C   UNL     1       0.569  11.929  20.508  0.00  0.00    +0.000 C 
ATOM     22  O   UNL     1       1.899  11.916  18.256  0.00  0.00    +0.000 OA
ATOM     23  O   UNL     1      -0.495  11.118  18.256  0.00  0.00    +0.000 OA
ENDBRANCH  17  20
ENDBRANCH   5  14
BRANCH   3  24
ATOM     24  C   UNL     1       1.875   2.142  21.593  0.00  0.00    +0.000 C 
BRANCH  24  25
ATOM     25  O   UNL     1       0.842   2.465  22.518  0.00  0.00    +0.000 OA
ATOM     26  H   UNL     1       0.114   2.834  21.992  0.00  0.00    +0.000 HD
ENDBRANCH  24  25
ENDBRANCH   3  24
TORSDOF 5
ENDMDL
MODEL 9
REMARK VINA RESULT:      -7.6      3.104      4.765
REMARK  Name = 
REMARK  7 active torsions:
REMARK  status: ('A' for Active; 'I' for Inactive)
REMARK    1  A    between atoms: C_1  and  C_2
REMARK    2  A    between atoms: C_3  and  C_4
REMARK    3  A    between atoms: C_4  and  O_5
REMARK    4  A    between atoms: C_7  and  C_8
REMARK    5  A    between atoms: C_11  and  S_12
REMARK    6  A    between atoms: S_12  and  C_13
REMARK    7  A    between atoms: N_18  and  C_19
REMARK                            x       y       z     vdW  Elec       q    Type
REMARK                         _______ _______ _______ _____ _____    ______ ____
ROOT
ATOM      1  C   UNL     1       4.061   2.581  19.248  0.00  0.00    +0.000 C 
ATOM      2  C   UNL     1       3.119   3.689  19.608  0.00  0.00    +0.000 A 
ATOM      3  C   UNL     1       1.969   3.571  20.373  0.00  0.00    +0.000 A 
ATOM      4  C   UNL     1       1.446   4.876  20.523  0.00  0.00    +0.000 A 
ATOM      5  C   UNL     1       2.261   5.784  19.857  0.00  0.00    +0.000 A 
ATOM      6  N   UNL     1       3.328   5.039  19.305  0.00  0.00    +0.000 N 
ENDROOT
BRANCH   6   7
ATOM      7  C   UNL     1       4.436   5.567  18.559  0.00  0.00    +0.000 A 
ATOM      8  C   UNL     1       4.315   5.821  17.183  0.00  0.00    +0.000 A 
ATOM      9  C   UNL     1       5.442   6.153  16.425  0.00  0.00    +0.000 A 
ATOM     10  C   UNL     1       6.673   6.294  17.051  0.00  0.00    +0.000 A 
ATOM     11  F   UNL     1       7.757   6.587  16.322  0.00  0.00    +0.000 F 
ATOM     12  C   UNL     1       6.799   6.114  18.423  0.00  0.00    +0.000 A 
ATOM     13  C   UNL     1       5.685   5.736  19.177  0.00  0.00    +0.000 A 
ENDBRANCH   6   7
BRANCH   5  14
ATOM     14  C   UNL     1       2.011   7.240  19.713  0.00  0.00    +0.000 A 
ATOM     15  C   UNL     1       2.199   7.874  18.474  0.00  0.00    +0.000 A 
ATOM     16  C   UNL     1       1.887   9.229  18.301  0.00  0.00    +0.000 A 
ATOM     17  C   UNL     1       1.348   9.952  19.367  0.00  0.00    +0.000 A 
ATOM     18  C   UNL     1       1.213   9.361  20.620  0.00  0.00    +0.000 A 
ATOM     19  C   UNL     1       1.586   8.026  20.796  0.00  0.00    +0.000 A 
BRANCH  17  20
ATOM     20  S   UNL     1       0.884  11.654  19.150  0.00  0.00    +0.000 S 
ATOM     21  C   UNL     1       2.216  12.328  18.188  0.00  0.00    +0.000 C 
ATOM     22  O   UNL     1      -0.315  11.683  18.333  0.00  0.00    +0.000 OA
ATOM     23  O   UNL     1       0.909  12.280  20.458  0.00  0.00    +0.000 OA
ENDBRANCH  17  20
ENDBRANCH   5  14
BRANCH   3  24
ATOM     24  C   UNL     1       1.397   2.323  20.961  0.00  0.00    +0.000 C 
BRANCH  24  25
ATOM     25  O   UNL     1       1.509   2.307  22.379  0.00  0.00    +0.000 OA
ATOM     26  H   UNL     1       0.836   1.683  22.697  0.00  0.00    +0.000 HD
ENDBRANCH  24  25
ENDBRANCH   3  24
TORSDOF 5
ENDMDL
