MODEL 1
REMARK VINA RESULT:      -7.7      0.000      0.000
REMARK  Name = 
REMARK  4 active torsions:
REMARK  status: ('A' for Active; 'I' for Inactive)
REMARK    1  A    between atoms: C_1  and  C_2
REMARK    2  A    between atoms: C_2  and  C_3
REMARK    3  A    between atoms: C_3  and  C_4
REMARK    4  A    between atoms: C_7  and  C_8
REMARK                            x       y       z     vdW  Elec       q    Type
REMARK                         _______ _______ _______ _____ _____    ______ ____
ROOT
ATOM      1  C   UNL     1       3.839   5.173  18.232  0.00  0.00    +0.000 C 
ATOM      2  C   UNL     1       4.652   4.868  17.001  0.00  0.00    +0.000 A 
ATOM      3  N   UNL     1       4.329   4.893  15.675  0.00  0.00    +0.000 N 
ATOM      4  C   UNL     1       5.349   4.508  14.765  0.00  0.00    +0.000 A 
ATOM      5  C   UNL     1       5.073   4.177  13.441  0.00  0.00    +0.000 A 
ATOM      6  C   UNL     1       6.120   4.067  12.519  0.00  0.00    +0.000 A 
ATOM      7  C   UNL     1       7.432   4.370  12.898  0.00  0.00    +0.000 A 
ATOM      8  C   UNL     1       7.731   4.633  14.234  0.00  0.00    +0.000 A 
ATOM      9  C   UNL     1       6.698   4.606  15.168  0.00  0.00    +0.000 A 
ATOM     10  C   UNL     1       6.984   4.541  16.638  0.00  0.00    +0.000 A 
ATOM     11  O   UNL     1       8.114   4.641  17.096  0.00  0.00    +0.000 OA
ATOM     12  C   UNL     1       5.808   4.381  17.494  0.00  0.00    +0.000 A 
ATOM     13  C   UNL     1       5.626   3.815  18.895  0.00  0.00    +0.000 C 
ATOM     14  N   UNL     1       4.179   4.029  19.046  0.00  0.00    +0.000 N 
ATOM     15  C   UNL     1       3.206   3.406  19.738  0.00  0.00    +0.000 A 
ATOM     16  N   UNL     1       3.472   2.921  20.952  0.00  0.00    +0.000 NA
ATOM     17  C   UNL     1       2.407   2.653  21.738  0.00  0.00    +0.000 A 
ATOM     18  C   UNL     1       1.100   2.823  21.356  0.00  0.00    +0.000 A 
ATOM     19  C   UNL     1       0.918   3.232  20.068  0.00  0.00    +0.000 A 
ATOM     20  N   UNL     1       1.948   3.508  19.254  0.00  0.00    +0.000 NA
ATOM     21  H   UNL     1       3.396   4.544  15.465  0.00  0.00    +0.000 HD
ENDROOT
BRANCH   1  25
ATOM     22  C   UNL     1       1.903   8.512  18.674  0.00  0.00    +0.000 A 
ATOM     23  C   UNL     1       1.928   7.901  19.910  0.00  0.00    +0.000 A 
ATOM     24  C   UNL     1       2.415   6.574  19.830  0.00  0.00    +0.000 A 
ATOM     25  C   UNL     1       2.826   6.235  18.548  0.00  0.00    +0.000 A 
ATOM     26  S   UNL     1       2.383   7.437  17.424  0.00  0.00    +0.000 S 
BRANCH  22  27
ATOM     27  C   UNL     1       1.512   9.918  18.344  0.00  0.00    +0.000 C 
BRANCH  27  29
ATOM     28  C   UNL     1      -0.945  10.063  17.890  0.00  0.00    +0.000 C 
ATOM     29  C   UNL     1       0.147  10.308  18.920  0.00  0.00    +0.000 C 
ENDBRANCH  27  29
ENDBRANCH  22  27
ENDBRANCH   1  25
TORSDOF 3
ENDMDL
MODEL 2
REMARK VINA RESULT:      -7.6      8.835     12.666
REMARK  Name = 
REMARK  4 active torsions:
REMARK  status: ('A' for Active; 'I' for Inactive)
REMARK    1  A    between atoms: C_1  and  C_2
REMARK    2  A    between atoms: C_2  and  C_3
REMARK    3  A    between atoms: C_3  and  C_4
REMARK    4  A    between atoms: C_7  and  C_8
REMARK                            x       y       z     vdW  Elec       q    Type
REMARK                         _______ _______ _______ _____ _____    ______ ____
ROOT
ATOM      1  C   UNL     1      -2.139  12.548  20.951  0.00  0.00    +0.000 C 
ATOM      2  C   UNL     1      -3.444  12.890  21.620  0.00  0.00    +0.000 A 
ATOM      3  N   UNL     1      -4.627  13.348  21.116  0.00  0.00    +0.000 N 
ATOM      4  C   UNL     1      -5.662  13.602  22.055  0.00  0.00    +0.000 A 
ATOM      5  C   UNL     1      -6.782  14.364  21.732  0.00  0.00    +0.000 A 
ATOM      6  C   UNL     1      -7.892  14.365  22.585  0.00  0.00    +0.000 A 
ATOM      7  C   UNL     1      -7.917  13.541  23.716  0.00  0.00    +0.000 A 
ATOM      8  C   UNL     1      -6.777  12.830  24.087  0.00  0.00    +0.000 A 
ATOM      9  C   UNL     1      -5.631  12.943  23.302  0.00  0.00    +0.000 A 
ATOM     10  C   UNL     1      -4.295  12.493  23.810  0.00  0.00    +0.000 A 
ATOM     11  O   UNL     1      -4.159  11.891  24.867  0.00  0.00    +0.000 OA
ATOM     12  C   UNL     1      -3.162  12.796  22.935  0.00  0.00    +0.000 A 
ATOM     13  C   UNL     1      -1.675  12.974  23.204  0.00  0.00    +0.000 C 
ATOM     14  N   UNL     1      -1.220  13.231  21.830  0.00  0.00    +0.000 N 
ATOM     15  C   UNL     1      -0.198  13.928  21.295  0.00  0.00    +0.000 A 
ATOM     16  N   UNL     1       0.985  13.933  21.911  0.00  0.00    +0.000 NA
ATOM     17  C   UNL     1       2.047  14.315  21.168  0.00  0.00    +0.000 A 
ATOM     18  C   UNL     1       1.971  14.714  19.857  0.00  0.00    +0.000 A 
ATOM     19  C   UNL     1       0.712  14.769  19.336  0.00  0.00    +0.000 A 
ATOM     20  N   UNL     1      -0.369  14.399  20.039  0.00  0.00    +0.000 NA
ATOM     21  H   UNL     1      -4.526  14.037  20.373  0.00  0.00    +0.000 HD
ENDROOT
BRANCH   1  25
ATOM     22  C   UNL     1      -2.198  10.421  17.700  0.00  0.00    +0.000 A 
ATOM     23  C   UNL     1      -1.111   9.995  18.433  0.00  0.00    +0.000 A 
ATOM     24  C   UNL     1      -0.857  10.844  19.537  0.00  0.00    +0.000 A 
ATOM     25  C   UNL     1      -1.806  11.849  19.664  0.00  0.00    +0.000 A 
ATOM     26  S   UNL     1      -2.836  11.894  18.308  0.00  0.00    +0.000 S 
BRANCH  22  27
ATOM     27  C   UNL     1      -2.820   9.772  16.504  0.00  0.00    +0.000 C 
BRANCH  27  29
ATOM     28  C   UNL     1      -3.075   9.987  14.023  0.00  0.00    +0.000 C 
ATOM     29  C   UNL     1      -3.034  10.746  15.341  0.00  0.00    +0.000 C 
ENDBRANCH  27  29
ENDBRANCH  22  27
ENDBRANCH   1  25
TORSDOF 3
ENDMDL
MODEL 3
REMARK VINA RESULT:      -7.3      6.674     11.918
REMARK  Name = 
REMARK  4 active torsions:
REMARK  status: ('A' for Active; 'I' for Inactive)
REMARK    1  A    between atoms: C_1  and  C_2
REMARK    2  A    between atoms: C_2  and  C_3
REMARK    3  A    between atoms: C_3  and  C_4
REMARK    4  A    between atoms: C_7  and  C_8
REMARK                            x       y       z     vdW  Elec       q    Type
REMARK                         _______ _______ _______ _____ _____    ______ ____
ROOT
ATOM      1  C   UNL     1      -1.394  11.952  20.876  0.00  0.00    +0.000 C 
ATOM      2  C   UNL     1      -2.773  12.422  21.261  0.00  0.00    +0.000 A 
ATOM      3  N   UNL     1      -3.902  12.617  20.520  0.00  0.00    +0.000 N 
ATOM      4  C   UNL     1      -5.040  13.109  21.213  0.00  0.00    +0.000 A 
ATOM      5  C   UNL     1      -6.134  13.654  20.546  0.00  0.00    +0.000 A 
ATOM      6  C   UNL     1      -7.331  13.875  21.237  0.00  0.00    +0.000 A 
ATOM      7  C   UNL     1      -7.462  13.475  22.571  0.00  0.00    +0.000 A 
ATOM      8  C   UNL     1      -6.355  12.994  23.269  0.00  0.00    +0.000 A 
ATOM      9  C   UNL     1      -5.133  12.905  22.606  0.00  0.00    +0.000 A 
ATOM     10  C   UNL     1      -3.852  12.728  23.363  0.00  0.00    +0.000 A 
ATOM     11  O   UNL     1      -3.820  12.521  24.569  0.00  0.00    +0.000 OA
ATOM     12  C   UNL     1      -2.636  12.787  22.552  0.00  0.00    +0.000 A 
ATOM     13  C   UNL     1      -1.192  13.130  22.887  0.00  0.00    +0.000 C 
ATOM     14  N   UNL     1      -0.593  12.941  21.558  0.00  0.00    +0.000 N 
ATOM     15  C   UNL     1       0.466  13.477  20.921  0.00  0.00    +0.000 A 
ATOM     16  N   UNL     1       1.574  13.755  21.611  0.00  0.00    +0.000 NA
ATOM     17  C   UNL     1       2.702  13.929  20.889  0.00  0.00    +0.000 A 
ATOM     18  C   UNL     1       2.764  13.863  19.519  0.00  0.00    +0.000 A 
ATOM     19  C   UNL     1       1.569  13.668  18.891  0.00  0.00    +0.000 A 
ATOM     20  N   UNL     1       0.426  13.493  19.570  0.00  0.00    +0.000 NA
ATOM     21  H   UNL     1      -3.734  13.024  19.602  0.00  0.00    +0.000 HD
ENDROOT
BRANCH   1  25
ATOM     22  C   UNL     1       0.707   9.696  18.511  0.00  0.00    +0.000 A 
ATOM     23  C   UNL     1      -0.425  10.058  17.812  0.00  0.00    +0.000 A 
ATOM     24  C   UNL     1      -1.373  10.700  18.645  0.00  0.00    +0.000 A 
ATOM     25  C   UNL     1      -0.906  10.885  19.939  0.00  0.00    +0.000 A 
ATOM     26  S   UNL     1       0.564  10.058  20.184  0.00  0.00    +0.000 S 
BRANCH  22  27
ATOM     27  C   UNL     1       1.952   9.053  17.988  0.00  0.00    +0.000 C 
BRANCH  27  29
ATOM     28  C   UNL     1       3.160   6.863  17.880  0.00  0.00    +0.000 C 
ATOM     29  C   UNL     1       2.344   7.792  18.765  0.00  0.00    +0.000 C 
ENDBRANCH  27  29
ENDBRANCH  22  27
ENDBRANCH   1  25
TORSDOF 3
ENDMDL
MODEL 4
REMARK VINA RESULT:      -7.2      9.688     12.579
REMARK  Name = 
REMARK  4 active torsions:
REMARK  status: ('A' for Active; 'I' for Inactive)
REMARK    1  A    between atoms: C_1  and  C_2
REMARK    2  A    between atoms: C_2  and  C_3
REMARK    3  A    between atoms: C_3  and  C_4
REMARK    4  A    between atoms: C_7  and  C_8
REMARK                            x       y       z     vdW  Elec       q    Type
REMARK                         _______ _______ _______ _____ _____    ______ ____
ROOT
ATOM      1  C   UNL     1       8.990  13.087  22.257  0.00  0.00    +0.000 C 
ATOM      2  C   UNL     1       8.209  12.732  23.495  0.00  0.00    +0.000 A 
ATOM      3  N   UNL     1       7.329  11.721  23.752  0.00  0.00    +0.000 N 
ATOM      4  C   UNL     1       6.739  11.704  25.043  0.00  0.00    +0.000 A 
ATOM      5  C   UNL     1       5.607  10.946  25.329  0.00  0.00    +0.000 A 
ATOM      6  C   UNL     1       5.222  10.746  26.659  0.00  0.00    +0.000 A 
ATOM      7  C   UNL     1       6.013  11.230  27.707  0.00  0.00    +0.000 A 
ATOM      8  C   UNL     1       7.108  12.048  27.434  0.00  0.00    +0.000 A 
ATOM      9  C   UNL     1       7.403  12.352  26.107  0.00  0.00    +0.000 A 
ATOM     10  C   UNL     1       8.332  13.474  25.756  0.00  0.00    +0.000 A 
ATOM     11  O   UNL     1       8.975  14.087  26.598  0.00  0.00    +0.000 OA
ATOM     12  C   UNL     1       8.443  13.767  24.327  0.00  0.00    +0.000 A 
ATOM     13  C   UNL     1       8.838  15.023  23.563  0.00  0.00    +0.000 C 
ATOM     14  N   UNL     1       8.725  14.505  22.191  0.00  0.00    +0.000 N 
ATOM     15  C   UNL     1       8.440  15.064  20.999  0.00  0.00    +0.000 A 
ATOM     16  N   UNL     1       8.894  16.287  20.723  0.00  0.00    +0.000 NA
ATOM     17  C   UNL     1       8.909  16.642  19.420  0.00  0.00    +0.000 A 
ATOM     18  C   UNL     1       8.469  15.843  18.394  0.00  0.00    +0.000 A 
ATOM     19  C   UNL     1       7.935  14.647  18.775  0.00  0.00    +0.000 A 
ATOM     20  N   UNL     1       7.899  14.257  20.058  0.00  0.00    +0.000 NA
ATOM     21  H   UNL     1       6.703  11.506  22.978  0.00  0.00    +0.000 HD
ENDROOT
BRANCH   1  25
ATOM     22  C   UNL     1      10.797  11.755  19.086  0.00  0.00    +0.000 A 
ATOM     23  C   UNL     1       9.796  10.855  19.380  0.00  0.00    +0.000 A 
ATOM     24  C   UNL     1       9.208  11.116  20.641  0.00  0.00    +0.000 A 
ATOM     25  C   UNL     1       9.720  12.259  21.240  0.00  0.00    +0.000 A 
ATOM     26  S   UNL     1      11.071  12.847  20.383  0.00  0.00    +0.000 S 
BRANCH  22  27
ATOM     27  C   UNL     1      11.616  11.855  17.837  0.00  0.00    +0.000 C 
BRANCH  27  29
ATOM     28  C   UNL     1      11.827  14.235  17.093  0.00  0.00    +0.000 C 
ATOM     29  C   UNL     1      11.096  12.921  16.867  0.00  0.00    +0.000 C 
ENDBRANCH  27  29
ENDBRANCH  22  27
ENDBRANCH   1  25
TORSDOF 3
ENDMDL
MODEL 5
REMARK VINA RESULT:      -6.9      6.554     11.561
REMARK  Name = 
REMARK  4 active torsions:
REMARK  status: ('A' for Active; 'I' for Inactive)
REMARK    1  A    between atoms: C_1  and  C_2
REMARK    2  A    between atoms: C_2  and  C_3
REMARK    3  A    between atoms: C_3  and  C_4
REMARK    4  A    between atoms: C_7  and  C_8
REMARK                            x       y       z     vdW  Elec       q    Type
REMARK                         _______ _______ _______ _____ _____    ______ ____
ROOT
ATOM      1  C   UNL     1      -1.254  12.305  20.513  0.00  0.00    +0.000 C 
ATOM      2  C   UNL     1      -2.705  12.358  20.108  0.00  0.00    +0.000 A 
ATOM      3  N   UNL     1      -3.319  12.130  18.911  0.00  0.00    +0.000 N 
ATOM      4  C   UNL     1      -4.728  12.305  18.876  0.00  0.00    +0.000 A 
ATOM      5  C   UNL     1      -5.429  12.425  17.679  0.00  0.00    +0.000 A 
ATOM      6  C   UNL     1      -6.825  12.324  17.677  0.00  0.00    +0.000 A 
ATOM      7  C   UNL     1      -7.514  12.020  18.856  0.00  0.00    +0.000 A 
ATOM      8  C   UNL     1      -6.832  11.966  20.070  0.00  0.00    +0.000 A 
ATOM      9  C   UNL     1      -5.460  12.203  20.078  0.00  0.00    +0.000 A 
ATOM     10  C   UNL     1      -4.731  12.496  21.354  0.00  0.00    +0.000 A 
ATOM     11  O   UNL     1      -5.263  12.414  22.453  0.00  0.00    +0.000 OA
ATOM     12  C   UNL     1      -3.321  12.858  21.198  0.00  0.00    +0.000 A 
ATOM     13  C   UNL     1      -2.363  13.657  22.068  0.00  0.00    +0.000 C 
ATOM     14  N   UNL     1      -1.152  13.549  21.240  0.00  0.00    +0.000 N 
ATOM     15  C   UNL     1      -0.070  14.329  21.054  0.00  0.00    +0.000 A 
ATOM     16  N   UNL     1       0.445  14.994  22.090  0.00  0.00    +0.000 NA
ATOM     17  C   UNL     1       1.710  15.445  21.944  0.00  0.00    +0.000 A 
ATOM     18  C   UNL     1       2.464  15.284  20.809  0.00  0.00    +0.000 A 
ATOM     19  C   UNL     1       1.827  14.676  19.768  0.00  0.00    +0.000 A 
ATOM     20  N   UNL     1       0.571  14.215  19.869  0.00  0.00    +0.000 NA
ATOM     21  H   UNL     1      -2.810  12.489  18.105  0.00  0.00    +0.000 HD
ENDROOT
BRANCH   1  25
ATOM     22  C   UNL     1       1.019   9.577  18.937  0.00  0.00    +0.000 A 
ATOM     23  C   UNL     1       0.946   9.302  20.286  0.00  0.00    +0.000 A 
ATOM     24  C   UNL     1       0.325  10.354  21.003  0.00  0.00    +0.000 A 
ATOM     25  C   UNL     1      -0.134  11.366  20.171  0.00  0.00    +0.000 A 
ATOM     26  S   UNL     1       0.416  11.143  18.574  0.00  0.00    +0.000 S 
BRANCH  22  27
ATOM     27  C   UNL     1       1.547   8.705  17.842  0.00  0.00    +0.000 C 
BRANCH  27  29
ATOM     28  C   UNL     1       2.431   6.388  18.180  0.00  0.00    +0.000 C 
ATOM     29  C   UNL     1       2.757   7.871  18.276  0.00  0.00    +0.000 C 
ENDBRANCH  27  29
ENDBRANCH  22  27
ENDBRANCH   1  25
TORSDOF 3
ENDMDL
MODEL 6
REMARK VINA RESULT:      -6.9      6.685     11.699
REMARK  Name = 
REMARK  4 active torsions:
REMARK  status: ('A' for Active; 'I' for Inactive)
REMARK    1  A    between atoms: C_1  and  C_2
REMARK    2  A    between atoms: C_2  and  C_3
REMARK    3  A    between atoms: C_3  and  C_4
REMARK    4  A    between atoms: C_7  and  C_8
REMARK                            x       y       z     vdW  Elec       q    Type
REMARK                         _______ _______ _______ _____ _____    ______ ____
ROOT
ATOM      1  C   UNL     1      -0.634  12.391  21.246  0.00  0.00    +0.000 C 
ATOM      2  C   UNL     1      -2.127  12.576  21.157  0.00  0.00    +0.000 A 
ATOM      3  N   UNL     1      -2.996  12.430  20.115  0.00  0.00    +0.000 N 
ATOM      4  C   UNL     1      -4.360  12.723  20.379  0.00  0.00    +0.000 A 
ATOM      5  C   UNL     1      -5.283  12.932  19.358  0.00  0.00    +0.000 A 
ATOM      6  C   UNL     1      -6.651  12.949  19.650  0.00  0.00    +0.000 A 
ATOM      7  C   UNL     1      -7.103  12.675  20.945  0.00  0.00    +0.000 A 
ATOM      8  C   UNL     1      -6.189  12.534  21.988  0.00  0.00    +0.000 A 
ATOM      9  C   UNL     1      -4.829  12.654  21.708  0.00  0.00    +0.000 A 
ATOM     10  C   UNL     1      -3.826  12.852  22.804  0.00  0.00    +0.000 A 
ATOM     11  O   UNL     1      -4.122  12.788  23.989  0.00  0.00    +0.000 OA
ATOM     12  C   UNL     1      -2.455  13.098  22.356  0.00  0.00    +0.000 A 
ATOM     13  C   UNL     1      -1.270  13.792  23.009  0.00  0.00    +0.000 C 
ATOM     14  N   UNL     1      -0.273  13.603  21.944  0.00  0.00    +0.000 N 
ATOM     15  C   UNL     1       0.810  14.294  21.540  0.00  0.00    +0.000 A 
ATOM     16  N   UNL     1       1.587  14.887  22.448  0.00  0.00    +0.000 NA
ATOM     17  C   UNL     1       2.827  15.233  22.042  0.00  0.00    +0.000 A 
ATOM     18  C   UNL     1       3.310  15.038  20.772  0.00  0.00    +0.000 A 
ATOM     19  C   UNL     1       2.418  14.512  19.884  0.00  0.00    +0.000 A 
ATOM     20  N   UNL     1       1.176  14.156  20.246  0.00  0.00    +0.000 NA
ATOM     21  H   UNL     1      -2.638  12.765  19.222  0.00  0.00    +0.000 HD
ENDROOT
BRANCH   1  25
ATOM     22  C   UNL     1       1.057   9.613  19.122  0.00  0.00    +0.000 A 
ATOM     23  C   UNL     1       1.101   9.191  20.433  0.00  0.00    +0.000 A 
ATOM     24  C   UNL     1       0.712  10.218  21.328  0.00  0.00    +0.000 A 
ATOM     25  C   UNL     1       0.303  11.369  20.670  0.00  0.00    +0.000 A 
ATOM     26  S   UNL     1       0.634  11.272  19.001  0.00  0.00    +0.000 S 
BRANCH  22  27
ATOM     27  C   UNL     1       1.336   8.819  17.885  0.00  0.00    +0.000 C 
BRANCH  27  29
ATOM     28  C   UNL     1       2.557   6.651  18.162  0.00  0.00    +0.000 C 
ATOM     29  C   UNL     1       2.710   8.143  17.907  0.00  0.00    +0.000 C 
ENDBRANCH  27  29
ENDBRANCH  22  27
ENDBRANCH   1  25
TORSDOF 3
ENDMDL
MODEL 7
REMARK VINA RESULT:      -6.8      9.373     11.152
REMARK  Name = 
REMARK  4 active torsions:
REMARK  status: ('A' for Active; 'I' for Inactive)
REMARK    1  A    between atoms: C_1  and  C_2
REMARK    2  A    between atoms: C_2  and  C_3
REMARK    3  A    between atoms: C_3  and  C_4
REMARK    4  A    between atoms: C_7  and  C_8
REMARK                            x       y       z     vdW  Elec       q    Type
REMARK                         _______ _______ _______ _____ _____    ______ ____
ROOT
ATOM      1  C   UNL     1      -1.781  13.786  20.167  0.00  0.00    +0.000 C 
ATOM      2  C   UNL     1      -0.477  14.396  19.722  0.00  0.00    +0.000 A 
ATOM      3  N   UNL     1       0.710  13.830  19.359  0.00  0.00    +0.000 N 
ATOM      4  C   UNL     1       1.762  14.721  19.020  0.00  0.00    +0.000 A 
ATOM      5  C   UNL     1       3.090  14.307  18.952  0.00  0.00    +0.000 A 
ATOM      6  C   UNL     1       4.048  15.137  18.359  0.00  0.00    +0.000 A 
ATOM      7  C   UNL     1       3.668  16.343  17.760  0.00  0.00    +0.000 A 
ATOM      8  C   UNL     1       2.357  16.801  17.884  0.00  0.00    +0.000 A 
ATOM      9  C   UNL     1       1.441  16.028  18.594  0.00  0.00    +0.000 A 
ATOM     10  C   UNL     1       0.135  16.600  19.054  0.00  0.00    +0.000 A 
ATOM     11  O   UNL     1      -0.252  17.713  18.723  0.00  0.00    +0.000 OA
ATOM     12  C   UNL     1      -0.667  15.719  19.903  0.00  0.00    +0.000 A 
ATOM     13  C   UNL     1      -1.745  15.994  20.941  0.00  0.00    +0.000 C 
ATOM     14  N   UNL     1      -2.061  14.609  21.320  0.00  0.00    +0.000 N 
ATOM     15  C   UNL     1      -2.518  14.025  22.445  0.00  0.00    +0.000 A 
ATOM     16  N   UNL     1      -3.428  14.657  23.189  0.00  0.00    +0.000 NA
ATOM     17  C   UNL     1      -4.115  13.898  24.069  0.00  0.00    +0.000 A 
ATOM     18  C   UNL     1      -3.915  12.553  24.255  0.00  0.00    +0.000 A 
ATOM     19  C   UNL     1      -2.903  12.009  23.522  0.00  0.00    +0.000 A 
ATOM     20  N   UNL     1      -2.195  12.727  22.637  0.00  0.00    +0.000 NA
ATOM     21  H   UNL     1       0.978  13.025  19.922  0.00  0.00    +0.000 HD
ENDROOT
BRANCH   1  25
ATOM     22  C   UNL     1      -3.257  10.801  18.166  0.00  0.00    +0.000 A 
ATOM     23  C   UNL     1      -4.327  11.553  18.604  0.00  0.00    +0.000 A 
ATOM     24  C   UNL     1      -3.926  12.546  19.531  0.00  0.00    +0.000 A 
ATOM     25  C   UNL     1      -2.550  12.579  19.711  0.00  0.00    +0.000 A 
ATOM     26  S   UNL     1      -1.799  11.251  18.953  0.00  0.00    +0.000 S 
BRANCH  22  27
ATOM     27  C   UNL     1      -3.253   9.702  17.151  0.00  0.00    +0.000 C 
BRANCH  27  29
ATOM     28  C   UNL     1      -3.413  10.290  14.723  0.00  0.00    +0.000 C 
ATOM     29  C   UNL     1      -2.463  10.060  15.888  0.00  0.00    +0.000 C 
ENDBRANCH  27  29
ENDBRANCH  22  27
ENDBRANCH   1  25
TORSDOF 3
ENDMDL
MODEL 8
REMARK VINA RESULT:      -6.8      8.011     11.787
REMARK  Name = 
REMARK  4 active torsions:
REMARK  status: ('A' for Active; 'I' for Inactive)
REMARK    1  A    between atoms: C_1  and  C_2
REMARK    2  A    between atoms: C_2  and  C_3
REMARK    3  A    between atoms: C_3  and  C_4
REMARK    4  A    between atoms: C_7  and  C_8
REMARK                            x       y       z     vdW  Elec       q    Type
REMARK                         _______ _______ _______ _____ _____    ______ ____
ROOT
ATOM      1  C   UNL     1      -1.758  13.861  22.958  0.00  0.00    +0.000 C 
ATOM      2  C   UNL     1      -0.978  12.692  22.415  0.00  0.00    +0.000 A 
ATOM      3  N   UNL     1      -0.911  11.387  22.808  0.00  0.00    +0.000 N 
ATOM      4  C   UNL     1      -0.032  10.547  22.077  0.00  0.00    +0.000 A 
ATOM      5  C   UNL     1       0.377   9.306  22.559  0.00  0.00    +0.000 A 
ATOM      6  C   UNL     1       1.018   8.403  21.701  0.00  0.00    +0.000 A 
ATOM      7  C   UNL     1       1.175   8.705  20.344  0.00  0.00    +0.000 A 
ATOM      8  C   UNL     1       0.834   9.969  19.866  0.00  0.00    +0.000 A 
ATOM      9  C   UNL     1       0.322  10.908  20.759  0.00  0.00    +0.000 A 
ATOM     10  C   UNL     1       0.255  12.362  20.403  0.00  0.00    +0.000 A 
ATOM     11  O   UNL     1       0.516  12.780  19.283  0.00  0.00    +0.000 OA
ATOM     12  C   UNL     1      -0.178  13.249  21.483  0.00  0.00    +0.000 A 
ATOM     13  C   UNL     1       0.048  14.729  21.749  0.00  0.00    +0.000 C 
ATOM     14  N   UNL     1      -0.715  14.860  23.000  0.00  0.00    +0.000 N 
ATOM     15  C   UNL     1      -0.622  15.664  24.076  0.00  0.00    +0.000 A 
ATOM     16  N   UNL     1      -0.272  16.941  23.912  0.00  0.00    +0.000 NA
ATOM     17  C   UNL     1      -0.553  17.776  24.935  0.00  0.00    +0.000 A 
ATOM     18  C   UNL     1      -1.139  17.388  26.114  0.00  0.00    +0.000 A 
ATOM     19  C   UNL     1      -1.376  16.051  26.234  0.00  0.00    +0.000 A 
ATOM     20  N   UNL     1      -1.111  15.186  25.242  0.00  0.00    +0.000 NA
ATOM     21  H   UNL     1      -0.910  11.255  23.818  0.00  0.00    +0.000 HD
ENDROOT
BRANCH   1  25
ATOM     22  C   UNL     1      -5.513  13.375  23.824  0.00  0.00    +0.000 A 
ATOM     23  C   UNL     1      -5.392  14.635  23.278  0.00  0.00    +0.000 A 
ATOM     24  C   UNL     1      -4.036  15.012  23.124  0.00  0.00    +0.000 A 
ATOM     25  C   UNL     1      -3.159  13.998  23.481  0.00  0.00    +0.000 A 
ATOM     26  S   UNL     1      -3.984  12.707  24.227  0.00  0.00    +0.000 S 
BRANCH  22  27
ATOM     27  C   UNL     1      -6.764  12.598  24.091  0.00  0.00    +0.000 C 
BRANCH  27  29
ATOM     28  C   UNL     1      -7.478  12.000  21.768  0.00  0.00    +0.000 C 
ATOM     29  C   UNL     1      -7.833  12.800  23.012  0.00  0.00    +0.000 C 
ENDBRANCH  27  29
ENDBRANCH  22  27
ENDBRANCH   1  25
TORSDOF 3
ENDMDL
MODEL 9
REMARK VINA RESULT:      -6.7      6.521     10.903
REMARK  Name = 
REMARK  4 active torsions:
REMARK  status: ('A' for Active; 'I' for Inactive)
REMARK    1  A    between atoms: C_1  and  C_2
REMARK    2  A    between atoms: C_2  and  C_3
REMARK    3  A    between atoms: C_3  and  C_4
REMARK    4  A    between atoms: C_7  and  C_8
REMARK                            x       y       z     vdW  Elec       q    Type
REMARK                         _______ _______ _______ _____ _____    ______ ____
ROOT
ATOM      1  C   UNL     1      -0.580  11.828  20.821  0.00  0.00    +0.000 C 
ATOM      2  C   UNL     1      -1.924  11.935  20.147  0.00  0.00    +0.000 A 
ATOM      3  N   UNL     1      -2.368  11.486  18.937  0.00  0.00    +0.000 N 
ATOM      4  C   UNL     1      -3.710  11.796  18.598  0.00  0.00    +0.000 A 
ATOM      5  C   UNL     1      -4.186  11.692  17.293  0.00  0.00    +0.000 A 
ATOM      6  C   UNL     1      -5.564  11.744  17.049  0.00  0.00    +0.000 A 
ATOM      7  C   UNL     1      -6.470  11.816  18.113  0.00  0.00    +0.000 A 
ATOM      8  C   UNL     1      -6.005  11.992  19.415  0.00  0.00    +0.000 A 
ATOM      9  C   UNL     1      -4.631  12.074  19.631  0.00  0.00    +0.000 A 
ATOM     10  C   UNL     1      -4.078  12.594  20.923  0.00  0.00    +0.000 A 
ATOM     11  O   UNL     1      -4.784  12.843  21.891  0.00  0.00    +0.000 OA
ATOM     12  C   UNL     1      -2.624  12.752  20.960  0.00  0.00    +0.000 A 
ATOM     13  C   UNL     1      -1.707  13.634  21.794  0.00  0.00    +0.000 C 
ATOM     14  N   UNL     1      -0.410  13.194  21.257  0.00  0.00    +0.000 N 
ATOM     15  C   UNL     1       0.792  13.784  21.110  0.00  0.00    +0.000 A 
ATOM     16  N   UNL     1       1.230  14.625  22.049  0.00  0.00    +0.000 NA
ATOM     17  C   UNL     1       2.555  14.887  22.049  0.00  0.00    +0.000 A 
ATOM     18  C   UNL     1       3.447  14.370  21.143  0.00  0.00    +0.000 A 
ATOM     19  C   UNL     1       2.900  13.596  20.163  0.00  0.00    +0.000 A 
ATOM     20  N   UNL     1       1.589  13.312  20.125  0.00  0.00    +0.000 NA
ATOM     21  H   UNL     1      -1.689  11.577  18.183  0.00  0.00    +0.000 HD
ENDROOT
BRANCH   1  25
ATOM     22  C   UNL     1       1.403   8.507  20.465  0.00  0.00    +0.000 A 
ATOM     23  C   UNL     1       1.226   8.720  21.815  0.00  0.00    +0.000 A 
ATOM     24  C   UNL     1       0.708  10.011  22.079  0.00  0.00    +0.000 A 
ATOM     25  C   UNL     1       0.426  10.719  20.918  0.00  0.00    +0.000 A 
ATOM     26  S   UNL     1       1.025   9.907  19.545  0.00  0.00    +0.000 S 
BRANCH  22  27
ATOM     27  C   UNL     1       1.871   7.263  19.778  0.00  0.00    +0.000 C 
BRANCH  27  29
ATOM     28  C   UNL     1       1.552   4.784  19.924  0.00  0.00    +0.000 C 
ATOM     29  C   UNL     1       1.897   6.044  20.705  0.00  0.00    +0.000 C 
ENDBRANCH  27  29
ENDBRANCH  22  27
ENDBRANCH   1  25
TORSDOF 3
ENDMDL
