MODEL 1
REMARK VINA RESULT:      -8.5      0.000      0.000
REMARK  Name = 
REMARK  2 active torsions:
REMARK  status: ('A' for Active; 'I' for Inactive)
REMARK    1  A    between atoms: C_5  and  C_6
REMARK    2  A    between atoms: C_7  and  C_8
REMARK                            x       y       z     vdW  Elec       q    Type
REMARK                         _______ _______ _______ _____ _____    ______ ____
ROOT
ATOM      1  C   UNL     1       3.311   3.878  18.646  0.00  0.00    +0.000 A 
ATOM      2  N   UNL     1       3.242   2.894  19.634  0.00  0.00    +0.000 N 
ATOM      3  C   UNL     1       2.626   3.103  20.855  0.00  0.00    +0.000 A 
ATOM      4  C   UNL     1       2.088   4.290  21.203  0.00  0.00    +0.000 A 
ATOM      5  C   UNL     1       2.202   5.352  20.220  0.00  0.00    +0.000 A 
ATOM      6  C   UNL     1       1.786   6.618  20.266  0.00  0.00    +0.000 A 
ATOM      7  C   UNL     1       1.104   7.455  21.200  0.00  0.00    +0.000 A 
ATOM      8  C   UNL     1       0.866   8.733  20.860  0.00  0.00    +0.000 A 
ATOM      9  C   UNL     1       1.294   9.272  19.578  0.00  0.00    +0.000 A 
ATOM     10  C   UNL     1       1.923   8.538  18.645  0.00  0.00    +0.000 A 
ATOM     11  C   UNL     1       2.203   7.115  18.933  0.00  0.00    +0.000 A 
ATOM     12  N   UNL     1       2.778   6.254  18.147  0.00  0.00    +0.000 NA
ATOM     13  C   UNL     1       2.820   5.110  18.911  0.00  0.00    +0.000 A 
ATOM     14  H   UNL     1       3.613   1.978  19.409  0.00  0.00    +0.000 HD
ENDROOT
BRANCH   1  16
ATOM     15  C   UNL     1       4.932   3.927  16.711  0.00  0.00    +0.000 C 
ATOM     16  C   UNL     1       3.817   3.525  17.339  0.00  0.00    +0.000 C 
BRANCH  15  21
ATOM     17 CL   UNL     1       8.583   8.296  18.575  0.00  0.00    +0.000 Cl
ATOM     18  C   UNL     1       7.593   7.015  17.993  0.00  0.00    +0.000 A 
ATOM     19  C   UNL     1       6.630   7.270  17.021  0.00  0.00    +0.000 A 
ATOM     20  C   UNL     1       5.801   6.235  16.576  0.00  0.00    +0.000 A 
ATOM     21  C   UNL     1       5.930   4.936  17.095  0.00  0.00    +0.000 A 
ATOM     22  C   UNL     1       6.908   4.699  18.069  0.00  0.00    +0.000 A 
ATOM     23  C   UNL     1       7.740   5.732  18.513  0.00  0.00    +0.000 A 
ENDBRANCH  15  21
ENDBRANCH   1  16
TORSDOF 2
ENDMDL
MODEL 2
REMARK VINA RESULT:      -8.0      2.819      4.664
REMARK  Name = 
REMARK  2 active torsions:
REMARK  status: ('A' for Active; 'I' for Inactive)
REMARK    1  A    between atoms: C_5  and  C_6
REMARK    2  A    between atoms: C_7  and  C_8
REMARK                            x       y       z     vdW  Elec       q    Type
REMARK                         _______ _______ _______ _____ _____    ______ ____
ROOT
ATOM      1  C   UNL     1       5.124   6.267  17.824  0.00  0.00    +0.000 A 
ATOM      2  N   UNL     1       4.475   7.391  17.307  0.00  0.00    +0.000 N 
ATOM      3  C   UNL     1       3.163   7.704  17.616  0.00  0.00    +0.000 A 
ATOM      4  C   UNL     1       2.396   6.922  18.403  0.00  0.00    +0.000 A 
ATOM      5  C   UNL     1       3.024   5.712  18.903  0.00  0.00    +0.000 A 
ATOM      6  C   UNL     1       2.538   4.747  19.683  0.00  0.00    +0.000 A 
ATOM      7  C   UNL     1       1.300   4.461  20.333  0.00  0.00    +0.000 A 
ATOM      8  C   UNL     1       1.202   3.333  21.057  0.00  0.00    +0.000 A 
ATOM      9  C   UNL     1       2.318   2.407  21.179  0.00  0.00    +0.000 A 
ATOM     10  C   UNL     1       3.517   2.622  20.610  0.00  0.00    +0.000 A 
ATOM     11  C   UNL     1       3.714   3.853  19.815  0.00  0.00    +0.000 A 
ATOM     12  N   UNL     1       4.802   4.234  19.216  0.00  0.00    +0.000 NA
ATOM     13  C   UNL     1       4.429   5.409  18.604  0.00  0.00    +0.000 A 
ATOM     14  H   UNL     1       5.019   8.020  16.729  0.00  0.00    +0.000 HD
ENDROOT
BRANCH   1  16
ATOM     15  C   UNL     1       7.186   5.625  16.518  0.00  0.00    +0.000 C 
ATOM     16  C   UNL     1       6.541   6.108  17.590  0.00  0.00    +0.000 C 
BRANCH  15  21
ATOM     17 CL   UNL     1       5.489   2.708  11.567  0.00  0.00    +0.000 Cl
ATOM     18  C   UNL     1       5.921   3.599  12.974  0.00  0.00    +0.000 A 
ATOM     19  C   UNL     1       7.037   4.430  12.952  0.00  0.00    +0.000 A 
ATOM     20  C   UNL     1       7.407   5.125  14.108  0.00  0.00    +0.000 A 
ATOM     21  C   UNL     1       6.663   5.000  15.293  0.00  0.00    +0.000 A 
ATOM     22  C   UNL     1       5.541   4.162  15.293  0.00  0.00    +0.000 A 
ATOM     23  C   UNL     1       5.167   3.469  14.137  0.00  0.00    +0.000 A 
ENDBRANCH  15  21
ENDBRANCH   1  16
TORSDOF 2
ENDMDL
MODEL 3
REMARK VINA RESULT:      -8.0      2.728      4.619
REMARK  Name = 
REMARK  2 active torsions:
REMARK  status: ('A' for Active; 'I' for Inactive)
REMARK    1  A    between atoms: C_5  and  C_6
REMARK    2  A    between atoms: C_7  and  C_8
REMARK                            x       y       z     vdW  Elec       q    Type
REMARK                         _______ _______ _______ _____ _____    ______ ____
ROOT
ATOM      1  C   UNL     1       5.248   6.104  17.974  0.00  0.00    +0.000 A 
ATOM      2  N   UNL     1       4.670   7.233  17.391  0.00  0.00    +0.000 N 
ATOM      3  C   UNL     1       3.346   7.582  17.592  0.00  0.00    +0.000 A 
ATOM      4  C   UNL     1       2.502   6.833  18.329  0.00  0.00    +0.000 A 
ATOM      5  C   UNL     1       3.059   5.618  18.896  0.00  0.00    +0.000 A 
ATOM      6  C   UNL     1       2.490   4.678  19.651  0.00  0.00    +0.000 A 
ATOM      7  C   UNL     1       1.199   4.432  20.207  0.00  0.00    +0.000 A 
ATOM      8  C   UNL     1       1.017   3.320  20.938  0.00  0.00    +0.000 A 
ATOM      9  C   UNL     1       2.097   2.370  21.161  0.00  0.00    +0.000 A 
ATOM     10  C   UNL     1       3.341   2.547  20.684  0.00  0.00    +0.000 A 
ATOM     11  C   UNL     1       3.629   3.759  19.888  0.00  0.00    +0.000 A 
ATOM     12  N   UNL     1       4.769   4.103  19.369  0.00  0.00    +0.000 NA
ATOM     13  C   UNL     1       4.475   5.276  18.711  0.00  0.00    +0.000 A 
ATOM     14  H   UNL     1       5.272   7.839  16.847  0.00  0.00    +0.000 HD
ENDROOT
BRANCH   1  16
ATOM     15  C   UNL     1       7.390   5.396  16.839  0.00  0.00    +0.000 C 
ATOM     16  C   UNL     1       6.675   5.907  17.853  0.00  0.00    +0.000 C 
BRANCH  15  21
ATOM     17 CL   UNL     1       5.126   3.180  11.754  0.00  0.00    +0.000 Cl
ATOM     18  C   UNL     1       5.833   3.762  13.210  0.00  0.00    +0.000 A 
ATOM     19  C   UNL     1       5.281   3.409  14.438  0.00  0.00    +0.000 A 
ATOM     20  C   UNL     1       5.835   3.914  15.619  0.00  0.00    +0.000 A 
ATOM     21  C   UNL     1       6.948   4.770  15.584  0.00  0.00    +0.000 A 
ATOM     22  C   UNL     1       7.491   5.110  14.338  0.00  0.00    +0.000 A 
ATOM     23  C   UNL     1       6.941   4.603  13.156  0.00  0.00    +0.000 A 
ENDBRANCH  15  21
ENDBRANCH   1  16
TORSDOF 2
ENDMDL
MODEL 4
REMARK VINA RESULT:      -7.9      2.624      6.230
REMARK  Name = 
REMARK  2 active torsions:
REMARK  status: ('A' for Active; 'I' for Inactive)
REMARK    1  A    between atoms: C_5  and  C_6
REMARK    2  A    between atoms: C_7  and  C_8
REMARK                            x       y       z     vdW  Elec       q    Type
REMARK                         _______ _______ _______ _____ _____    ______ ____
ROOT
ATOM      1  C   UNL     1       5.418   4.407  18.659  0.00  0.00    +0.000 A 
ATOM      2  N   UNL     1       6.275   5.148  19.474  0.00  0.00    +0.000 N 
ATOM      3  C   UNL     1       7.331   5.888  18.971  0.00  0.00    +0.000 A 
ATOM      4  C   UNL     1       7.640   5.911  17.659  0.00  0.00    +0.000 A 
ATOM      5  C   UNL     1       6.805   5.099  16.794  0.00  0.00    +0.000 A 
ATOM      6  C   UNL     1       6.858   4.907  15.476  0.00  0.00    +0.000 A 
ATOM      7  C   UNL     1       7.672   5.354  14.392  0.00  0.00    +0.000 A 
ATOM      8  C   UNL     1       7.394   4.909  13.155  0.00  0.00    +0.000 A 
ATOM      9  C   UNL     1       6.299   3.983  12.907  0.00  0.00    +0.000 A 
ATOM     10  C   UNL     1       5.481   3.536  13.876  0.00  0.00    +0.000 A 
ATOM     11  C   UNL     1       5.706   3.997  15.263  0.00  0.00    +0.000 A 
ATOM     12  N   UNL     1       5.009   3.689  16.315  0.00  0.00    +0.000 NA
ATOM     13  C   UNL     1       5.662   4.349  17.330  0.00  0.00    +0.000 A 
ATOM     14  H   UNL     1       6.068   5.178  20.466  0.00  0.00    +0.000 HD
ENDROOT
BRANCH   1  16
ATOM     15  C   UNL     1       3.023   4.324  19.452  0.00  0.00    +0.000 C 
ATOM     16  C   UNL     1       4.242   3.804  19.244  0.00  0.00    +0.000 C 
BRANCH  15  21
ATOM     17 CL   UNL     1       1.460  10.089  18.983  0.00  0.00    +0.000 Cl
ATOM     18  C   UNL     1       1.840   8.414  19.084  0.00  0.00    +0.000 A 
ATOM     19  C   UNL     1       1.687   7.740  20.292  0.00  0.00    +0.000 A 
ATOM     20  C   UNL     1       2.032   6.388  20.381  0.00  0.00    +0.000 A 
ATOM     21  C   UNL     1       2.528   5.696  19.263  0.00  0.00    +0.000 A 
ATOM     22  C   UNL     1       2.670   6.391  18.056  0.00  0.00    +0.000 A 
ATOM     23  C   UNL     1       2.323   7.743  17.964  0.00  0.00    +0.000 A 
ENDBRANCH  15  21
ENDBRANCH   1  16
TORSDOF 2
ENDMDL
MODEL 5
REMARK VINA RESULT:      -7.8      0.425      1.108
REMARK  Name = 
REMARK  2 active torsions:
REMARK  status: ('A' for Active; 'I' for Inactive)
REMARK    1  A    between atoms: C_5  and  C_6
REMARK    2  A    between atoms: C_7  and  C_8
REMARK                            x       y       z     vdW  Elec       q    Type
REMARK                         _______ _______ _______ _____ _____    ______ ____
ROOT
ATOM      1  C   UNL     1       3.620   3.804  18.846  0.00  0.00    +0.000 A 
ATOM      2  N   UNL     1       3.482   2.768  19.772  0.00  0.00    +0.000 N 
ATOM      3  C   UNL     1       2.723   2.891  20.923  0.00  0.00    +0.000 A 
ATOM      4  C   UNL     1       2.098   4.037  21.261  0.00  0.00    +0.000 A 
ATOM      5  C   UNL     1       2.277   5.152  20.349  0.00  0.00    +0.000 A 
ATOM      6  C   UNL     1       1.804   6.397  20.406  0.00  0.00    +0.000 A 
ATOM      7  C   UNL     1       0.986   7.159  21.293  0.00  0.00    +0.000 A 
ATOM      8  C   UNL     1       0.732   8.443  20.988  0.00  0.00    +0.000 A 
ATOM      9  C   UNL     1       1.279   9.064  19.792  0.00  0.00    +0.000 A 
ATOM     10  C   UNL     1       2.042   8.402  18.904  0.00  0.00    +0.000 A 
ATOM     11  C   UNL     1       2.348   6.978  19.155  0.00  0.00    +0.000 A 
ATOM     12  N   UNL     1       3.045   6.181  18.401  0.00  0.00    +0.000 NA
ATOM     13  C   UNL     1       3.049   5.001  19.110  0.00  0.00    +0.000 A 
ATOM     14  H   UNL     1       3.915   1.880  19.549  0.00  0.00    +0.000 HD
ENDROOT
BRANCH   1  16
ATOM     15  C   UNL     1       5.347   4.141  17.036  0.00  0.00    +0.000 C 
ATOM     16  C   UNL     1       4.286   3.538  17.592  0.00  0.00    +0.000 C 
BRANCH  15  21
ATOM     17 CL   UNL     1       8.869   8.742  18.561  0.00  0.00    +0.000 Cl
ATOM     18  C   UNL     1       7.798   7.455  18.162  0.00  0.00    +0.000 A 
ATOM     19  C   UNL     1       7.864   6.256  18.867  0.00  0.00    +0.000 A 
ATOM     20  C   UNL     1       7.018   5.199  18.517  0.00  0.00    +0.000 A 
ATOM     21  C   UNL     1       6.097   5.332  17.464  0.00  0.00    +0.000 A 
ATOM     22  C   UNL     1       6.045   6.547  16.770  0.00  0.00    +0.000 A 
ATOM     23  C   UNL     1       6.887   7.607  17.122  0.00  0.00    +0.000 A 
ENDBRANCH  15  21
ENDBRANCH   1  16
TORSDOF 2
ENDMDL
MODEL 6
REMARK VINA RESULT:      -7.8      2.680      6.251
REMARK  Name = 
REMARK  2 active torsions:
REMARK  status: ('A' for Active; 'I' for Inactive)
REMARK    1  A    between atoms: C_5  and  C_6
REMARK    2  A    between atoms: C_7  and  C_8
REMARK                            x       y       z     vdW  Elec       q    Type
REMARK                         _______ _______ _______ _____ _____    ______ ____
ROOT
ATOM      1  C   UNL     1       5.168   4.374  18.474  0.00  0.00    +0.000 A 
ATOM      2  N   UNL     1       6.023   5.009  19.377  0.00  0.00    +0.000 N 
ATOM      3  C   UNL     1       7.171   5.670  18.979  0.00  0.00    +0.000 A 
ATOM      4  C   UNL     1       7.576   5.712  17.694  0.00  0.00    +0.000 A 
ATOM      5  C   UNL     1       6.740   5.006  16.740  0.00  0.00    +0.000 A 
ATOM      6  C   UNL     1       6.873   4.857  15.422  0.00  0.00    +0.000 A 
ATOM      7  C   UNL     1       7.799   5.269  14.417  0.00  0.00    +0.000 A 
ATOM      8  C   UNL     1       7.575   4.893  13.146  0.00  0.00    +0.000 A 
ATOM      9  C   UNL     1       6.426   4.076  12.785  0.00  0.00    +0.000 A 
ATOM     10  C   UNL     1       5.505   3.668  13.675  0.00  0.00    +0.000 A 
ATOM     11  C   UNL     1       5.667   4.060  15.092  0.00  0.00    +0.000 A 
ATOM     12  N   UNL     1       4.871   3.778  16.079  0.00  0.00    +0.000 NA
ATOM     13  C   UNL     1       5.502   4.342  17.164  0.00  0.00    +0.000 A 
ATOM     14  H   UNL     1       5.747   5.022  20.352  0.00  0.00    +0.000 HD
ENDROOT
BRANCH   1  16
ATOM     15  C   UNL     1       2.769   4.504  19.252  0.00  0.00    +0.000 C 
ATOM     16  C   UNL     1       3.905   3.857  18.950  0.00  0.00    +0.000 C 
BRANCH  15  21
ATOM     17 CL   UNL     1       1.115  10.263  19.186  0.00  0.00    +0.000 Cl
ATOM     18  C   UNL     1       1.659   8.631  19.237  0.00  0.00    +0.000 A 
ATOM     19  C   UNL     1       2.133   8.023  18.078  0.00  0.00    +0.000 A 
ATOM     20  C   UNL     1       2.540   6.685  18.113  0.00  0.00    +0.000 A 
ATOM     21  C   UNL     1       2.481   5.946  19.306  0.00  0.00    +0.000 A 
ATOM     22  C   UNL     1       2.005   6.578  20.462  0.00  0.00    +0.000 A 
ATOM     23  C   UNL     1       1.601   7.916  20.430  0.00  0.00    +0.000 A 
ENDBRANCH  15  21
ENDBRANCH   1  16
TORSDOF 2
ENDMDL
MODEL 7
REMARK VINA RESULT:      -7.6      2.153      4.010
REMARK  Name = 
REMARK  2 active torsions:
REMARK  status: ('A' for Active; 'I' for Inactive)
REMARK    1  A    between atoms: C_5  and  C_6
REMARK    2  A    between atoms: C_7  and  C_8
REMARK                            x       y       z     vdW  Elec       q    Type
REMARK                         _______ _______ _______ _____ _____    ______ ____
ROOT
ATOM      1  C   UNL     1       2.309   7.129  19.490  0.00  0.00    +0.000 A 
ATOM      2  N   UNL     1       2.602   7.471  18.168  0.00  0.00    +0.000 N 
ATOM      3  C   UNL     1       2.247   8.689  17.615  0.00  0.00    +0.000 A 
ATOM      4  C   UNL     1       1.550   9.620  18.298  0.00  0.00    +0.000 A 
ATOM      5  C   UNL     1       1.176   9.266  19.655  0.00  0.00    +0.000 A 
ATOM      6  C   UNL     1       0.490   9.954  20.568  0.00  0.00    +0.000 A 
ATOM      7  C   UNL     1      -0.143  11.231  20.648  0.00  0.00    +0.000 A 
ATOM      8  C   UNL     1      -0.763  11.568  21.792  0.00  0.00    +0.000 A 
ATOM      9  C   UNL     1      -0.807  10.663  22.930  0.00  0.00    +0.000 A 
ATOM     10  C   UNL     1      -0.218   9.455  22.931  0.00  0.00    +0.000 A 
ATOM     11  C   UNL     1       0.505   9.018  21.717  0.00  0.00    +0.000 A 
ATOM     12  N   UNL     1       1.148   7.901  21.547  0.00  0.00    +0.000 NA
ATOM     13  C   UNL     1       1.591   7.989  20.247  0.00  0.00    +0.000 A 
ATOM     14  H   UNL     1       3.145   6.811  17.623  0.00  0.00    +0.000 HD
ENDROOT
BRANCH   1  16
ATOM     15  C   UNL     1       3.825   5.111  19.554  0.00  0.00    +0.000 C 
ATOM     16  C   UNL     1       2.864   5.912  20.037  0.00  0.00    +0.000 C 
BRANCH  15  21
ATOM     17 CL   UNL     1       7.119   4.928  14.551  0.00  0.00    +0.000 Cl
ATOM     18  C   UNL     1       6.126   5.034  15.953  0.00  0.00    +0.000 A 
ATOM     19  C   UNL     1       6.544   5.793  17.042  0.00  0.00    +0.000 A 
ATOM     20  C   UNL     1       5.753   5.848  18.194  0.00  0.00    +0.000 A 
ATOM     21  C   UNL     1       4.536   5.148  18.267  0.00  0.00    +0.000 A 
ATOM     22  C   UNL     1       4.132   4.393  17.158  0.00  0.00    +0.000 A 
ATOM     23  C   UNL     1       4.920   4.341  16.004  0.00  0.00    +0.000 A 
ENDBRANCH  15  21
ENDBRANCH   1  16
TORSDOF 2
ENDMDL
MODEL 8
REMARK VINA RESULT:      -7.4      2.948      6.491
REMARK  Name = 
REMARK  2 active torsions:
REMARK  status: ('A' for Active; 'I' for Inactive)
REMARK    1  A    between atoms: C_5  and  C_6
REMARK    2  A    between atoms: C_7  and  C_8
REMARK                            x       y       z     vdW  Elec       q    Type
REMARK                         _______ _______ _______ _____ _____    ______ ____
ROOT
ATOM      1  C   UNL     1       5.106   3.732  17.505  0.00  0.00    +0.000 A 
ATOM      2  N   UNL     1       5.846   4.270  18.560  0.00  0.00    +0.000 N 
ATOM      3  C   UNL     1       6.985   5.031  18.362  0.00  0.00    +0.000 A 
ATOM      4  C   UNL     1       7.493   5.271  17.137  0.00  0.00    +0.000 A 
ATOM      5  C   UNL     1       6.781   4.670  16.024  0.00  0.00    +0.000 A 
ATOM      6  C   UNL     1       7.031   4.714  14.715  0.00  0.00    +0.000 A 
ATOM      7  C   UNL     1       8.014   5.303  13.864  0.00  0.00    +0.000 A 
ATOM      8  C   UNL     1       7.918   5.100  12.539  0.00  0.00    +0.000 A 
ATOM      9  C   UNL     1       6.852   4.292  11.967  0.00  0.00    +0.000 A 
ATOM     10  C   UNL     1       5.883   3.724  12.706  0.00  0.00    +0.000 A 
ATOM     11  C   UNL     1       5.904   3.919  14.172  0.00  0.00    +0.000 A 
ATOM     12  N   UNL     1       5.045   3.466  15.035  0.00  0.00    +0.000 NA
ATOM     13  C   UNL     1       5.550   3.899  16.239  0.00  0.00    +0.000 A 
ATOM     14  H   UNL     1       5.489   4.135  19.499  0.00  0.00    +0.000 HD
ENDROOT
BRANCH   1  16
ATOM     15  C   UNL     1       2.736   3.602  18.364  0.00  0.00    +0.000 C 
ATOM     16  C   UNL     1       3.839   3.099  17.790  0.00  0.00    +0.000 C 
BRANCH  15  21
ATOM     17 CL   UNL     1       1.315   8.984  20.581  0.00  0.00    +0.000 Cl
ATOM     18  C   UNL     1       1.790   7.441  19.985  0.00  0.00    +0.000 A 
ATOM     19  C   UNL     1       2.310   7.326  18.699  0.00  0.00    +0.000 A 
ATOM     20  C   UNL     1       2.661   6.066  18.203  0.00  0.00    +0.000 A 
ATOM     21  C   UNL     1       2.501   4.913  18.989  0.00  0.00    +0.000 A 
ATOM     22  C   UNL     1       1.981   5.051  20.282  0.00  0.00    +0.000 A 
ATOM     23  C   UNL     1       1.632   6.311  20.781  0.00  0.00    +0.000 A 
ENDBRANCH  15  21
ENDBRANCH   1  16
TORSDOF 2
ENDMDL
MODEL 9
REMARK VINA RESULT:      -7.3      1.984      3.782
REMARK  Name = 
REMARK  2 active torsions:
REMARK  status: ('A' for Active; 'I' for Inactive)
REMARK    1  A    between atoms: C_5  and  C_6
REMARK    2  A    between atoms: C_7  and  C_8
REMARK                            x       y       z     vdW  Elec       q    Type
REMARK                         _______ _______ _______ _____ _____    ______ ____
ROOT
ATOM      1  C   UNL     1       2.319   6.713  19.539  0.00  0.00    +0.000 A 
ATOM      2  N   UNL     1       2.723   6.973  18.228  0.00  0.00    +0.000 N 
ATOM      3  C   UNL     1       2.539   8.203  17.620  0.00  0.00    +0.000 A 
ATOM      4  C   UNL     1       1.912   9.228  18.232  0.00  0.00    +0.000 A 
ATOM      5  C   UNL     1       1.423   8.966  19.573  0.00  0.00    +0.000 A 
ATOM      6  C   UNL     1       0.768   9.758  20.422  0.00  0.00    +0.000 A 
ATOM      7  C   UNL     1       0.278  11.098  20.427  0.00  0.00    +0.000 A 
ATOM      8  C   UNL     1      -0.364  11.542  21.520  0.00  0.00    +0.000 A 
ATOM      9  C   UNL     1      -0.574  10.688  22.680  0.00  0.00    +0.000 A 
ATOM     10  C   UNL     1      -0.125   9.424  22.752  0.00  0.00    +0.000 A 
ATOM     11  C   UNL     1       0.613   8.867  21.598  0.00  0.00    +0.000 A 
ATOM     12  N   UNL     1       1.135   7.681  21.499  0.00  0.00    +0.000 NA
ATOM     13  C   UNL     1       1.659   7.673  20.227  0.00  0.00    +0.000 A 
ATOM     14  H   UNL     1       3.219   6.239  17.737  0.00  0.00    +0.000 HD
ENDROOT
BRANCH   1  16
ATOM     15  C   UNL     1       3.681   4.607  19.826  0.00  0.00    +0.000 C 
ATOM     16  C   UNL     1       2.702   5.463  20.155  0.00  0.00    +0.000 C 
BRANCH  15  21
ATOM     17 CL   UNL     1       7.057   4.977  14.890  0.00  0.00    +0.000 Cl
ATOM     18  C   UNL     1       6.134   4.812  16.333  0.00  0.00    +0.000 A 
ATOM     19  C   UNL     1       4.917   4.137  16.303  0.00  0.00    +0.000 A 
ATOM     20  C   UNL     1       4.151   4.037  17.468  0.00  0.00    +0.000 A 
ATOM     21  C   UNL     1       4.596   4.604  18.674  0.00  0.00    +0.000 A 
ATOM     22  C   UNL     1       5.825   5.275  18.684  0.00  0.00    +0.000 A 
ATOM     23  C   UNL     1       6.595   5.374  17.520  0.00  0.00    +0.000 A 
ENDBRANCH  15  21
ENDBRANCH   1  16
TORSDOF 2
ENDMDL
