MODEL 1
REMARK VINA RESULT:      -7.9      0.000      0.000
REMARK  Name = 
REMARK  7 active torsions:
REMARK  status: ('A' for Active; 'I' for Inactive)
REMARK    1  A    between atoms: C_2  and  C_3
REMARK    2  A    between atoms: C_3  and  O_4
REMARK    3  A    between atoms: O_4  and  C_5
REMARK    4  A    between atoms: C_8  and  C_9
REMARK    5  A    between atoms: C_20  and  O_21
REMARK    6  A    between atoms: O_21  and  C_22
REMARK    7  A    between atoms: C_22  and  C_23
REMARK                            x       y       z     vdW  Elec       q    Type
REMARK                         _______ _______ _______ _____ _____    ______ ____
ROOT
ATOM      1  C   UNL     1       2.600   7.239  18.970  0.00  0.00    +0.000 C 
ENDROOT
BRANCH   1   3
ATOM      2  O   UNL     1       1.650   6.405  21.011  0.00  0.00    +0.000 OA
ATOM      3  C   UNL     1       1.826   7.382  20.276  0.00  0.00    +0.000 C 
ATOM      4  N   UNL     1       1.341   8.632  20.601  0.00  0.00    +0.000 N 
ATOM      5  C   UNL     1       0.746   8.912  21.889  0.00  0.00    +0.000 C 
ATOM      6  C   UNL     1      -0.400   9.837  21.549  0.00  0.00    +0.000 C 
ATOM      7  C   UNL     1       0.139  10.685  20.389  0.00  0.00    +0.000 C 
ATOM      8  C   UNL     1       1.129   9.741  19.679  0.00  0.00    +0.000 C 
BRANCH   7   9
ATOM      9  O   UNL     1      -0.891  11.082  19.482  0.00  0.00    +0.000 OA
BRANCH   9  10
ATOM     10  C   UNL     1      -0.834  10.413  18.224  0.00  0.00    +0.000 C 
BRANCH  10  11
ATOM     11  C   UNL     1      -2.100  10.689  17.477  0.00  0.00    +0.000 C 
ATOM     12  C   UNL     1      -2.493   9.808  16.317  0.00  0.00    +0.000 C 
ATOM     13  C   UNL     1      -3.287   9.769  17.592  0.00  0.00    +0.000 C 
ENDBRANCH  10  11
ENDBRANCH   9  10
ENDBRANCH   7   9
ENDBRANCH   1   3
BRANCH   1  14
ATOM     14  O   UNL     1       3.431   6.094  19.120  0.00  0.00    +0.000 OA
BRANCH  14  15
ATOM     15  C   UNL     1       4.021   5.610  17.993  0.00  0.00    +0.000 A 
ATOM     16  C   UNL     1       4.489   6.593  17.127  0.00  0.00    +0.000 A 
ATOM     17  C   UNL     1       5.133   6.242  15.941  0.00  0.00    +0.000 A 
ATOM     18  C   UNL     1       5.366   4.898  15.597  0.00  0.00    +0.000 A 
ATOM     19  C   UNL     1       4.906   3.922  16.501  0.00  0.00    +0.000 A 
ATOM     20  C   UNL     1       4.233   4.272  17.685  0.00  0.00    +0.000 A 
BRANCH  18  21
ATOM     21  C   UNL     1       6.050   4.556  14.328  0.00  0.00    +0.000 A 
ATOM     22  C   UNL     1       7.246   5.199  13.953  0.00  0.00    +0.000 A 
ATOM     23  C   UNL     1       7.852   4.966  12.715  0.00  0.00    +0.000 A 
ATOM     24  C   UNL     1       7.288   4.057  11.829  0.00  0.00    +0.000 A 
ATOM     25  C   UNL     1       6.130   3.373  12.187  0.00  0.00    +0.000 A 
ATOM     26  C   UNL     1       5.517   3.622  13.422  0.00  0.00    +0.000 A 
ENDBRANCH  18  21
ENDBRANCH  14  15
ENDBRANCH   1  14
TORSDOF 7
ENDMDL
MODEL 2
REMARK VINA RESULT:      -7.6      2.413      9.689
REMARK  Name = 
REMARK  7 active torsions:
REMARK  status: ('A' for Active; 'I' for Inactive)
REMARK    1  A    between atoms: C_2  and  C_3
REMARK    2  A    between atoms: C_3  and  O_4
REMARK    3  A    between atoms: O_4  and  C_5
REMARK    4  A    between atoms: C_8  and  C_9
REMARK    5  A    between atoms: C_20  and  O_21
REMARK    6  A    between atoms: O_21  and  C_22
REMARK    7  A    between atoms: C_22  and  C_23
REMARK                            x       y       z     vdW  Elec       q    Type
REMARK                         _______ _______ _______ _____ _____    ______ ____
ROOT
ATOM      1  C   UNL     1       2.885   5.889  18.204  0.00  0.00    +0.000 C 
ENDROOT
BRANCH   1   3
ATOM      2  O   UNL     1       4.685   5.653  19.775  0.00  0.00    +0.000 OA
ATOM      3  C   UNL     1       4.285   5.454  18.623  0.00  0.00    +0.000 C 
ATOM      4  N   UNL     1       5.075   4.835  17.676  0.00  0.00    +0.000 N 
ATOM      5  C   UNL     1       6.346   4.234  18.013  0.00  0.00    +0.000 C 
ATOM      6  C   UNL     1       7.217   4.574  16.825  0.00  0.00    +0.000 C 
ATOM      7  C   UNL     1       6.259   4.500  15.629  0.00  0.00    +0.000 C 
ATOM      8  C   UNL     1       4.896   4.897  16.231  0.00  0.00    +0.000 C 
BRANCH   7   9
ATOM      9  O   UNL     1       6.616   5.413  14.589  0.00  0.00    +0.000 OA
BRANCH   9  10
ATOM     10  C   UNL     1       6.990   4.772  13.371  0.00  0.00    +0.000 C 
BRANCH  10  11
ATOM     11  C   UNL     1       6.113   3.576  13.171  0.00  0.00    +0.000 C 
ATOM     12  C   UNL     1       4.981   3.637  12.176  0.00  0.00    +0.000 C 
ATOM     13  C   UNL     1       6.177   2.771  11.900  0.00  0.00    +0.000 C 
ENDBRANCH  10  11
ENDBRANCH   9  10
ENDBRANCH   7   9
ENDBRANCH   1   3
BRANCH   1  14
ATOM     14  O   UNL     1       2.978   7.268  17.868  0.00  0.00    +0.000 OA
BRANCH  14  15
ATOM     15  C   UNL     1       2.138   8.118  18.520  0.00  0.00    +0.000 A 
ATOM     16  C   UNL     1       1.995   7.849  19.877  0.00  0.00    +0.000 A 
ATOM     17  C   UNL     1       1.179   8.651  20.674  0.00  0.00    +0.000 A 
ATOM     18  C   UNL     1       0.509   9.772  20.152  0.00  0.00    +0.000 A 
ATOM     19  C   UNL     1       0.690  10.040  18.782  0.00  0.00    +0.000 A 
ATOM     20  C   UNL     1       1.490   9.218  17.970  0.00  0.00    +0.000 A 
BRANCH  18  21
ATOM     21  C   UNL     1      -0.354  10.604  21.025  0.00  0.00    +0.000 A 
ATOM     22  C   UNL     1      -0.515  10.298  22.390  0.00  0.00    +0.000 A 
ATOM     23  C   UNL     1      -1.402  11.007  23.205  0.00  0.00    +0.000 A 
ATOM     24  C   UNL     1      -2.132  12.064  22.677  0.00  0.00    +0.000 A 
ATOM     25  C   UNL     1      -1.963  12.420  21.343  0.00  0.00    +0.000 A 
ATOM     26  C   UNL     1      -1.085  11.696  20.525  0.00  0.00    +0.000 A 
ENDBRANCH  18  21
ENDBRANCH  14  15
ENDBRANCH   1  14
TORSDOF 7
ENDMDL
MODEL 3
REMARK VINA RESULT:      -7.5      3.737      9.031
REMARK  Name = 
REMARK  7 active torsions:
REMARK  status: ('A' for Active; 'I' for Inactive)
REMARK    1  A    between atoms: C_2  and  C_3
REMARK    2  A    between atoms: C_3  and  O_4
REMARK    3  A    between atoms: O_4  and  C_5
REMARK    4  A    between atoms: C_8  and  C_9
REMARK    5  A    between atoms: C_20  and  O_21
REMARK    6  A    between atoms: O_21  and  C_22
REMARK    7  A    between atoms: C_22  and  C_23
REMARK                            x       y       z     vdW  Elec       q    Type
REMARK                         _______ _______ _______ _____ _____    ______ ____
ROOT
ATOM      1  C   UNL     1       4.110   4.826  17.548  0.00  0.00    +0.000 C 
ENDROOT
BRANCH   1   3
ATOM      2  O   UNL     1       5.544   3.778  19.164  0.00  0.00    +0.000 OA
ATOM      3  C   UNL     1       5.424   4.656  18.302  0.00  0.00    +0.000 C 
ATOM      4  N   UNL     1       6.461   5.509  17.985  0.00  0.00    +0.000 N 
ATOM      5  C   UNL     1       7.794   5.325  18.514  0.00  0.00    +0.000 C 
ATOM      6  C   UNL     1       8.259   6.738  18.784  0.00  0.00    +0.000 C 
ATOM      7  C   UNL     1       7.643   7.555  17.641  0.00  0.00    +0.000 C 
ATOM      8  C   UNL     1       6.343   6.796  17.311  0.00  0.00    +0.000 C 
BRANCH   7   9
ATOM      9  O   UNL     1       7.338   8.895  18.033  0.00  0.00    +0.000 OA
BRANCH   9  10
ATOM     10  C   UNL     1       8.389   9.822  17.764  0.00  0.00    +0.000 C 
BRANCH  10  11
ATOM     11  C   UNL     1       9.235   9.955  18.991  0.00  0.00    +0.000 C 
ATOM     12  C   UNL     1      10.284  11.037  19.063  0.00  0.00    +0.000 C 
ATOM     13  C   UNL     1       9.061  11.120  19.931  0.00  0.00    +0.000 C 
ENDBRANCH  10  11
ENDBRANCH   9  10
ENDBRANCH   7   9
ENDBRANCH   1   3
BRANCH   1  14
ATOM     14  O   UNL     1       3.074   4.687  18.513  0.00  0.00    +0.000 OA
BRANCH  14  15
ATOM     15  C   UNL     1       2.547   5.836  19.019  0.00  0.00    +0.000 A 
ATOM     16  C   UNL     1       1.948   5.688  20.265  0.00  0.00    +0.000 A 
ATOM     17  C   UNL     1       1.383   6.787  20.912  0.00  0.00    +0.000 A 
ATOM     18  C   UNL     1       1.431   8.077  20.356  0.00  0.00    +0.000 A 
ATOM     19  C   UNL     1       2.066   8.206  19.106  0.00  0.00    +0.000 A 
ATOM     20  C   UNL     1       2.613   7.097  18.439  0.00  0.00    +0.000 A 
BRANCH  18  21
ATOM     21  C   UNL     1       0.819   9.225  21.067  0.00  0.00    +0.000 A 
ATOM     22  C   UNL     1       0.225   9.060  22.333  0.00  0.00    +0.000 A 
ATOM     23  C   UNL     1      -0.447  10.105  22.974  0.00  0.00    +0.000 A 
ATOM     24  C   UNL     1      -0.517  11.354  22.372  0.00  0.00    +0.000 A 
ATOM     25  C   UNL     1       0.097  11.562  21.140  0.00  0.00    +0.000 A 
ATOM     26  C   UNL     1       0.756  10.507  20.494  0.00  0.00    +0.000 A 
ENDBRANCH  18  21
ENDBRANCH  14  15
ENDBRANCH   1  14
TORSDOF 7
ENDMDL
MODEL 4
REMARK VINA RESULT:      -7.5      0.422      1.069
REMARK  Name = 
REMARK  7 active torsions:
REMARK  status: ('A' for Active; 'I' for Inactive)
REMARK    1  A    between atoms: C_2  and  C_3
REMARK    2  A    between atoms: C_3  and  O_4
REMARK    3  A    between atoms: O_4  and  C_5
REMARK    4  A    between atoms: C_8  and  C_9
REMARK    5  A    between atoms: C_20  and  O_21
REMARK    6  A    between atoms: O_21  and  C_22
REMARK    7  A    between atoms: C_22  and  C_23
REMARK                            x       y       z     vdW  Elec       q    Type
REMARK                         _______ _______ _______ _____ _____    ______ ____
ROOT
ATOM      1  C   UNL     1       2.316   7.078  18.903  0.00  0.00    +0.000 C 
ENDROOT
BRANCH   1   3
ATOM      2  O   UNL     1       1.707   6.264  21.078  0.00  0.00    +0.000 OA
ATOM      3  C   UNL     1       1.762   7.234  20.315  0.00  0.00    +0.000 C 
ATOM      4  N   UNL     1       1.335   8.487  20.702  0.00  0.00    +0.000 N 
ATOM      5  C   UNL     1       0.955   8.780  22.066  0.00  0.00    +0.000 C 
ATOM      6  C   UNL     1      -0.231   9.703  21.906  0.00  0.00    +0.000 C 
ATOM      7  C   UNL     1       0.114  10.540  20.668  0.00  0.00    +0.000 C 
ATOM      8  C   UNL     1       0.977   9.588  19.816  0.00  0.00    +0.000 C 
BRANCH   7   9
ATOM      9  O   UNL     1      -1.048  10.930  19.934  0.00  0.00    +0.000 OA
BRANCH   9  10
ATOM     10  C   UNL     1      -0.913  10.772  18.523  0.00  0.00    +0.000 C 
BRANCH  10  11
ATOM     11  C   UNL     1      -2.216  10.286  17.970  0.00  0.00    +0.000 C 
ATOM     12  C   UNL     1      -2.999  11.161  17.023  0.00  0.00    +0.000 C 
ATOM     13  C   UNL     1      -2.349   9.905  16.518  0.00  0.00    +0.000 C 
ENDBRANCH  10  11
ENDBRANCH   9  10
ENDBRANCH   7   9
ENDBRANCH   1   3
BRANCH   1  14
ATOM     14  O   UNL     1       3.466   6.248  19.013  0.00  0.00    +0.000 OA
BRANCH  14  15
ATOM     15  C   UNL     1       4.128   5.958  17.860  0.00  0.00    +0.000 A 
ATOM     16  C   UNL     1       3.971   4.646  17.425  0.00  0.00    +0.000 A 
ATOM     17  C   UNL     1       4.578   4.215  16.247  0.00  0.00    +0.000 A 
ATOM     18  C   UNL     1       5.332   5.087  15.442  0.00  0.00    +0.000 A 
ATOM     19  C   UNL     1       5.455   6.416  15.888  0.00  0.00    +0.000 A 
ATOM     20  C   UNL     1       4.866   6.848  17.089  0.00  0.00    +0.000 A 
BRANCH  18  21
ATOM     21  C   UNL     1       5.968   4.598  14.196  0.00  0.00    +0.000 A 
ATOM     22  C   UNL     1       7.186   5.139  13.742  0.00  0.00    +0.000 A 
ATOM     23  C   UNL     1       7.749   4.765  12.518  0.00  0.00    +0.000 A 
ATOM     24  C   UNL     1       7.118   3.813  11.729  0.00  0.00    +0.000 A 
ATOM     25  C   UNL     1       5.935   3.226  12.169  0.00  0.00    +0.000 A 
ATOM     26  C   UNL     1       5.366   3.616  13.388  0.00  0.00    +0.000 A 
ENDBRANCH  18  21
ENDBRANCH  14  15
ENDBRANCH   1  14
TORSDOF 7
ENDMDL
MODEL 5
REMARK VINA RESULT:      -7.5      2.731      9.624
REMARK  Name = 
REMARK  7 active torsions:
REMARK  status: ('A' for Active; 'I' for Inactive)
REMARK    1  A    between atoms: C_2  and  C_3
REMARK    2  A    between atoms: C_3  and  O_4
REMARK    3  A    between atoms: O_4  and  C_5
REMARK    4  A    between atoms: C_8  and  C_9
REMARK    5  A    between atoms: C_20  and  O_21
REMARK    6  A    between atoms: O_21  and  C_22
REMARK    7  A    between atoms: C_22  and  C_23
REMARK                            x       y       z     vdW  Elec       q    Type
REMARK                         _______ _______ _______ _____ _____    ______ ____
ROOT
ATOM      1  C   UNL     1       3.926   5.306  18.917  0.00  0.00    +0.000 C 
ENDROOT
BRANCH   1   3
ATOM      2  O   UNL     1       6.156   6.135  19.238  0.00  0.00    +0.000 OA
ATOM      3  C   UNL     1       5.414   5.386  18.595  0.00  0.00    +0.000 C 
ATOM      4  N   UNL     1       5.892   4.595  17.571  0.00  0.00    +0.000 N 
ATOM      5  C   UNL     1       7.306   4.466  17.297  0.00  0.00    +0.000 C 
ATOM      6  C   UNL     1       7.367   4.433  15.787  0.00  0.00    +0.000 C 
ATOM      7  C   UNL     1       6.105   3.662  15.383  0.00  0.00    +0.000 C 
ATOM      8  C   UNL     1       5.101   3.993  16.504  0.00  0.00    +0.000 C 
BRANCH   7   9
ATOM      9  O   UNL     1       5.586   4.091  14.122  0.00  0.00    +0.000 OA
BRANCH   9  10
ATOM     10  C   UNL     1       6.594   4.334  13.143  0.00  0.00    +0.000 C 
BRANCH  10  11
ATOM     11  C   UNL     1       6.179   3.686  11.859  0.00  0.00    +0.000 C 
ATOM     12  C   UNL     1       5.939   2.197  11.817  0.00  0.00    +0.000 C 
ATOM     13  C   UNL     1       4.784   3.147  11.677  0.00  0.00    +0.000 C 
ENDBRANCH  10  11
ENDBRANCH   9  10
ENDBRANCH   7   9
ENDBRANCH   1   3
BRANCH   1  14
ATOM     14  O   UNL     1       3.284   6.264  18.083  0.00  0.00    +0.000 OA
BRANCH  14  15
ATOM     15  C   UNL     1       2.520   7.205  18.704  0.00  0.00    +0.000 A 
ATOM     16  C   UNL     1       2.177   6.888  20.014  0.00  0.00    +0.000 A 
ATOM     17  C   UNL     1       1.412   7.769  20.777  0.00  0.00    +0.000 A 
ATOM     18  C   UNL     1       0.995   9.014  20.271  0.00  0.00    +0.000 A 
ATOM     19  C   UNL     1       1.376   9.323  18.952  0.00  0.00    +0.000 A 
ATOM     20  C   UNL     1       2.125   8.426  18.171  0.00  0.00    +0.000 A 
BRANCH  18  21
ATOM     21  C   UNL     1       0.180   9.928  21.106  0.00  0.00    +0.000 A 
ATOM     22  C   UNL     1      -0.118  11.234  20.672  0.00  0.00    +0.000 A 
ATOM     23  C   UNL     1      -0.797  12.145  21.487  0.00  0.00    +0.000 A 
ATOM     24  C   UNL     1      -1.220  11.760  22.752  0.00  0.00    +0.000 A 
ATOM     25  C   UNL     1      -0.980  10.462  23.194  0.00  0.00    +0.000 A 
ATOM     26  C   UNL     1      -0.285   9.557  22.380  0.00  0.00    +0.000 A 
ENDBRANCH  18  21
ENDBRANCH  14  15
ENDBRANCH   1  14
TORSDOF 7
ENDMDL
MODEL 6
REMARK VINA RESULT:      -7.5      4.605      7.323
REMARK  Name = 
REMARK  7 active torsions:
REMARK  status: ('A' for Active; 'I' for Inactive)
REMARK    1  A    between atoms: C_2  and  C_3
REMARK    2  A    between atoms: C_3  and  O_4
REMARK    3  A    between atoms: O_4  and  C_5
REMARK    4  A    between atoms: C_8  and  C_9
REMARK    5  A    between atoms: C_20  and  O_21
REMARK    6  A    between atoms: O_21  and  C_22
REMARK    7  A    between atoms: C_22  and  C_23
REMARK                            x       y       z     vdW  Elec       q    Type
REMARK                         _______ _______ _______ _____ _____    ______ ____
ROOT
ATOM      1  C   UNL     1       5.840   4.472  18.480  0.00  0.00    +0.000 C 
ENDROOT
BRANCH   1   3
ATOM      2  O   UNL     1       4.583   4.010  16.487  0.00  0.00    +0.000 OA
ATOM      3  C   UNL     1       4.698   3.825  17.703  0.00  0.00    +0.000 C 
ATOM      4  N   UNL     1       3.813   3.033  18.404  0.00  0.00    +0.000 N 
ATOM      5  C   UNL     1       2.802   2.241  17.741  0.00  0.00    +0.000 C 
ATOM      6  C   UNL     1       1.605   2.366  18.656  0.00  0.00    +0.000 C 
ATOM      7  C   UNL     1       2.216   2.397  20.063  0.00  0.00    +0.000 C 
ATOM      8  C   UNL     1       3.595   3.051  19.846  0.00  0.00    +0.000 C 
BRANCH   7   9
ATOM      9  O   UNL     1       1.443   3.181  20.974  0.00  0.00    +0.000 OA
BRANCH   9  10
ATOM     10  C   UNL     1       2.062   4.415  21.333  0.00  0.00    +0.000 C 
BRANCH  10  11
ATOM     11  C   UNL     1       1.464   5.508  20.505  0.00  0.00    +0.000 C 
ATOM     12  C   UNL     1       1.610   6.944  20.943  0.00  0.00    +0.000 C 
ATOM     13  C   UNL     1       2.335   6.455  19.722  0.00  0.00    +0.000 C 
ENDBRANCH  10  11
ENDBRANCH   9  10
ENDBRANCH   7   9
ENDBRANCH   1   3
BRANCH   1  14
ATOM     14  O   UNL     1       6.726   5.015  17.509  0.00  0.00    +0.000 OA
BRANCH  14  15
ATOM     15  C   UNL     1       7.215   6.263  17.752  0.00  0.00    +0.000 A 
ATOM     16  C   UNL     1       8.035   6.345  18.872  0.00  0.00    +0.000 A 
ATOM     17  C   UNL     1       8.621   7.559  19.231  0.00  0.00    +0.000 A 
ATOM     18  C   UNL     1       8.439   8.723  18.463  0.00  0.00    +0.000 A 
ATOM     19  C   UNL     1       7.625   8.608  17.320  0.00  0.00    +0.000 A 
ATOM     20  C   UNL     1       7.012   7.393  16.970  0.00  0.00    +0.000 A 
BRANCH  18  21
ATOM     21  C   UNL     1       9.072   9.999  18.872  0.00  0.00    +0.000 A 
ATOM     22  C   UNL     1       9.278  10.303  20.231  0.00  0.00    +0.000 A 
ATOM     23  C   UNL     1       9.779  11.542  20.642  0.00  0.00    +0.000 A 
ATOM     24  C   UNL     1      10.114  12.501  19.695  0.00  0.00    +0.000 A 
ATOM     25  C   UNL     1       9.964  12.215  18.341  0.00  0.00    +0.000 A 
ATOM     26  C   UNL     1       9.446  10.978  17.935  0.00  0.00    +0.000 A 
ENDBRANCH  18  21
ENDBRANCH  14  15
ENDBRANCH   1  14
TORSDOF 7
ENDMDL
MODEL 7
REMARK VINA RESULT:      -7.5      6.438      9.106
REMARK  Name = 
REMARK  7 active torsions:
REMARK  status: ('A' for Active; 'I' for Inactive)
REMARK    1  A    between atoms: C_2  and  C_3
REMARK    2  A    between atoms: C_3  and  O_4
REMARK    3  A    between atoms: O_4  and  C_5
REMARK    4  A    between atoms: C_8  and  C_9
REMARK    5  A    between atoms: C_20  and  O_21
REMARK    6  A    between atoms: O_21  and  C_22
REMARK    7  A    between atoms: C_22  and  C_23
REMARK                            x       y       z     vdW  Elec       q    Type
REMARK                         _______ _______ _______ _____ _____    ______ ____
ROOT
ATOM      1  C   UNL     1       7.815   7.232  18.068  0.00  0.00    +0.000 C 
ENDROOT
BRANCH   1   3
ATOM      2  O   UNL     1       7.547   6.237  15.899  0.00  0.00    +0.000 OA
ATOM      3  C   UNL     1       7.197   6.244  17.084  0.00  0.00    +0.000 C 
ATOM      4  N   UNL     1       6.248   5.367  17.566  0.00  0.00    +0.000 N 
ATOM      5  C   UNL     1       5.727   4.283  16.763  0.00  0.00    +0.000 C 
ATOM      6  C   UNL     1       4.262   4.247  17.134  0.00  0.00    +0.000 C 
ATOM      7  C   UNL     1       4.249   4.601  18.626  0.00  0.00    +0.000 C 
ATOM      8  C   UNL     1       5.474   5.521  18.792  0.00  0.00    +0.000 C 
BRANCH   7   9
ATOM      9  O   UNL     1       3.062   5.297  19.010  0.00  0.00    +0.000 OA
BRANCH   9  10
ATOM     10  C   UNL     1       2.604   4.968  20.320  0.00  0.00    +0.000 C 
BRANCH  10  11
ATOM     11  C   UNL     1       2.192   3.529  20.334  0.00  0.00    +0.000 C 
ATOM     12  C   UNL     1       2.711   2.613  21.415  0.00  0.00    +0.000 C 
ATOM     13  C   UNL     1       1.259   2.999  21.391  0.00  0.00    +0.000 C 
ENDBRANCH  10  11
ENDBRANCH   9  10
ENDBRANCH   7   9
ENDBRANCH   1   3
BRANCH   1  14
ATOM     14  O   UNL     1       7.666   8.521  17.487  0.00  0.00    +0.000 OA
BRANCH  14  15
ATOM     15  C   UNL     1       8.347   9.543  18.075  0.00  0.00    +0.000 A 
ATOM     16  C   UNL     1       8.147  10.782  17.474  0.00  0.00    +0.000 A 
ATOM     17  C   UNL     1       8.768  11.922  17.983  0.00  0.00    +0.000 A 
ATOM     18  C   UNL     1       9.578  11.872  19.131  0.00  0.00    +0.000 A 
ATOM     19  C   UNL     1       9.744  10.612  19.737  0.00  0.00    +0.000 A 
ATOM     20  C   UNL     1       9.142   9.456  19.211  0.00  0.00    +0.000 A 
BRANCH  18  21
ATOM     21  C   UNL     1      10.227  13.101  19.647  0.00  0.00    +0.000 A 
ATOM     22  C   UNL     1       9.567  13.937  20.569  0.00  0.00    +0.000 A 
ATOM     23  C   UNL     1      10.118  15.152  20.988  0.00  0.00    +0.000 A 
ATOM     24  C   UNL     1      11.362  15.548  20.513  0.00  0.00    +0.000 A 
ATOM     25  C   UNL     1      12.059  14.724  19.634  0.00  0.00    +0.000 A 
ATOM     26  C   UNL     1      11.496  13.515  19.204  0.00  0.00    +0.000 A 
ENDBRANCH  18  21
ENDBRANCH  14  15
ENDBRANCH   1  14
TORSDOF 7
ENDMDL
MODEL 8
REMARK VINA RESULT:      -7.4      6.273      8.984
REMARK  Name = 
REMARK  7 active torsions:
REMARK  status: ('A' for Active; 'I' for Inactive)
REMARK    1  A    between atoms: C_2  and  C_3
REMARK    2  A    between atoms: C_3  and  O_4
REMARK    3  A    between atoms: O_4  and  C_5
REMARK    4  A    between atoms: C_8  and  C_9
REMARK    5  A    between atoms: C_20  and  O_21
REMARK    6  A    between atoms: O_21  and  C_22
REMARK    7  A    between atoms: C_22  and  C_23
REMARK                            x       y       z     vdW  Elec       q    Type
REMARK                         _______ _______ _______ _____ _____    ______ ____
ROOT
ATOM      1  C   UNL     1       7.518   7.203  18.038  0.00  0.00    +0.000 C 
ENDROOT
BRANCH   1   3
ATOM      2  O   UNL     1       7.465   6.179  15.867  0.00  0.00    +0.000 OA
ATOM      3  C   UNL     1       7.035   6.171  17.025  0.00  0.00    +0.000 C 
ATOM      4  N   UNL     1       6.112   5.238  17.450  0.00  0.00    +0.000 N 
ATOM      5  C   UNL     1       5.719   4.117  16.625  0.00  0.00    +0.000 C 
ATOM      6  C   UNL     1       4.237   3.989  16.894  0.00  0.00    +0.000 C 
ATOM      7  C   UNL     1       4.098   4.351  18.379  0.00  0.00    +0.000 C 
ATOM      8  C   UNL     1       5.248   5.350  18.618  0.00  0.00    +0.000 C 
BRANCH   7   9
ATOM      9  O   UNL     1       2.845   4.972  18.672  0.00  0.00    +0.000 OA
BRANCH   9  10
ATOM     10  C   UNL     1       1.735   4.078  18.603  0.00  0.00    +0.000 C 
BRANCH  10  11
ATOM     11  C   UNL     1       1.097   4.004  19.954  0.00  0.00    +0.000 C 
ATOM     12  C   UNL     1       1.405   2.841  20.865  0.00  0.00    +0.000 C 
ATOM     13  C   UNL     1       1.905   4.215  21.208  0.00  0.00    +0.000 C 
ENDBRANCH  10  11
ENDBRANCH   9  10
ENDBRANCH   7   9
ENDBRANCH   1   3
BRANCH   1  14
ATOM     14  O   UNL     1       7.820   8.380  17.297  0.00  0.00    +0.000 OA
BRANCH  14  15
ATOM     15  C   UNL     1       8.365   9.419  17.988  0.00  0.00    +0.000 A 
ATOM     16  C   UNL     1       8.154  10.664  17.406  0.00  0.00    +0.000 A 
ATOM     17  C   UNL     1       8.639  11.820  18.016  0.00  0.00    +0.000 A 
ATOM     18  C   UNL     1       9.319  11.777  19.246  0.00  0.00    +0.000 A 
ATOM     19  C   UNL     1       9.498  10.508  19.829  0.00  0.00    +0.000 A 
ATOM     20  C   UNL     1       9.032   9.338  19.204  0.00  0.00    +0.000 A 
BRANCH  18  21
ATOM     21  C   UNL     1       9.826  13.023  19.868  0.00  0.00    +0.000 A 
ATOM     22  C   UNL     1      10.695  13.882  19.166  0.00  0.00    +0.000 A 
ATOM     23  C   UNL     1      11.265  15.007  19.770  0.00  0.00    +0.000 A 
ATOM     24  C   UNL     1      10.955  15.317  21.087  0.00  0.00    +0.000 A 
ATOM     25  C   UNL     1      10.066  14.513  21.794  0.00  0.00    +0.000 A 
ATOM     26  C   UNL     1       9.509  13.378  21.191  0.00  0.00    +0.000 A 
ENDBRANCH  18  21
ENDBRANCH  14  15
ENDBRANCH   1  14
TORSDOF 7
ENDMDL
MODEL 9
REMARK VINA RESULT:      -7.4      3.720      8.943
REMARK  Name = 
REMARK  7 active torsions:
REMARK  status: ('A' for Active; 'I' for Inactive)
REMARK    1  A    between atoms: C_2  and  C_3
REMARK    2  A    between atoms: C_3  and  O_4
REMARK    3  A    between atoms: O_4  and  C_5
REMARK    4  A    between atoms: C_8  and  C_9
REMARK    5  A    between atoms: C_20  and  O_21
REMARK    6  A    between atoms: O_21  and  C_22
REMARK    7  A    between atoms: C_22  and  C_23
REMARK                            x       y       z     vdW  Elec       q    Type
REMARK                         _______ _______ _______ _____ _____    ______ ____
ROOT
ATOM      1  C   UNL     1       3.553   5.899  17.926  0.00  0.00    +0.000 C 
ENDROOT
BRANCH   1   3
ATOM      2  O   UNL     1       4.837   4.712  19.571  0.00  0.00    +0.000 OA
ATOM      3  C   UNL     1       4.852   5.491  18.612  0.00  0.00    +0.000 C 
ATOM      4  N   UNL     1       6.030   6.017  18.123  0.00  0.00    +0.000 N 
ATOM      5  C   UNL     1       7.323   5.566  18.587  0.00  0.00    +0.000 C 
ATOM      6  C   UNL     1       8.136   6.839  18.641  0.00  0.00    +0.000 C 
ATOM      7  C   UNL     1       7.632   7.652  17.443  0.00  0.00    +0.000 C 
ATOM      8  C   UNL     1       6.163   7.210  17.296  0.00  0.00    +0.000 C 
BRANCH   7   9
ATOM      9  O   UNL     1       7.696   9.061  17.676  0.00  0.00    +0.000 OA
BRANCH   9  10
ATOM     10  C   UNL     1       8.759   9.448  18.544  0.00  0.00    +0.000 C 
BRANCH  10  11
ATOM     11  C   UNL     1       9.089  10.884  18.284  0.00  0.00    +0.000 C 
ATOM     12  C   UNL     1       9.577  11.757  19.414  0.00  0.00    +0.000 C 
ATOM     13  C   UNL     1      10.515  11.370  18.307  0.00  0.00    +0.000 C 
ENDBRANCH  10  11
ENDBRANCH   9  10
ENDBRANCH   7   9
ENDBRANCH   1   3
BRANCH   1  14
ATOM     14  O   UNL     1       2.616   6.157  18.964  0.00  0.00    +0.000 OA
BRANCH  14  15
ATOM     15  C   UNL     1       2.168   7.437  19.085  0.00  0.00    +0.000 A 
ATOM     16  C   UNL     1       2.311   8.202  17.932  0.00  0.00    +0.000 A 
ATOM     17  C   UNL     1       1.878   9.527  17.906  0.00  0.00    +0.000 A 
ATOM     18  C   UNL     1       1.253  10.123  19.016  0.00  0.00    +0.000 A 
ATOM     19  C   UNL     1       1.097   9.321  20.162  0.00  0.00    +0.000 A 
ATOM     20  C   UNL     1       1.556   7.993  20.202  0.00  0.00    +0.000 A 
BRANCH  18  21
ATOM     21  C   UNL     1       0.806  11.534  18.958  0.00  0.00    +0.000 A 
ATOM     22  C   UNL     1       1.706  12.567  18.630  0.00  0.00    +0.000 A 
ATOM     23  C   UNL     1       1.330  13.913  18.670  0.00  0.00    +0.000 A 
ATOM     24  C   UNL     1       0.030  14.258  19.014  0.00  0.00    +0.000 A 
ATOM     25  C   UNL     1      -0.896  13.259  19.300  0.00  0.00    +0.000 A 
ATOM     26  C   UNL     1      -0.511  11.912  19.275  0.00  0.00    +0.000 A 
ENDBRANCH  18  21
ENDBRANCH  14  15
ENDBRANCH   1  14
TORSDOF 7
ENDMDL
