MODEL 1
REMARK VINA RESULT:      -8.8      0.000      0.000
REMARK  Name = 
REMARK  6 active torsions:
REMARK  status: ('A' for Active; 'I' for Inactive)
REMARK    1  A    between atoms: C_2  and  C_3
REMARK    2  A    between atoms: C_3  and  N_4
REMARK    3  A    between atoms: C_6  and  C_7
REMARK    4  A    between atoms: C_7  and  C_9
REMARK    5  A    between atoms: N_11  and  C_12
REMARK    6  A    between atoms: C_24  and  C_25
REMARK                            x       y       z     vdW  Elec       q    Type
REMARK                         _______ _______ _______ _____ _____    ______ ____
ROOT
ATOM      1  N   UNL     1      -0.359  10.159  21.219  0.00  0.00    +0.000 N 
ATOM      2  C   UNL     1      -0.383  10.358  19.864  0.00  0.00    +0.000 A 
ATOM      3  C   UNL     1      -1.115  11.490  19.571  0.00  0.00    +0.000 A 
ATOM      4  C   UNL     1      -1.582  11.990  20.840  0.00  0.00    +0.000 A 
ATOM      5  C   UNL     1      -2.358  13.106  21.227  0.00  0.00    +0.000 A 
ATOM      6  C   UNL     1      -2.682  13.303  22.574  0.00  0.00    +0.000 A 
ATOM      7  C   UNL     1      -2.275  12.387  23.537  0.00  0.00    +0.000 A 
ATOM      8  C   UNL     1      -1.506  11.272  23.190  0.00  0.00    +0.000 A 
ATOM      9  C   UNL     1      -1.142  11.107  21.842  0.00  0.00    +0.000 A 
ENDROOT
BRANCH   3  10
ATOM     10  C   UNL     1      -1.367  12.035  18.229  0.00  0.00    +0.000 C 
ATOM     11  O   UNL     1      -0.641  12.888  17.711  0.00  0.00    +0.000 OA
BRANCH  10  12
ATOM     12  C   UNL     1      -2.579  11.570  17.384  0.00  0.00    +0.000 C 
ATOM     13  O   UNL     1      -2.452  11.012  16.303  0.00  0.00    +0.000 OA
ATOM     14  N   UNL     1      -3.811  11.850  17.953  0.00  0.00    +0.000 N 
ATOM     15  H   UNL     1      -3.814  12.359  18.834  0.00  0.00    +0.000 HD
BRANCH  14  16
ATOM     16  C   UNL     1      -5.025  11.567  17.260  0.00  0.00    +0.000 C 
ATOM     17  C   UNL     1      -6.310  11.364  18.015  0.00  0.00    +0.000 C 
ATOM     18  C   UNL     1      -6.125  12.581  17.157  0.00  0.00    +0.000 C 
ENDBRANCH  14  16
ENDBRANCH  10  12
ENDBRANCH   3  10
BRANCH   1  19
ATOM     19  C   UNL     1       0.351   9.053  21.845  0.00  0.00    +0.000 C 
BRANCH  19  21
ATOM     20  O   UNL     1       1.905   8.971  20.035  0.00  0.00    +0.000 OA
ATOM     21  C   UNL     1       1.286   8.337  20.886  0.00  0.00    +0.000 C 
ATOM     22  N   UNL     1       1.334   6.971  21.079  0.00  0.00    +0.000 N 
ATOM     23  C   UNL     1       2.085   6.149  20.281  0.00  0.00    +0.000 A 
ATOM     24  N   UNL     1       2.699   6.407  19.155  0.00  0.00    +0.000 NA
ATOM     25  C   UNL     1       3.358   5.270  18.707  0.00  0.00    +0.000 A 
ATOM     26  C   UNL     1       3.230   4.169  19.532  0.00  0.00    +0.000 A 
ATOM     27  S   UNL     1       2.221   4.553  20.869  0.00  0.00    +0.000 S 
ATOM     28  H   UNL     1       0.925   6.545  21.896  0.00  0.00    +0.000 HD
BRANCH  25  29
ATOM     29  C   UNL     1       4.135   5.280  17.471  0.00  0.00    +0.000 A 
ATOM     30  C   UNL     1       4.549   4.067  16.903  0.00  0.00    +0.000 A 
ATOM     31  C   UNL     1       5.318   4.051  15.735  0.00  0.00    +0.000 A 
ATOM     32  C   UNL     1       5.687   5.249  15.127  0.00  0.00    +0.000 A 
ATOM     33  C   UNL     1       5.276   6.462  15.675  0.00  0.00    +0.000 A 
ATOM     34  C   UNL     1       4.502   6.478  16.839  0.00  0.00    +0.000 A 
ENDBRANCH  25  29
ENDBRANCH  19  21
ENDBRANCH   1  19
TORSDOF 6
ENDMDL
MODEL 2
REMARK VINA RESULT:      -8.6      3.595      9.945
REMARK  Name = 
REMARK  6 active torsions:
REMARK  status: ('A' for Active; 'I' for Inactive)
REMARK    1  A    between atoms: C_2  and  C_3
REMARK    2  A    between atoms: C_3  and  N_4
REMARK    3  A    between atoms: C_6  and  C_7
REMARK    4  A    between atoms: C_7  and  C_9
REMARK    5  A    between atoms: N_11  and  C_12
REMARK    6  A    between atoms: C_24  and  C_25
REMARK                            x       y       z     vdW  Elec       q    Type
REMARK                         _______ _______ _______ _____ _____    ______ ____
ROOT
ATOM      1  N   UNL     1       2.812   6.383  18.422  0.00  0.00    +0.000 N 
ATOM      2  C   UNL     1       4.160   6.430  18.184  0.00  0.00    +0.000 A 
ATOM      3  C   UNL     1       4.792   5.415  18.873  0.00  0.00    +0.000 A 
ATOM      4  C   UNL     1       3.749   4.726  19.591  0.00  0.00    +0.000 A 
ATOM      5  C   UNL     1       3.730   3.608  20.455  0.00  0.00    +0.000 A 
ATOM      6  C   UNL     1       2.529   3.194  21.042  0.00  0.00    +0.000 A 
ATOM      7  C   UNL     1       1.353   3.897  20.809  0.00  0.00    +0.000 A 
ATOM      8  C   UNL     1       1.335   5.008  19.960  0.00  0.00    +0.000 A 
ATOM      9  C   UNL     1       2.535   5.389  19.335  0.00  0.00    +0.000 A 
ENDROOT
BRANCH   3  10
ATOM     10  C   UNL     1       6.234   5.134  18.870  0.00  0.00    +0.000 C 
ATOM     11  O   UNL     1       6.951   5.331  19.856  0.00  0.00    +0.000 OA
BRANCH  10  12
ATOM     12  C   UNL     1       6.947   4.576  17.613  0.00  0.00    +0.000 C 
ATOM     13  O   UNL     1       8.158   4.415  17.560  0.00  0.00    +0.000 OA
ATOM     14  N   UNL     1       6.097   4.289  16.558  0.00  0.00    +0.000 N 
ATOM     15  H   UNL     1       5.110   4.500  16.682  0.00  0.00    +0.000 HD
BRANCH  14  16
ATOM     16  C   UNL     1       6.605   3.852  15.299  0.00  0.00    +0.000 C 
ATOM     17  C   UNL     1       5.762   3.946  14.056  0.00  0.00    +0.000 C 
ATOM     18  C   UNL     1       6.967   4.827  14.218  0.00  0.00    +0.000 C 
ENDBRANCH  14  16
ENDBRANCH  10  12
ENDBRANCH   3  10
BRANCH   1  19
ATOM     19  C   UNL     1       1.868   7.315  17.821  0.00  0.00    +0.000 C 
BRANCH  19  21
ATOM     20  O   UNL     1       1.053   8.329  19.823  0.00  0.00    +0.000 OA
ATOM     21  C   UNL     1       1.563   8.502  18.718  0.00  0.00    +0.000 C 
ATOM     22  N   UNL     1       1.902   9.718  18.160  0.00  0.00    +0.000 N 
ATOM     23  C   UNL     1       1.660  10.905  18.797  0.00  0.00    +0.000 A 
ATOM     24  N   UNL     1       0.950  11.152  19.867  0.00  0.00    +0.000 NA
ATOM     25  C   UNL     1       1.002  12.507  20.166  0.00  0.00    +0.000 A 
ATOM     26  C   UNL     1       1.777  13.256  19.300  0.00  0.00    +0.000 A 
ATOM     27  S   UNL     1       2.410  12.250  18.060  0.00  0.00    +0.000 S 
ATOM     28  H   UNL     1       2.462   9.769  17.322  0.00  0.00    +0.000 HD
BRANCH  25  29
ATOM     29  C   UNL     1       0.301  13.058  21.322  0.00  0.00    +0.000 A 
ATOM     30  C   UNL     1      -0.600  12.254  22.034  0.00  0.00    +0.000 A 
ATOM     31  C   UNL     1      -1.305  12.768  23.127  0.00  0.00    +0.000 A 
ATOM     32  C   UNL     1      -1.121  14.093  23.515  0.00  0.00    +0.000 A 
ATOM     33  C   UNL     1      -0.223  14.901  22.823  0.00  0.00    +0.000 A 
ATOM     34  C   UNL     1       0.487  14.386  21.734  0.00  0.00    +0.000 A 
ENDBRANCH  25  29
ENDBRANCH  19  21
ENDBRANCH   1  19
TORSDOF 6
ENDMDL
MODEL 3
REMARK VINA RESULT:      -8.5      3.696     10.366
REMARK  Name = 
REMARK  6 active torsions:
REMARK  status: ('A' for Active; 'I' for Inactive)
REMARK    1  A    between atoms: C_2  and  C_3
REMARK    2  A    between atoms: C_3  and  N_4
REMARK    3  A    between atoms: C_6  and  C_7
REMARK    4  A    between atoms: C_7  and  C_9
REMARK    5  A    between atoms: N_11  and  C_12
REMARK    6  A    between atoms: C_24  and  C_25
REMARK                            x       y       z     vdW  Elec       q    Type
REMARK                         _______ _______ _______ _____ _____    ______ ____
ROOT
ATOM      1  N   UNL     1       4.540   5.443  17.658  0.00  0.00    +0.000 N 
ATOM      2  C   UNL     1       5.396   6.127  18.480  0.00  0.00    +0.000 A 
ATOM      3  C   UNL     1       6.635   6.235  17.882  0.00  0.00    +0.000 A 
ATOM      4  C   UNL     1       6.517   5.546  16.621  0.00  0.00    +0.000 A 
ATOM      5  C   UNL     1       7.406   5.308  15.549  0.00  0.00    +0.000 A 
ATOM      6  C   UNL     1       6.993   4.549  14.448  0.00  0.00    +0.000 A 
ATOM      7  C   UNL     1       5.718   3.996  14.414  0.00  0.00    +0.000 A 
ATOM      8  C   UNL     1       4.813   4.211  15.457  0.00  0.00    +0.000 A 
ATOM      9  C   UNL     1       5.217   5.014  16.537  0.00  0.00    +0.000 A 
ENDROOT
BRANCH   3  10
ATOM     10  C   UNL     1       7.815   6.902  18.448  0.00  0.00    +0.000 C 
ATOM     11  O   UNL     1       8.603   6.328  19.206  0.00  0.00    +0.000 OA
BRANCH  10  12
ATOM     12  C   UNL     1       8.136   8.383  18.130  0.00  0.00    +0.000 C 
ATOM     13  O   UNL     1       7.800   8.919  17.082  0.00  0.00    +0.000 OA
ATOM     14  N   UNL     1       8.841   9.039  19.125  0.00  0.00    +0.000 N 
ATOM     15  H   UNL     1       9.116   8.496  19.939  0.00  0.00    +0.000 HD
BRANCH  14  16
ATOM     16  C   UNL     1       9.292  10.381  18.948  0.00  0.00    +0.000 C 
ATOM     17  C   UNL     1       9.312  11.343  20.104  0.00  0.00    +0.000 C 
ATOM     18  C   UNL     1      10.600  10.851  19.512  0.00  0.00    +0.000 C 
ENDBRANCH  14  16
ENDBRANCH  10  12
ENDBRANCH   3  10
BRANCH   1  19
ATOM     19  C   UNL     1       3.150   5.180  18.002  0.00  0.00    +0.000 C 
BRANCH  19  21
ATOM     20  O   UNL     1       2.128   6.114  19.947  0.00  0.00    +0.000 OA
ATOM     21  C   UNL     1       2.519   6.309  18.799  0.00  0.00    +0.000 C 
ATOM     22  N   UNL     1       2.440   7.499  18.103  0.00  0.00    +0.000 N 
ATOM     23  C   UNL     1       1.860   8.618  18.638  0.00  0.00    +0.000 A 
ATOM     24  N   UNL     1       1.146   8.753  19.725  0.00  0.00    +0.000 NA
ATOM     25  C   UNL     1       0.780  10.082  19.887  0.00  0.00    +0.000 A 
ATOM     26  C   UNL     1       1.250  10.931  18.902  0.00  0.00    +0.000 A 
ATOM     27  S   UNL     1       2.124  10.036  17.725  0.00  0.00    +0.000 S 
ATOM     28  H   UNL     1       2.927   7.625  17.229  0.00  0.00    +0.000 HD
BRANCH  25  29
ATOM     29  C   UNL     1      -0.019  10.518  21.029  0.00  0.00    +0.000 A 
ATOM     30  C   UNL     1      -0.076   9.719  22.179  0.00  0.00    +0.000 A 
ATOM     31  C   UNL     1      -0.856  10.100  23.275  0.00  0.00    +0.000 A 
ATOM     32  C   UNL     1      -1.593  11.281  23.229  0.00  0.00    +0.000 A 
ATOM     33  C   UNL     1      -1.540  12.090  22.097  0.00  0.00    +0.000 A 
ATOM     34  C   UNL     1      -0.755  11.712  21.003  0.00  0.00    +0.000 A 
ENDBRANCH  25  29
ENDBRANCH  19  21
ENDBRANCH   1  19
TORSDOF 6
ENDMDL
MODEL 4
REMARK VINA RESULT:      -8.5      3.211      9.638
REMARK  Name = 
REMARK  6 active torsions:
REMARK  status: ('A' for Active; 'I' for Inactive)
REMARK    1  A    between atoms: C_2  and  C_3
REMARK    2  A    between atoms: C_3  and  N_4
REMARK    3  A    between atoms: C_6  and  C_7
REMARK    4  A    between atoms: C_7  and  C_9
REMARK    5  A    between atoms: N_11  and  C_12
REMARK    6  A    between atoms: C_24  and  C_25
REMARK                            x       y       z     vdW  Elec       q    Type
REMARK                         _______ _______ _______ _____ _____    ______ ____
ROOT
ATOM      1  N   UNL     1       2.449   5.858  19.589  0.00  0.00    +0.000 N 
ATOM      2  C   UNL     1       3.370   6.481  18.790  0.00  0.00    +0.000 A 
ATOM      3  C   UNL     1       3.725   5.650  17.747  0.00  0.00    +0.000 A 
ATOM      4  C   UNL     1       2.978   4.433  17.952  0.00  0.00    +0.000 A 
ATOM      5  C   UNL     1       2.881   3.215  17.242  0.00  0.00    +0.000 A 
ATOM      6  C   UNL     1       2.074   2.181  17.732  0.00  0.00    +0.000 A 
ATOM      7  C   UNL     1       1.391   2.328  18.933  0.00  0.00    +0.000 A 
ATOM      8  C   UNL     1       1.465   3.520  19.660  0.00  0.00    +0.000 A 
ATOM      9  C   UNL     1       2.237   4.573  19.138  0.00  0.00    +0.000 A 
ENDROOT
BRANCH   3  10
ATOM     10  C   UNL     1       4.684   5.961  16.679  0.00  0.00    +0.000 C 
ATOM     11  O   UNL     1       4.835   7.103  16.233  0.00  0.00    +0.000 OA
BRANCH  10  12
ATOM     12  C   UNL     1       5.563   4.860  16.037  0.00  0.00    +0.000 C 
ATOM     13  O   UNL     1       6.290   4.130  16.697  0.00  0.00    +0.000 OA
ATOM     14  N   UNL     1       5.460   4.781  14.658  0.00  0.00    +0.000 N 
ATOM     15  H   UNL     1       4.864   5.461  14.194  0.00  0.00    +0.000 HD
BRANCH  14  16
ATOM     16  C   UNL     1       6.272   3.879  13.908  0.00  0.00    +0.000 C 
ATOM     17  C   UNL     1       5.824   3.381  12.561  0.00  0.00    +0.000 C 
ATOM     18  C   UNL     1       6.992   4.317  12.668  0.00  0.00    +0.000 C 
ENDBRANCH  14  16
ENDBRANCH  10  12
ENDBRANCH   3  10
BRANCH   1  19
ATOM     19  C   UNL     1       1.866   6.486  20.766  0.00  0.00    +0.000 C 
BRANCH  19  21
ATOM     20  O   UNL     1       1.751   8.482  19.460  0.00  0.00    +0.000 OA
ATOM     21  C   UNL     1       1.479   7.936  20.527  0.00  0.00    +0.000 C 
ATOM     22  N   UNL     1       0.836   8.520  21.599  0.00  0.00    +0.000 N 
ATOM     23  C   UNL     1       0.452   9.834  21.590  0.00  0.00    +0.000 A 
ATOM     24  N   UNL     1       0.750  10.788  20.747  0.00  0.00    +0.000 NA
ATOM     25  C   UNL     1       0.116  11.965  21.123  0.00  0.00    +0.000 A 
ATOM     26  C   UNL     1      -0.668  11.858  22.256  0.00  0.00    +0.000 A 
ATOM     27  S   UNL     1      -0.567  10.264  22.890  0.00  0.00    +0.000 S 
ATOM     28  H   UNL     1       0.506   7.965  22.374  0.00  0.00    +0.000 HD
BRANCH  25  29
ATOM     29  C   UNL     1       0.270  13.193  20.348  0.00  0.00    +0.000 A 
ATOM     30  C   UNL     1      -0.747  14.157  20.368  0.00  0.00    +0.000 A 
ATOM     31  C   UNL     1      -0.637  15.328  19.611  0.00  0.00    +0.000 A 
ATOM     32  C   UNL     1       0.490  15.543  18.821  0.00  0.00    +0.000 A 
ATOM     33  C   UNL     1       1.513  14.598  18.797  0.00  0.00    +0.000 A 
ATOM     34  C   UNL     1       1.405  13.430  19.558  0.00  0.00    +0.000 A 
ENDBRANCH  25  29
ENDBRANCH  19  21
ENDBRANCH   1  19
TORSDOF 6
ENDMDL
MODEL 5
REMARK VINA RESULT:      -8.5      2.857      9.440
REMARK  Name = 
REMARK  6 active torsions:
REMARK  status: ('A' for Active; 'I' for Inactive)
REMARK    1  A    between atoms: C_2  and  C_3
REMARK    2  A    between atoms: C_3  and  N_4
REMARK    3  A    between atoms: C_6  and  C_7
REMARK    4  A    between atoms: C_7  and  C_9
REMARK    5  A    between atoms: N_11  and  C_12
REMARK    6  A    between atoms: C_24  and  C_25
REMARK                            x       y       z     vdW  Elec       q    Type
REMARK                         _______ _______ _______ _____ _____    ______ ____
ROOT
ATOM      1  N   UNL     1       2.488   6.233  19.882  0.00  0.00    +0.000 N 
ATOM      2  C   UNL     1       3.431   6.421  18.906  0.00  0.00    +0.000 A 
ATOM      3  C   UNL     1       3.439   5.340  18.049  0.00  0.00    +0.000 A 
ATOM      4  C   UNL     1       2.445   4.431  18.563  0.00  0.00    +0.000 A 
ATOM      5  C   UNL     1       1.962   3.170  18.145  0.00  0.00    +0.000 A 
ATOM      6  C   UNL     1       0.990   2.504  18.900  0.00  0.00    +0.000 A 
ATOM      7  C   UNL     1       0.516   3.058  20.083  0.00  0.00    +0.000 A 
ATOM      8  C   UNL     1       0.971   4.304  20.526  0.00  0.00    +0.000 A 
ATOM      9  C   UNL     1       1.911   4.990  19.737  0.00  0.00    +0.000 A 
ENDROOT
BRANCH   3  10
ATOM     10  C   UNL     1       4.308   5.170  16.876  0.00  0.00    +0.000 C 
ATOM     11  O   UNL     1       4.212   4.205  16.112  0.00  0.00    +0.000 OA
BRANCH  10  12
ATOM     12  C   UNL     1       5.412   6.201  16.534  0.00  0.00    +0.000 C 
ATOM     13  O   UNL     1       5.427   6.824  15.481  0.00  0.00    +0.000 OA
ATOM     14  N   UNL     1       6.379   6.346  17.515  0.00  0.00    +0.000 N 
ATOM     15  H   UNL     1       6.306   5.750  18.335  0.00  0.00    +0.000 HD
BRANCH  14  16
ATOM     16  C   UNL     1       7.512   7.189  17.315  0.00  0.00    +0.000 C 
ATOM     17  C   UNL     1       7.473   8.637  17.722  0.00  0.00    +0.000 C 
ATOM     18  C   UNL     1       8.346   7.669  18.465  0.00  0.00    +0.000 C 
ENDBRANCH  14  16
ENDBRANCH  10  12
ENDBRANCH   3  10
BRANCH   1  19
ATOM     19  C   UNL     1       2.226   7.210  20.929  0.00  0.00    +0.000 C 
BRANCH  19  21
ATOM     20  O   UNL     1      -0.069   7.866  20.935  0.00  0.00    +0.000 OA
ATOM     21  C   UNL     1       1.077   8.143  20.589  0.00  0.00    +0.000 C 
ATOM     22  N   UNL     1       1.465   9.260  19.877  0.00  0.00    +0.000 N 
ATOM     23  C   UNL     1       0.564  10.193  19.438  0.00  0.00    +0.000 A 
ATOM     24  N   UNL     1      -0.743  10.149  19.415  0.00  0.00    +0.000 NA
ATOM     25  C   UNL     1      -1.244  11.337  18.900  0.00  0.00    +0.000 A 
ATOM     26  C   UNL     1      -0.281  12.267  18.556  0.00  0.00    +0.000 A 
ATOM     27  S   UNL     1       1.285  11.618  18.835  0.00  0.00    +0.000 S 
ATOM     28  H   UNL     1       2.439   9.498  19.771  0.00  0.00    +0.000 HD
BRANCH  25  29
ATOM     29  C   UNL     1      -2.681  11.562  18.769  0.00  0.00    +0.000 A 
ATOM     30  C   UNL     1      -3.353  12.332  19.729  0.00  0.00    +0.000 A 
ATOM     31  C   UNL     1      -4.733  12.537  19.641  0.00  0.00    +0.000 A 
ATOM     32  C   UNL     1      -5.458  11.968  18.595  0.00  0.00    +0.000 A 
ATOM     33  C   UNL     1      -4.803  11.208  17.629  0.00  0.00    +0.000 A 
ATOM     34  C   UNL     1      -3.422  11.008  17.714  0.00  0.00    +0.000 A 
ENDBRANCH  25  29
ENDBRANCH  19  21
ENDBRANCH   1  19
TORSDOF 6
ENDMDL
MODEL 6
REMARK VINA RESULT:      -8.5      3.422      9.921
REMARK  Name = 
REMARK  6 active torsions:
REMARK  status: ('A' for Active; 'I' for Inactive)
REMARK    1  A    between atoms: C_2  and  C_3
REMARK    2  A    between atoms: C_3  and  N_4
REMARK    3  A    between atoms: C_6  and  C_7
REMARK    4  A    between atoms: C_7  and  C_9
REMARK    5  A    between atoms: N_11  and  C_12
REMARK    6  A    between atoms: C_24  and  C_25
REMARK                            x       y       z     vdW  Elec       q    Type
REMARK                         _______ _______ _______ _____ _____    ______ ____
ROOT
ATOM      1  N   UNL     1       4.404   6.885  17.730  0.00  0.00    +0.000 N 
ATOM      2  C   UNL     1       5.617   6.654  17.138  0.00  0.00    +0.000 A 
ATOM      3  C   UNL     1       5.664   5.363  16.653  0.00  0.00    +0.000 A 
ATOM      4  C   UNL     1       4.395   4.773  17.001  0.00  0.00    +0.000 A 
ATOM      5  C   UNL     1       3.814   3.502  16.785  0.00  0.00    +0.000 A 
ATOM      6  C   UNL     1       2.543   3.216  17.294  0.00  0.00    +0.000 A 
ATOM      7  C   UNL     1       1.854   4.163  18.044  0.00  0.00    +0.000 A 
ATOM      8  C   UNL     1       2.399   5.429  18.277  0.00  0.00    +0.000 A 
ATOM      9  C   UNL     1       3.655   5.728  17.721  0.00  0.00    +0.000 A 
ENDROOT
BRANCH   3  10
ATOM     10  C   UNL     1       6.795   4.741  15.952  0.00  0.00    +0.000 C 
ATOM     11  O   UNL     1       7.748   4.231  16.549  0.00  0.00    +0.000 OA
BRANCH  10  12
ATOM     12  C   UNL     1       6.861   4.697  14.405  0.00  0.00    +0.000 C 
ATOM     13  O   UNL     1       7.644   5.380  13.760  0.00  0.00    +0.000 OA
ATOM     14  N   UNL     1       5.953   3.829  13.821  0.00  0.00    +0.000 N 
ATOM     15  H   UNL     1       5.311   3.338  14.439  0.00  0.00    +0.000 HD
BRANCH  14  16
ATOM     16  C   UNL     1       5.825   3.739  12.403  0.00  0.00    +0.000 C 
ATOM     17  C   UNL     1       5.953   2.414  11.703  0.00  0.00    +0.000 C 
ATOM     18  C   UNL     1       4.625   3.110  11.761  0.00  0.00    +0.000 C 
ENDBRANCH  14  16
ENDBRANCH  10  12
ENDBRANCH   3  10
BRANCH   1  19
ATOM     19  C   UNL     1       4.042   8.164  18.322  0.00  0.00    +0.000 C 
BRANCH  19  21
ATOM     20  O   UNL     1       2.111   8.339  16.929  0.00  0.00    +0.000 OA
ATOM     21  C   UNL     1       2.604   8.560  18.032  0.00  0.00    +0.000 C 
ATOM     22  N   UNL     1       1.974   9.170  19.098  0.00  0.00    +0.000 N 
ATOM     23  C   UNL     1       0.691   9.640  19.013  0.00  0.00    +0.000 A 
ATOM     24  N   UNL     1      -0.080   9.788  17.967  0.00  0.00    +0.000 NA
ATOM     25  C   UNL     1      -1.317  10.282  18.359  0.00  0.00    +0.000 A 
ATOM     26  C   UNL     1      -1.450  10.483  19.720  0.00  0.00    +0.000 A 
ATOM     27  S   UNL     1       0.021  10.094  20.517  0.00  0.00    +0.000 S 
ATOM     28  H   UNL     1       2.388   9.171  20.018  0.00  0.00    +0.000 HD
BRANCH  25  29
ATOM     29  C   UNL     1      -2.377  10.535  17.387  0.00  0.00    +0.000 A 
ATOM     30  C   UNL     1      -2.276   9.998  16.096  0.00  0.00    +0.000 A 
ATOM     31  C   UNL     1      -3.264  10.249  15.139  0.00  0.00    +0.000 A 
ATOM     32  C   UNL     1      -4.360  11.047  15.461  0.00  0.00    +0.000 A 
ATOM     33  C   UNL     1      -4.478  11.581  16.742  0.00  0.00    +0.000 A 
ATOM     34  C   UNL     1      -3.494  11.323  17.701  0.00  0.00    +0.000 A 
ENDBRANCH  25  29
ENDBRANCH  19  21
ENDBRANCH   1  19
TORSDOF 6
ENDMDL
MODEL 7
REMARK VINA RESULT:      -8.5      1.875      2.301
REMARK  Name = 
REMARK  6 active torsions:
REMARK  status: ('A' for Active; 'I' for Inactive)
REMARK    1  A    between atoms: C_2  and  C_3
REMARK    2  A    between atoms: C_3  and  N_4
REMARK    3  A    between atoms: C_6  and  C_7
REMARK    4  A    between atoms: C_7  and  C_9
REMARK    5  A    between atoms: N_11  and  C_12
REMARK    6  A    between atoms: C_24  and  C_25
REMARK                            x       y       z     vdW  Elec       q    Type
REMARK                         _______ _______ _______ _____ _____    ______ ____
ROOT
ATOM      1  N   UNL     1      -0.155  10.108  19.813  0.00  0.00    +0.000 N 
ATOM      2  C   UNL     1      -1.191   9.827  18.962  0.00  0.00    +0.000 A 
ATOM      3  C   UNL     1      -1.493  10.942  18.207  0.00  0.00    +0.000 A 
ATOM      4  C   UNL     1      -0.586  11.970  18.655  0.00  0.00    +0.000 A 
ATOM      5  C   UNL     1      -0.373  13.316  18.282  0.00  0.00    +0.000 A 
ATOM      6  C   UNL     1       0.585  14.086  18.952  0.00  0.00    +0.000 A 
ATOM      7  C   UNL     1       1.309  13.547  20.009  0.00  0.00    +0.000 A 
ATOM      8  C   UNL     1       1.123  12.219  20.404  0.00  0.00    +0.000 A 
ATOM      9  C   UNL     1       0.195  11.436  19.696  0.00  0.00    +0.000 A 
ENDROOT
BRANCH   3  10
ATOM     10  C   UNL     1      -2.541  11.036  17.182  0.00  0.00    +0.000 C 
ATOM     11  O   UNL     1      -2.353  10.709  16.007  0.00  0.00    +0.000 OA
BRANCH  10  12
ATOM     12  C   UNL     1      -3.956  11.566  17.521  0.00  0.00    +0.000 C 
ATOM     13  O   UNL     1      -4.808  11.763  16.665  0.00  0.00    +0.000 OA
ATOM     14  N   UNL     1      -4.167  11.805  18.869  0.00  0.00    +0.000 N 
ATOM     15  H   UNL     1      -3.382  11.654  19.499  0.00  0.00    +0.000 HD
BRANCH  14  16
ATOM     16  C   UNL     1      -5.387  12.379  19.336  0.00  0.00    +0.000 C 
ATOM     17  C   UNL     1      -6.475  11.511  19.906  0.00  0.00    +0.000 C 
ATOM     18  C   UNL     1      -5.714  12.447  20.797  0.00  0.00    +0.000 C 
ENDBRANCH  14  16
ENDBRANCH  10  12
ENDBRANCH   3  10
BRANCH   1  19
ATOM     19  C   UNL     1       0.407   9.127  20.730  0.00  0.00    +0.000 C 
BRANCH  19  21
ATOM     20  O   UNL     1       2.235   8.753  19.241  0.00  0.00    +0.000 OA
ATOM     21  C   UNL     1       1.485   8.271  20.086  0.00  0.00    +0.000 C 
ATOM     22  N   UNL     1       1.499   6.968  20.539  0.00  0.00    +0.000 N 
ATOM     23  C   UNL     1       2.368   6.033  20.042  0.00  0.00    +0.000 A 
ATOM     24  N   UNL     1       3.158   6.094  19.002  0.00  0.00    +0.000 NA
ATOM     25  C   UNL     1       3.879   4.913  18.889  0.00  0.00    +0.000 A 
ATOM     26  C   UNL     1       3.615   3.982  19.876  0.00  0.00    +0.000 A 
ATOM     27  S   UNL     1       2.403   4.580  20.936  0.00  0.00    +0.000 S 
ATOM     28  H   UNL     1       0.961   6.691  21.346  0.00  0.00    +0.000 HD
BRANCH  25  29
ATOM     29  C   UNL     1       4.847   4.713  17.814  0.00  0.00    +0.000 A 
ATOM     30  C   UNL     1       6.218   4.776  18.096  0.00  0.00    +0.000 A 
ATOM     31  C   UNL     1       7.164   4.617  17.078  0.00  0.00    +0.000 A 
ATOM     32  C   UNL     1       6.748   4.400  15.766  0.00  0.00    +0.000 A 
ATOM     33  C   UNL     1       5.389   4.327  15.472  0.00  0.00    +0.000 A 
ATOM     34  C   UNL     1       4.443   4.480  16.490  0.00  0.00    +0.000 A 
ENDBRANCH  25  29
ENDBRANCH  19  21
ENDBRANCH   1  19
TORSDOF 6
ENDMDL
MODEL 8
REMARK VINA RESULT:      -8.4      3.940      9.747
REMARK  Name = 
REMARK  6 active torsions:
REMARK  status: ('A' for Active; 'I' for Inactive)
REMARK    1  A    between atoms: C_2  and  C_3
REMARK    2  A    between atoms: C_3  and  N_4
REMARK    3  A    between atoms: C_6  and  C_7
REMARK    4  A    between atoms: C_7  and  C_9
REMARK    5  A    between atoms: N_11  and  C_12
REMARK    6  A    between atoms: C_24  and  C_25
REMARK                            x       y       z     vdW  Elec       q    Type
REMARK                         _______ _______ _______ _____ _____    ______ ____
ROOT
ATOM      1  N   UNL     1       2.773   6.737  18.127  0.00  0.00    +0.000 N 
ATOM      2  C   UNL     1       3.839   7.138  17.367  0.00  0.00    +0.000 A 
ATOM      3  C   UNL     1       4.872   6.231  17.493  0.00  0.00    +0.000 A 
ATOM      4  C   UNL     1       4.395   5.228  18.412  0.00  0.00    +0.000 A 
ATOM      5  C   UNL     1       4.953   4.042  18.941  0.00  0.00    +0.000 A 
ATOM      6  C   UNL     1       4.233   3.281  19.869  0.00  0.00    +0.000 A 
ATOM      7  C   UNL     1       2.982   3.700  20.304  0.00  0.00    +0.000 A 
ATOM      8  C   UNL     1       2.400   4.868  19.801  0.00  0.00    +0.000 A 
ATOM      9  C   UNL     1       3.107   5.602  18.833  0.00  0.00    +0.000 A 
ENDROOT
BRANCH   3  10
ATOM     10  C   UNL     1       6.181   6.312  16.831  0.00  0.00    +0.000 C 
ATOM     11  O   UNL     1       6.916   7.300  16.928  0.00  0.00    +0.000 OA
BRANCH  10  12
ATOM     12  C   UNL     1       6.716   5.151  15.956  0.00  0.00    +0.000 C 
ATOM     13  O   UNL     1       7.779   4.590  16.184  0.00  0.00    +0.000 OA
ATOM     14  N   UNL     1       5.894   4.814  14.893  0.00  0.00    +0.000 N 
ATOM     15  H   UNL     1       5.053   5.369  14.758  0.00  0.00    +0.000 HD
BRANCH  14  16
ATOM     16  C   UNL     1       6.286   3.827  13.941  0.00  0.00    +0.000 C 
ATOM     17  C   UNL     1       5.459   3.576  12.710  0.00  0.00    +0.000 C 
ATOM     18  C   UNL     1       6.817   4.205  12.591  0.00  0.00    +0.000 C 
ENDBRANCH  14  16
ENDBRANCH  10  12
ENDBRANCH   3  10
BRANCH   1  19
ATOM     19  C   UNL     1       1.521   7.478  18.190  0.00  0.00    +0.000 C 
BRANCH  19  21
ATOM     20  O   UNL     1       2.594   9.467  17.422  0.00  0.00    +0.000 OA
ATOM     21  C   UNL     1       1.726   8.983  18.143  0.00  0.00    +0.000 C 
ATOM     22  N   UNL     1       0.871   9.682  18.970  0.00  0.00    +0.000 N 
ATOM     23  C   UNL     1       0.935  11.043  19.100  0.00  0.00    +0.000 A 
ATOM     24  N   UNL     1       1.844  11.883  18.678  0.00  0.00    +0.000 NA
ATOM     25  C   UNL     1       1.483  13.180  19.020  0.00  0.00    +0.000 A 
ATOM     26  C   UNL     1       0.280  13.282  19.693  0.00  0.00    +0.000 A 
ATOM     27  S   UNL     1      -0.385  11.719  19.946  0.00  0.00    +0.000 S 
ATOM     28  H   UNL     1       0.082   9.230  19.406  0.00  0.00    +0.000 HD
BRANCH  25  29
ATOM     29  C   UNL     1       2.320  14.321  18.661  0.00  0.00    +0.000 A 
ATOM     30  C   UNL     1       3.618  14.105  18.179  0.00  0.00    +0.000 A 
ATOM     31  C   UNL     1       4.449  15.182  17.856  0.00  0.00    +0.000 A 
ATOM     32  C   UNL     1       3.992  16.488  18.019  0.00  0.00    +0.000 A 
ATOM     33  C   UNL     1       2.701  16.719  18.489  0.00  0.00    +0.000 A 
ATOM     34  C   UNL     1       1.868  15.642  18.806  0.00  0.00    +0.000 A 
ENDBRANCH  25  29
ENDBRANCH  19  21
ENDBRANCH   1  19
TORSDOF 6
ENDMDL
MODEL 9
REMARK VINA RESULT:      -8.4      2.931      9.505
REMARK  Name = 
REMARK  6 active torsions:
REMARK  status: ('A' for Active; 'I' for Inactive)
REMARK    1  A    between atoms: C_2  and  C_3
REMARK    2  A    between atoms: C_3  and  N_4
REMARK    3  A    between atoms: C_6  and  C_7
REMARK    4  A    between atoms: C_7  and  C_9
REMARK    5  A    between atoms: N_11  and  C_12
REMARK    6  A    between atoms: C_24  and  C_25
REMARK                            x       y       z     vdW  Elec       q    Type
REMARK                         _______ _______ _______ _____ _____    ______ ____
ROOT
ATOM      1  N   UNL     1       2.550   6.170  19.952  0.00  0.00    +0.000 N 
ATOM      2  C   UNL     1       3.574   6.381  19.067  0.00  0.00    +0.000 A 
ATOM      3  C   UNL     1       3.638   5.337  18.167  0.00  0.00    +0.000 A 
ATOM      4  C   UNL     1       2.592   4.425  18.557  0.00  0.00    +0.000 A 
ATOM      5  C   UNL     1       2.129   3.191  18.046  0.00  0.00    +0.000 A 
ATOM      6  C   UNL     1       1.088   2.511  18.689  0.00  0.00    +0.000 A 
ATOM      7  C   UNL     1       0.524   3.024  19.851  0.00  0.00    +0.000 A 
ATOM      8  C   UNL     1       0.957   4.242  20.383  0.00  0.00    +0.000 A 
ATOM      9  C   UNL     1       1.969   4.944  19.706  0.00  0.00    +0.000 A 
ENDROOT
BRANCH   3  10
ATOM     10  C   UNL     1       4.600   5.202  17.065  0.00  0.00    +0.000 C 
ATOM     11  O   UNL     1       4.277   4.786  15.948  0.00  0.00    +0.000 OA
BRANCH  10  12
ATOM     12  C   UNL     1       6.094   5.569  17.248  0.00  0.00    +0.000 C 
ATOM     13  O   UNL     1       6.936   4.750  17.593  0.00  0.00    +0.000 OA
ATOM     14  N   UNL     1       6.388   6.899  16.997  0.00  0.00    +0.000 N 
ATOM     15  H   UNL     1       5.612   7.512  16.760  0.00  0.00    +0.000 HD
BRANCH  14  16
ATOM     16  C   UNL     1       7.701   7.417  17.206  0.00  0.00    +0.000 C 
ATOM     17  C   UNL     1       7.901   8.810  17.736  0.00  0.00    +0.000 C 
ATOM     18  C   UNL     1       8.252   7.623  18.585  0.00  0.00    +0.000 C 
ENDBRANCH  14  16
ENDBRANCH  10  12
ENDBRANCH   3  10
BRANCH   1  19
ATOM     19  C   UNL     1       2.214   7.106  21.015  0.00  0.00    +0.000 C 
BRANCH  19  21
ATOM     20  O   UNL     1      -0.073   7.789  20.954  0.00  0.00    +0.000 OA
ATOM     21  C   UNL     1       1.085   8.048  20.633  0.00  0.00    +0.000 C 
ATOM     22  N   UNL     1       1.504   9.151  19.918  0.00  0.00    +0.000 N 
ATOM     23  C   UNL     1       0.625  10.089  19.445  0.00  0.00    +0.000 A 
ATOM     24  N   UNL     1      -0.681  10.060  19.389  0.00  0.00    +0.000 NA
ATOM     25  C   UNL     1      -1.156  11.247  18.847  0.00  0.00    +0.000 A 
ATOM     26  C   UNL     1      -0.173  12.161  18.515  0.00  0.00    +0.000 A 
ATOM     27  S   UNL     1       1.378  11.497  18.842  0.00  0.00    +0.000 S 
ATOM     28  H   UNL     1       2.483   9.376  19.833  0.00  0.00    +0.000 HD
BRANCH  25  29
ATOM     29  C   UNL     1      -2.587  11.486  18.677  0.00  0.00    +0.000 A 
ATOM     30  C   UNL     1      -3.235  11.020  17.525  0.00  0.00    +0.000 A 
ATOM     31  C   UNL     1      -4.598  11.261  17.326  0.00  0.00    +0.000 A 
ATOM     32  C   UNL     1      -5.325  11.978  18.274  0.00  0.00    +0.000 A 
ATOM     33  C   UNL     1      -4.696  12.440  19.428  0.00  0.00    +0.000 A 
ATOM     34  C   UNL     1      -3.335  12.193  19.630  0.00  0.00    +0.000 A 
ENDBRANCH  25  29
ENDBRANCH  19  21
ENDBRANCH   1  19
TORSDOF 6
ENDMDL
