MODEL 1
REMARK VINA RESULT:      -8.2      0.000      0.000
REMARK  Name = 
REMARK  3 active torsions:
REMARK  status: ('A' for Active; 'I' for Inactive)
REMARK    1  A    between atoms: C_1  and  C_2
REMARK    2  A    between atoms: C_7  and  N_8
REMARK    3  A    between atoms: N_8  and  N_9
REMARK                            x       y       z     vdW  Elec       q    Type
REMARK                         _______ _______ _______ _____ _____    ______ ____
ROOT
ATOM      1  N   UNL     1       1.720   8.463  20.299  0.00  0.00    +0.000 N 
ATOM      2  H   UNL     1       2.520   8.961  19.928  0.00  0.00    +0.000 HD
ENDROOT
BRANCH   1   3
ATOM      3  N   UNL     1       1.654   7.115  20.395  0.00  0.00    +0.000 NA
ATOM      4  C   UNL     1       2.277   6.376  19.528  0.00  0.00    +0.000 C 
ATOM      5  C   UNL     1       3.142   6.869  18.421  0.00  0.00    +0.000 C 
ATOM      6  C   UNL     1       3.747   6.044  17.565  0.00  0.00    +0.000 C 
ATOM      7  C   UNL     1       3.597   4.582  17.647  0.00  0.00    +0.000 C 
ATOM      8  O   UNL     1       4.182   3.877  16.824  0.00  0.00    +0.000 OA
ATOM      9  C   UNL     1       2.742   4.041  18.729  0.00  0.00    +0.000 A 
ATOM     10  N   UNL     1       2.621   2.685  18.774  0.00  0.00    +0.000 NA
ATOM     11  C   UNL     1       1.846   2.167  19.749  0.00  0.00    +0.000 A 
ATOM     12  C   UNL     1       1.184   2.939  20.688  0.00  0.00    +0.000 A 
ATOM     13  C   UNL     1       1.323   4.325  20.623  0.00  0.00    +0.000 A 
ATOM     14  C   UNL     1       2.119   4.899  19.624  0.00  0.00    +0.000 A 
ENDBRANCH   1   3
BRANCH   1  21
ATOM     15  C   UNL     1      -3.359  13.531  22.744  0.00  0.00    +0.000 C 
ATOM     16  C   UNL     1      -2.357  12.491  22.389  0.00  0.00    +0.000 A 
ATOM     17  N   UNL     1      -1.849  11.634  23.246  0.00  0.00    +0.000 NA
ATOM     18  C   UNL     1      -0.952  10.805  22.598  0.00  0.00    +0.000 A 
ATOM     19  C   UNL     1      -0.219   9.765  23.200  0.00  0.00    +0.000 A 
ATOM     20  C   UNL     1       0.650   8.996  22.423  0.00  0.00    +0.000 A 
ATOM     21  C   UNL     1       0.843   9.254  21.068  0.00  0.00    +0.000 A 
ATOM     22  C   UNL     1       0.104  10.280  20.448  0.00  0.00    +0.000 A 
ATOM     23  C   UNL     1      -0.782  11.041  21.235  0.00  0.00    +0.000 A 
ATOM     24  S   UNL     1      -1.797  12.360  20.772  0.00  0.00    +0.000 S 
ENDBRANCH   1  21
TORSDOF 2
ENDMDL
MODEL 2
REMARK VINA RESULT:      -8.2      3.593      8.603
REMARK  Name = 
REMARK  3 active torsions:
REMARK  status: ('A' for Active; 'I' for Inactive)
REMARK    1  A    between atoms: C_1  and  C_2
REMARK    2  A    between atoms: C_7  and  N_8
REMARK    3  A    between atoms: N_8  and  N_9
REMARK                            x       y       z     vdW  Elec       q    Type
REMARK                         _______ _______ _______ _____ _____    ______ ____
ROOT
ATOM      1  N   UNL     1       2.206   7.251  20.278  0.00  0.00    +0.000 N 
ATOM      2  H   UNL     1       2.621   7.174  21.199  0.00  0.00    +0.000 HD
ENDROOT
BRANCH   1   3
ATOM      3  N   UNL     1       1.484   8.318  19.867  0.00  0.00    +0.000 NA
ATOM      4  C   UNL     1       0.849   9.042  20.738  0.00  0.00    +0.000 C 
ATOM      5  C   UNL     1       0.875   8.852  22.216  0.00  0.00    +0.000 C 
ATOM      6  C   UNL     1       0.192   9.638  23.049  0.00  0.00    +0.000 C 
ATOM      7  C   UNL     1      -0.648  10.747  22.569  0.00  0.00    +0.000 C 
ATOM      8  O   UNL     1      -1.255  11.432  23.391  0.00  0.00    +0.000 OA
ATOM      9  C   UNL     1      -0.711  10.974  21.106  0.00  0.00    +0.000 A 
ATOM     10  N   UNL     1      -1.500  12.006  20.695  0.00  0.00    +0.000 NA
ATOM     11  C   UNL     1      -1.576  12.233  19.368  0.00  0.00    +0.000 A 
ATOM     12  C   UNL     1      -0.899  11.479  18.425  0.00  0.00    +0.000 A 
ATOM     13  C   UNL     1      -0.097  10.428  18.868  0.00  0.00    +0.000 A 
ATOM     14  C   UNL     1       0.007  10.162  20.240  0.00  0.00    +0.000 A 
ENDBRANCH   1   3
BRANCH   1  21
ATOM     15  C   UNL     1       6.007   4.091  14.532  0.00  0.00    +0.000 C 
ATOM     16  C   UNL     1       5.215   4.589  15.686  0.00  0.00    +0.000 A 
ATOM     17  N   UNL     1       4.466   3.827  16.450  0.00  0.00    +0.000 NA
ATOM     18  C   UNL     1       3.867   4.596  17.431  0.00  0.00    +0.000 A 
ATOM     19  C   UNL     1       2.998   4.117  18.429  0.00  0.00    +0.000 A 
ATOM     20  C   UNL     1       2.469   5.006  19.366  0.00  0.00    +0.000 A 
ATOM     21  C   UNL     1       2.745   6.370  19.319  0.00  0.00    +0.000 A 
ATOM     22  C   UNL     1       3.627   6.862  18.337  0.00  0.00    +0.000 A 
ATOM     23  C   UNL     1       4.169   5.956  17.404  0.00  0.00    +0.000 A 
ATOM     24  S   UNL     1       5.248   6.257  16.089  0.00  0.00    +0.000 S 
ENDBRANCH   1  21
TORSDOF 2
ENDMDL
MODEL 3
REMARK VINA RESULT:      -8.2      1.501      2.897
REMARK  Name = 
REMARK  3 active torsions:
REMARK  status: ('A' for Active; 'I' for Inactive)
REMARK    1  A    between atoms: C_1  and  C_2
REMARK    2  A    between atoms: C_7  and  N_8
REMARK    3  A    between atoms: N_8  and  N_9
REMARK                            x       y       z     vdW  Elec       q    Type
REMARK                         _______ _______ _______ _____ _____    ______ ____
ROOT
ATOM      1  N   UNL     1       1.815   7.360  20.811  0.00  0.00    +0.000 N 
ATOM      2  H   UNL     1       1.540   6.736  21.561  0.00  0.00    +0.000 HD
ENDROOT
BRANCH   1   3
ATOM      3  N   UNL     1       2.539   6.970  19.738  0.00  0.00    +0.000 NA
ATOM      4  C   UNL     1       2.587   5.713  19.414  0.00  0.00    +0.000 C 
ATOM      5  C   UNL     1       1.852   4.609  20.091  0.00  0.00    +0.000 C 
ATOM      6  C   UNL     1       1.954   3.338  19.700  0.00  0.00    +0.000 C 
ATOM      7  C   UNL     1       2.811   2.930  18.575  0.00  0.00    +0.000 C 
ATOM      8  O   UNL     1       2.863   1.739  18.268  0.00  0.00    +0.000 OA
ATOM      9  C   UNL     1       3.567   3.992  17.871  0.00  0.00    +0.000 A 
ATOM     10  N   UNL     1       4.353   3.581  16.837  0.00  0.00    +0.000 NA
ATOM     11  C   UNL     1       5.054   4.528  16.181  0.00  0.00    +0.000 A 
ATOM     12  C   UNL     1       5.007   5.873  16.505  0.00  0.00    +0.000 A 
ATOM     13  C   UNL     1       4.196   6.271  17.566  0.00  0.00    +0.000 A 
ATOM     14  C   UNL     1       3.454   5.315  18.272  0.00  0.00    +0.000 A 
ENDBRANCH   1   3
BRANCH   1  21
ATOM     15  C   UNL     1      -2.446  13.444  22.323  0.00  0.00    +0.000 C 
ATOM     16  C   UNL     1      -1.598  12.298  21.903  0.00  0.00    +0.000 A 
ATOM     17  N   UNL     1      -1.105  12.150  20.695  0.00  0.00    +0.000 NA
ATOM     18  C   UNL     1      -0.363  10.985  20.634  0.00  0.00    +0.000 A 
ATOM     19  C   UNL     1       0.315  10.505  19.497  0.00  0.00    +0.000 A 
ATOM     20  C   UNL     1       1.037   9.313  19.578  0.00  0.00    +0.000 A 
ATOM     21  C   UNL     1       1.075   8.558  20.748  0.00  0.00    +0.000 A 
ATOM     22  C   UNL     1       0.417   9.034  21.898  0.00  0.00    +0.000 A 
ATOM     23  C   UNL     1      -0.297  10.245  21.813  0.00  0.00    +0.000 A 
ATOM     24  S   UNL     1      -1.210  11.063  23.030  0.00  0.00    +0.000 S 
ENDBRANCH   1  21
TORSDOF 2
ENDMDL
MODEL 4
REMARK VINA RESULT:      -8.2      1.253      1.472
REMARK  Name = 
REMARK  3 active torsions:
REMARK  status: ('A' for Active; 'I' for Inactive)
REMARK    1  A    between atoms: C_1  and  C_2
REMARK    2  A    between atoms: C_7  and  N_8
REMARK    3  A    between atoms: N_8  and  N_9
REMARK                            x       y       z     vdW  Elec       q    Type
REMARK                         _______ _______ _______ _____ _____    ______ ____
ROOT
ATOM      1  N   UNL     1       2.032   8.198  18.994  0.00  0.00    +0.000 N 
ATOM      2  H   UNL     1       2.642   8.763  18.416  0.00  0.00    +0.000 HD
ENDROOT
BRANCH   1   3
ATOM      3  N   UNL     1       2.081   6.847  19.040  0.00  0.00    +0.000 NA
ATOM      4  C   UNL     1       2.937   6.207  18.303  0.00  0.00    +0.000 C 
ATOM      5  C   UNL     1       3.958   6.827  17.413  0.00  0.00    +0.000 C 
ATOM      6  C   UNL     1       4.804   6.101  16.681  0.00  0.00    +0.000 C 
ATOM      7  C   UNL     1       4.785   4.629  16.692  0.00  0.00    +0.000 C 
ATOM      8  O   UNL     1       5.592   4.019  15.991  0.00  0.00    +0.000 OA
ATOM      9  C   UNL     1       3.783   3.964  17.558  0.00  0.00    +0.000 A 
ATOM     10  N   UNL     1       3.790   2.602  17.541  0.00  0.00    +0.000 NA
ATOM     11  C   UNL     1       2.886   1.971  18.319  0.00  0.00    +0.000 A 
ATOM     12  C   UNL     1       1.973   2.637  19.120  0.00  0.00    +0.000 A 
ATOM     13  C   UNL     1       1.985   4.031  19.121  0.00  0.00    +0.000 A 
ATOM     14  C   UNL     1       2.909   4.719  18.325  0.00  0.00    +0.000 A 
ENDBRANCH   1   3
BRANCH   1  21
ATOM     15  C   UNL     1      -1.641  13.292  23.238  0.00  0.00    +0.000 C 
ATOM     16  C   UNL     1      -0.919  12.214  22.513  0.00  0.00    +0.000 A 
ATOM     17  N   UNL     1      -0.569  11.069  23.053  0.00  0.00    +0.000 NA
ATOM     18  C   UNL     1       0.082  10.292  22.114  0.00  0.00    +0.000 A 
ATOM     19  C   UNL     1       0.597   9.000  22.336  0.00  0.00    +0.000 A 
ATOM     20  C   UNL     1       1.227   8.321  21.292  0.00  0.00    +0.000 A 
ATOM     21  C   UNL     1       1.399   8.902  20.038  0.00  0.00    +0.000 A 
ATOM     22  C   UNL     1       0.874  10.186  19.795  0.00  0.00    +0.000 A 
ATOM     23  C   UNL     1       0.225  10.859  20.849  0.00  0.00    +0.000 A 
ATOM     24  S   UNL     1      -0.493  12.430  20.865  0.00  0.00    +0.000 S 
ENDBRANCH   1  21
TORSDOF 2
ENDMDL
MODEL 5
REMARK VINA RESULT:      -8.1      2.508      2.856
REMARK  Name = 
REMARK  3 active torsions:
REMARK  status: ('A' for Active; 'I' for Inactive)
REMARK    1  A    between atoms: C_1  and  C_2
REMARK    2  A    between atoms: C_7  and  N_8
REMARK    3  A    between atoms: N_8  and  N_9
REMARK                            x       y       z     vdW  Elec       q    Type
REMARK                         _______ _______ _______ _____ _____    ______ ____
ROOT
ATOM      1  N   UNL     1       1.822   9.180  19.053  0.00  0.00    +0.000 N 
ATOM      2  H   UNL     1       2.627   9.791  18.983  0.00  0.00    +0.000 HD
ENDROOT
BRANCH   1   3
ATOM      3  N   UNL     1       1.875   7.923  19.549  0.00  0.00    +0.000 NA
ATOM      4  C   UNL     1       2.605   7.027  18.957  0.00  0.00    +0.000 C 
ATOM      5  C   UNL     1       3.478   7.255  17.772  0.00  0.00    +0.000 C 
ATOM      6  C   UNL     1       4.198   6.280  17.217  0.00  0.00    +0.000 C 
ATOM      7  C   UNL     1       4.179   4.901  17.731  0.00  0.00    +0.000 C 
ATOM      8  O   UNL     1       4.866   4.047  17.170  0.00  0.00    +0.000 OA
ATOM      9  C   UNL     1       3.323   4.621  18.907  0.00  0.00    +0.000 A 
ATOM     10  N   UNL     1       3.324   3.334  19.354  0.00  0.00    +0.000 NA
ATOM     11  C   UNL     1       2.551   3.053  20.423  0.00  0.00    +0.000 A 
ATOM     12  C   UNL     1       1.774   3.997  21.073  0.00  0.00    +0.000 A 
ATOM     13  C   UNL     1       1.788   5.307  20.598  0.00  0.00    +0.000 A 
ATOM     14  C   UNL     1       2.579   5.637  19.489  0.00  0.00    +0.000 A 
ENDBRANCH   1   3
BRANCH   1  21
ATOM     15  C   UNL     1      -4.974  11.807  16.963  0.00  0.00    +0.000 C 
ATOM     16  C   UNL     1      -3.657  11.359  17.486  0.00  0.00    +0.000 A 
ATOM     17  N   UNL     1      -3.173  11.705  18.657  0.00  0.00    +0.000 NA
ATOM     18  C   UNL     1      -1.934  11.120  18.840  0.00  0.00    +0.000 A 
ATOM     19  C   UNL     1      -1.120  11.267  19.980  0.00  0.00    +0.000 A 
ATOM     20  C   UNL     1       0.110  10.610  20.037  0.00  0.00    +0.000 A 
ATOM     21  C   UNL     1       0.579   9.840  18.975  0.00  0.00    +0.000 A 
ATOM     22  C   UNL     1      -0.230   9.670  17.835  0.00  0.00    +0.000 A 
ATOM     23  C   UNL     1      -1.478  10.324  17.792  0.00  0.00    +0.000 A 
ATOM     24  S   UNL     1      -2.668  10.324  16.540  0.00  0.00    +0.000 S 
ENDBRANCH   1  21
TORSDOF 2
ENDMDL
MODEL 6
REMARK VINA RESULT:      -8.0      1.702      2.325
REMARK  Name = 
REMARK  3 active torsions:
REMARK  status: ('A' for Active; 'I' for Inactive)
REMARK    1  A    between atoms: C_1  and  C_2
REMARK    2  A    between atoms: C_7  and  N_8
REMARK    3  A    between atoms: N_8  and  N_9
REMARK                            x       y       z     vdW  Elec       q    Type
REMARK                         _______ _______ _______ _____ _____    ______ ____
ROOT
ATOM      1  N   UNL     1       2.369   8.479  18.339  0.00  0.00    +0.000 N 
ATOM      2  H   UNL     1       3.230   8.943  18.075  0.00  0.00    +0.000 HD
ENDROOT
BRANCH   1   3
ATOM      3  N   UNL     1       2.236   7.135  18.419  0.00  0.00    +0.000 NA
ATOM      4  C   UNL     1       3.127   6.365  17.871  0.00  0.00    +0.000 C 
ATOM      5  C   UNL     1       4.368   6.818  17.182  0.00  0.00    +0.000 C 
ATOM      6  C   UNL     1       5.237   5.964  16.640  0.00  0.00    +0.000 C 
ATOM      7  C   UNL     1       5.028   4.507  16.674  0.00  0.00    +0.000 C 
ATOM      8  O   UNL     1       5.868   3.774  16.152  0.00  0.00    +0.000 OA
ATOM      9  C   UNL     1       3.806   4.006  17.344  0.00  0.00    +0.000 A 
ATOM     10  N   UNL     1       3.641   2.653  17.354  0.00  0.00    +0.000 NA
ATOM     11  C   UNL     1       2.535   2.171  17.956  0.00  0.00    +0.000 A 
ATOM     12  C   UNL     1       1.581   2.976  18.555  0.00  0.00    +0.000 A 
ATOM     13  C   UNL     1       1.769   4.357  18.533  0.00  0.00    +0.000 A 
ATOM     14  C   UNL     1       2.906   4.894  17.916  0.00  0.00    +0.000 A 
ENDBRANCH   1   3
BRANCH   1  21
ATOM     15  C   UNL     1      -2.201  11.828  23.375  0.00  0.00    +0.000 C 
ATOM     16  C   UNL     1      -1.344  11.262  22.299  0.00  0.00    +0.000 A 
ATOM     17  N   UNL     1      -1.276  11.747  21.080  0.00  0.00    +0.000 NA
ATOM     18  C   UNL     1      -0.390  10.996  20.330  0.00  0.00    +0.000 A 
ATOM     19  C   UNL     1      -0.064  11.224  18.980  0.00  0.00    +0.000 A 
ATOM     20  C   UNL     1       0.857  10.390  18.343  0.00  0.00    +0.000 A 
ATOM     21  C   UNL     1       1.437   9.306  18.997  0.00  0.00    +0.000 A 
ATOM     22  C   UNL     1       1.134   9.075  20.353  0.00  0.00    +0.000 A 
ATOM     23  C   UNL     1       0.215   9.930  20.993  0.00  0.00    +0.000 A 
ATOM     24  S   UNL     1      -0.365   9.890  22.619  0.00  0.00    +0.000 S 
ENDBRANCH   1  21
TORSDOF 2
ENDMDL
MODEL 7
REMARK VINA RESULT:      -8.0      1.714      2.843
REMARK  Name = 
REMARK  3 active torsions:
REMARK  status: ('A' for Active; 'I' for Inactive)
REMARK    1  A    between atoms: C_1  and  C_2
REMARK    2  A    between atoms: C_7  and  N_8
REMARK    3  A    between atoms: N_8  and  N_9
REMARK                            x       y       z     vdW  Elec       q    Type
REMARK                         _______ _______ _______ _____ _____    ______ ____
ROOT
ATOM      1  N   UNL     1       1.459   7.369  21.200  0.00  0.00    +0.000 N 
ATOM      2  H   UNL     1       1.034   6.727  21.858  0.00  0.00    +0.000 HD
ENDROOT
BRANCH   1   3
ATOM      3  N   UNL     1       2.202   6.976  20.140  0.00  0.00    +0.000 NA
ATOM      4  C   UNL     1       2.232   5.722  19.804  0.00  0.00    +0.000 C 
ATOM      5  C   UNL     1       1.459   4.625  20.450  0.00  0.00    +0.000 C 
ATOM      6  C   UNL     1       1.546   3.357  20.049  0.00  0.00    +0.000 C 
ATOM      7  C   UNL     1       2.422   2.944  18.940  0.00  0.00    +0.000 C 
ATOM      8  O   UNL     1       2.457   1.756  18.621  0.00  0.00    +0.000 OA
ATOM      9  C   UNL     1       3.216   3.998  18.267  0.00  0.00    +0.000 A 
ATOM     10  N   UNL     1       4.019   3.582  17.248  0.00  0.00    +0.000 NA
ATOM     11  C   UNL     1       4.754   4.521  16.619  0.00  0.00    +0.000 A 
ATOM     12  C   UNL     1       4.727   5.864  16.957  0.00  0.00    +0.000 A 
ATOM     13  C   UNL     1       3.897   6.267  18.003  0.00  0.00    +0.000 A 
ATOM     14  C   UNL     1       3.119   5.319  18.679  0.00  0.00    +0.000 A 
ENDBRANCH   1   3
BRANCH   1  21
ATOM     15  C   UNL     1      -0.744  14.428  19.534  0.00  0.00    +0.000 C 
ATOM     16  C   UNL     1      -0.375  13.058  19.977  0.00  0.00    +0.000 A 
ATOM     17  N   UNL     1      -0.720  12.540  21.134  0.00  0.00    +0.000 NA
ATOM     18  C   UNL     1      -0.221  11.254  21.234  0.00  0.00    +0.000 A 
ATOM     19  C   UNL     1      -0.396  10.393  22.335  0.00  0.00    +0.000 A 
ATOM     20  C   UNL     1       0.157   9.112  22.300  0.00  0.00    +0.000 A 
ATOM     21  C   UNL     1       0.915   8.669  21.218  0.00  0.00    +0.000 A 
ATOM     22  C   UNL     1       1.083   9.512  20.103  0.00  0.00    +0.000 A 
ATOM     23  C   UNL     1       0.509  10.799  20.139  0.00  0.00    +0.000 A 
ATOM     24  S   UNL     1       0.559  12.050  18.949  0.00  0.00    +0.000 S 
ENDBRANCH   1  21
TORSDOF 2
ENDMDL
MODEL 8
REMARK VINA RESULT:      -8.0      1.089      1.524
REMARK  Name = 
REMARK  3 active torsions:
REMARK  status: ('A' for Active; 'I' for Inactive)
REMARK    1  A    between atoms: C_1  and  C_2
REMARK    2  A    between atoms: C_7  and  N_8
REMARK    3  A    between atoms: N_8  and  N_9
REMARK                            x       y       z     vdW  Elec       q    Type
REMARK                         _______ _______ _______ _____ _____    ______ ____
ROOT
ATOM      1  N   UNL     1       2.092   7.952  20.969  0.00  0.00    +0.000 N 
ATOM      2  H   UNL     1       2.876   8.228  21.549  0.00  0.00    +0.000 HD
ENDROOT
BRANCH   1   3
ATOM      3  N   UNL     1       1.790   6.666  20.679  0.00  0.00    +0.000 NA
ATOM      4  C   UNL     1       2.380   6.074  19.685  0.00  0.00    +0.000 C 
ATOM      5  C   UNL     1       3.444   6.662  18.824  0.00  0.00    +0.000 C 
ATOM      6  C   UNL     1       4.001   5.989  17.817  0.00  0.00    +0.000 C 
ATOM      7  C   UNL     1       3.599   4.615  17.475  0.00  0.00    +0.000 C 
ATOM      8  O   UNL     1       4.152   4.052  16.530  0.00  0.00    +0.000 OA
ATOM      9  C   UNL     1       2.540   3.987  18.299  0.00  0.00    +0.000 A 
ATOM     10  N   UNL     1       2.188   2.717  17.953  0.00  0.00    +0.000 NA
ATOM     11  C   UNL     1       1.225   2.122  18.686  0.00  0.00    +0.000 A 
ATOM     12  C   UNL     1       0.593   2.735  19.755  0.00  0.00    +0.000 A 
ATOM     13  C   UNL     1       0.969   4.034  20.092  0.00  0.00    +0.000 A 
ATOM     14  C   UNL     1       1.966   4.684  19.352  0.00  0.00    +0.000 A 
ENDBRANCH   1   3
BRANCH   1  21
ATOM     15  C   UNL     1      -3.162  13.321  21.984  0.00  0.00    +0.000 C 
ATOM     16  C   UNL     1      -2.145  12.287  21.655  0.00  0.00    +0.000 A 
ATOM     17  N   UNL     1      -1.785  11.972  20.431  0.00  0.00    +0.000 NA
ATOM     18  C   UNL     1      -0.822  10.981  20.471  0.00  0.00    +0.000 A 
ATOM     19  C   UNL     1      -0.202  10.398  19.349  0.00  0.00    +0.000 A 
ATOM     20  C   UNL     1       0.765   9.408  19.534  0.00  0.00    +0.000 A 
ATOM     21  C   UNL     1       1.109   8.948  20.803  0.00  0.00    +0.000 A 
ATOM     22  C   UNL     1       0.511   9.534  21.935  0.00  0.00    +0.000 A 
ATOM     23  C   UNL     1      -0.453  10.543  21.741  0.00  0.00    +0.000 A 
ATOM     24  S   UNL     1      -1.363  11.425  22.915  0.00  0.00    +0.000 S 
ENDBRANCH   1  21
TORSDOF 2
ENDMDL
MODEL 9
REMARK VINA RESULT:      -8.0      3.072      4.574
REMARK  Name = 
REMARK  3 active torsions:
REMARK  status: ('A' for Active; 'I' for Inactive)
REMARK    1  A    between atoms: C_1  and  C_2
REMARK    2  A    between atoms: C_7  and  N_8
REMARK    3  A    between atoms: N_8  and  N_9
REMARK                            x       y       z     vdW  Elec       q    Type
REMARK                         _______ _______ _______ _____ _____    ______ ____
ROOT
ATOM      1  N   UNL     1       2.830   6.200  18.984  0.00  0.00    +0.000 N 
ATOM      2  H   UNL     1       2.479   5.537  19.666  0.00  0.00    +0.000 HD
ENDROOT
BRANCH   1   3
ATOM      3  N   UNL     1       3.533   5.843  17.885  0.00  0.00    +0.000 NA
ATOM      4  C   UNL     1       4.774   5.480  18.002  0.00  0.00    +0.000 C 
ATOM      5  C   UNL     1       5.530   5.352  19.280  0.00  0.00    +0.000 C 
ATOM      6  C   UNL     1       6.808   4.976  19.319  0.00  0.00    +0.000 C 
ATOM      7  C   UNL     1       7.572   4.666  18.099  0.00  0.00    +0.000 C 
ATOM      8  O   UNL     1       8.750   4.327  18.206  0.00  0.00    +0.000 OA
ATOM      9  C   UNL     1       6.867   4.784  16.802  0.00  0.00    +0.000 A 
ATOM     10  N   UNL     1       7.603   4.495  15.692  0.00  0.00    +0.000 NA
ATOM     11  C   UNL     1       6.985   4.595  14.498  0.00  0.00    +0.000 A 
ATOM     12  C   UNL     1       5.659   4.970  14.355  0.00  0.00    +0.000 A 
ATOM     13  C   UNL     1       4.925   5.261  15.503  0.00  0.00    +0.000 A 
ATOM     14  C   UNL     1       5.534   5.167  16.761  0.00  0.00    +0.000 A 
ENDBRANCH   1   3
BRANCH   1  21
ATOM     15  C   UNL     1      -0.703  12.569  21.081  0.00  0.00    +0.000 C 
ATOM     16  C   UNL     1       0.001  11.373  20.549  0.00  0.00    +0.000 A 
ATOM     17  N   UNL     1       0.424  11.258  19.311  0.00  0.00    +0.000 NA
ATOM     18  C   UNL     1       1.037  10.030  19.141  0.00  0.00    +0.000 A 
ATOM     19  C   UNL     1       1.610   9.561  17.944  0.00  0.00    +0.000 A 
ATOM     20  C   UNL     1       2.207   8.299  17.915  0.00  0.00    +0.000 A 
ATOM     21  C   UNL     1       2.217   7.468  19.032  0.00  0.00    +0.000 A 
ATOM     22  C   UNL     1       1.663   7.930  20.241  0.00  0.00    +0.000 A 
ATOM     23  C   UNL     1       1.076   9.210  20.267  0.00  0.00    +0.000 A 
ATOM     24  S   UNL     1       0.308  10.034  21.577  0.00  0.00    +0.000 S 
ENDBRANCH   1  21
TORSDOF 2
ENDMDL
