MODEL 1
REMARK VINA RESULT:      -8.2      0.000      0.000
REMARK  Name = 
REMARK  10 active torsions:
REMARK  status: ('A' for Active; 'I' for Inactive)
REMARK    1  A    between atoms: C_1  and  O_2
REMARK    2  A    between atoms: O_2  and  C_3
REMARK    3  A    between atoms: C_5  and  C_6
REMARK    4  A    between atoms: C_6  and  C_8
REMARK    5  A    between atoms: C_11  and  C_12
REMARK    6  A    between atoms: C_15  and  C_16
REMARK    7  A    between atoms: C_21  and  O_22
REMARK    8  A    between atoms: O_22  and  C_23
REMARK    9  A    between atoms: C_24  and  O_25
REMARK   10  A    between atoms: O_25  and  C_26
REMARK                            x       y       z     vdW  Elec       q    Type
REMARK                         _______ _______ _______ _____ _____    ______ ____
ROOT
ATOM      1  C   UNL     1       6.288   5.983  16.424  0.00  0.00    +0.000 C 
ATOM      2  O   UNL     1       6.631   5.644  15.283  0.00  0.00    +0.000 OA
ENDROOT
BRANCH   1   5
ATOM      3  C   UNL     1       3.335   3.793  17.385  0.00  0.00    +0.000 A 
ATOM      4  C   UNL     1       4.503   4.258  16.753  0.00  0.00    +0.000 A 
ATOM      5  C   UNL     1       4.933   5.573  16.905  0.00  0.00    +0.000 A 
ATOM      6  C   UNL     1       4.094   6.480  17.548  0.00  0.00    +0.000 A 
ATOM      7  C   UNL     1       2.862   6.062  18.093  0.00  0.00    +0.000 A 
ATOM      8  C   UNL     1       2.470   4.702  18.026  0.00  0.00    +0.000 A 
BRANCH   3  10
ATOM      9  C   UNL     1       3.581   1.714  18.486  0.00  0.00    +0.000 C 
ATOM     10  O   UNL     1       3.058   2.448  17.368  0.00  0.00    +0.000 OA
ENDBRANCH   3  10
BRANCH   7  11
ATOM     11  O   UNL     1       2.198   7.110  18.688  0.00  0.00    +0.000 OA
ATOM     12  C   UNL     1       2.041   8.338  17.990  0.00  0.00    +0.000 C 
ENDBRANCH   7  11
BRANCH   8  13
ATOM     13  O   UNL     1       1.265   4.407  18.599  0.00  0.00    +0.000 OA
ATOM     14  C   UNL     1       1.138   4.016  19.953  0.00  0.00    +0.000 C 
ENDBRANCH   8  13
ENDBRANCH   1   5
BRANCH   1  15
ATOM     15  C   UNL     1       7.115   6.774  17.321  0.00  0.00    +0.000 A 
ATOM     16  N   UNL     1       7.800   6.302  18.344  0.00  0.00    +0.000 NA
ATOM     17  N   UNL     1       8.485   7.363  18.883  0.00  0.00    +0.000 NA
ATOM     18  C   UNL     1       8.171   8.425  18.163  0.00  0.00    +0.000 A 
ATOM     19  O   UNL     1       7.288   8.130  17.149  0.00  0.00    +0.000 OA
BRANCH  18  20
ATOM     20  C   UNL     1       8.633   9.801  18.330  0.00  0.00    +0.000 A 
ATOM     21  C   UNL     1       9.506  10.096  19.391  0.00  0.00    +0.000 A 
ATOM     22  C   UNL     1       9.929  11.406  19.644  0.00  0.00    +0.000 A 
ATOM     23  C   UNL     1       9.489  12.457  18.837  0.00  0.00    +0.000 A 
ATOM     24  C   UNL     1       9.884  13.873  19.138  0.00  0.00    +0.000 C 
ATOM     25  C   UNL     1       8.650  12.167  17.754  0.00  0.00    +0.000 A 
ATOM     26  C   UNL     1       8.228  10.853  17.499  0.00  0.00    +0.000 A 
ENDBRANCH  18  20
ENDBRANCH   1  15
TORSDOF 6
ENDMDL
MODEL 2
REMARK VINA RESULT:      -8.0      1.870      3.069
REMARK  Name = 
REMARK  10 active torsions:
REMARK  status: ('A' for Active; 'I' for Inactive)
REMARK    1  A    between atoms: C_1  and  O_2
REMARK    2  A    between atoms: O_2  and  C_3
REMARK    3  A    between atoms: C_5  and  C_6
REMARK    4  A    between atoms: C_6  and  C_8
REMARK    5  A    between atoms: C_11  and  C_12
REMARK    6  A    between atoms: C_15  and  C_16
REMARK    7  A    between atoms: C_21  and  O_22
REMARK    8  A    between atoms: O_22  and  C_23
REMARK    9  A    between atoms: C_24  and  O_25
REMARK   10  A    between atoms: O_25  and  C_26
REMARK                            x       y       z     vdW  Elec       q    Type
REMARK                         _______ _______ _______ _____ _____    ______ ____
ROOT
ATOM      1  C   UNL     1       7.761   5.851  18.870  0.00  0.00    +0.000 C 
ATOM      2  O   UNL     1       8.571   5.206  19.550  0.00  0.00    +0.000 OA
ENDROOT
BRANCH   1   5
ATOM      3  C   UNL     1       4.173   4.607  18.976  0.00  0.00    +0.000 A 
ATOM      4  C   UNL     1       5.452   5.029  19.382  0.00  0.00    +0.000 A 
ATOM      5  C   UNL     1       6.488   5.181  18.464  0.00  0.00    +0.000 A 
ATOM      6  C   UNL     1       6.295   4.734  17.159  0.00  0.00    +0.000 A 
ATOM      7  C   UNL     1       5.054   4.199  16.756  0.00  0.00    +0.000 A 
ATOM      8  C   UNL     1       3.967   4.138  17.664  0.00  0.00    +0.000 A 
BRANCH   3  10
ATOM      9  C   UNL     1       2.427   5.909  19.899  0.00  0.00    +0.000 C 
ATOM     10  O   UNL     1       3.137   4.661  19.876  0.00  0.00    +0.000 OA
ENDBRANCH   3  10
BRANCH   7  11
ATOM     11  O   UNL     1       5.076   3.828  15.431  0.00  0.00    +0.000 OA
ATOM     12  C   UNL     1       6.266   3.986  14.670  0.00  0.00    +0.000 C 
ENDBRANCH   7  11
BRANCH   8  13
ATOM     13  O   UNL     1       2.809   3.616  17.162  0.00  0.00    +0.000 OA
ATOM     14  C   UNL     1       2.313   2.347  17.545  0.00  0.00    +0.000 C 
ENDBRANCH   8  13
ENDBRANCH   1   5
BRANCH   1  15
ATOM     15  C   UNL     1       7.981   7.216  18.422  0.00  0.00    +0.000 A 
ATOM     16  N   UNL     1       7.471   7.755  17.332  0.00  0.00    +0.000 NA
ATOM     17  N   UNL     1       7.875   9.067  17.315  0.00  0.00    +0.000 NA
ATOM     18  C   UNL     1       8.617   9.252  18.391  0.00  0.00    +0.000 A 
ATOM     19  O   UNL     1       8.742   8.108  19.146  0.00  0.00    +0.000 OA
BRANCH  18  20
ATOM     20  C   UNL     1       9.286  10.475  18.830  0.00  0.00    +0.000 A 
ATOM     21  C   UNL     1       9.695  11.406  17.861  0.00  0.00    +0.000 A 
ATOM     22  C   UNL     1      10.401  12.562  18.213  0.00  0.00    +0.000 A 
ATOM     23  C   UNL     1      10.714  12.817  19.549  0.00  0.00    +0.000 A 
ATOM     24  C   UNL     1      11.526  14.020  19.931  0.00  0.00    +0.000 C 
ATOM     25  C   UNL     1      10.277  11.915  20.527  0.00  0.00    +0.000 A 
ATOM     26  C   UNL     1       9.566  10.757  20.173  0.00  0.00    +0.000 A 
ENDBRANCH  18  20
ENDBRANCH   1  15
TORSDOF 6
ENDMDL
MODEL 3
REMARK VINA RESULT:      -7.9      0.220      2.539
REMARK  Name = 
REMARK  10 active torsions:
REMARK  status: ('A' for Active; 'I' for Inactive)
REMARK    1  A    between atoms: C_1  and  O_2
REMARK    2  A    between atoms: O_2  and  C_3
REMARK    3  A    between atoms: C_5  and  C_6
REMARK    4  A    between atoms: C_6  and  C_8
REMARK    5  A    between atoms: C_11  and  C_12
REMARK    6  A    between atoms: C_15  and  C_16
REMARK    7  A    between atoms: C_21  and  O_22
REMARK    8  A    between atoms: O_22  and  C_23
REMARK    9  A    between atoms: C_24  and  O_25
REMARK   10  A    between atoms: O_25  and  C_26
REMARK                            x       y       z     vdW  Elec       q    Type
REMARK                         _______ _______ _______ _____ _____    ______ ____
ROOT
ATOM      1  C   UNL     1       6.253   6.141  16.581  0.00  0.00    +0.000 C 
ATOM      2  O   UNL     1       6.498   5.861  15.400  0.00  0.00    +0.000 OA
ENDROOT
BRANCH   1   5
ATOM      3  C   UNL     1       2.805   6.135  18.175  0.00  0.00    +0.000 A 
ATOM      4  C   UNL     1       4.103   6.528  17.805  0.00  0.00    +0.000 A 
ATOM      5  C   UNL     1       4.975   5.644  17.175  0.00  0.00    +0.000 A 
ATOM      6  C   UNL     1       4.609   4.304  17.075  0.00  0.00    +0.000 A 
ATOM      7  C   UNL     1       3.354   3.862  17.543  0.00  0.00    +0.000 A 
ATOM      8  C   UNL     1       2.426   4.780  18.094  0.00  0.00    +0.000 A 
BRANCH   3  10
ATOM      9  C   UNL     1       2.045   8.366  17.967  0.00  0.00    +0.000 C 
ATOM     10  O   UNL     1       1.918   7.089  18.612  0.00  0.00    +0.000 OA
ENDBRANCH   3  10
BRANCH   7  11
ATOM     11  O   UNL     1       3.194   2.510  17.341  0.00  0.00    +0.000 OA
ATOM     12  C   UNL     1       3.584   1.589  18.351  0.00  0.00    +0.000 C 
ENDBRANCH   7  11
BRANCH   8  13
ATOM     13  O   UNL     1       1.237   4.244  18.501  0.00  0.00    +0.000 OA
ATOM     14  C   UNL     1       1.005   3.822  19.831  0.00  0.00    +0.000 C 
ENDBRANCH   8  13
ENDBRANCH   1   5
BRANCH   1  15
ATOM     15  C   UNL     1       7.125   6.942  17.424  0.00  0.00    +0.000 A 
ATOM     16  N   UNL     1       7.857   6.485  18.422  0.00  0.00    +0.000 NA
ATOM     17  N   UNL     1       8.570   7.552  18.909  0.00  0.00    +0.000 NA
ATOM     18  C   UNL     1       8.226   8.602  18.188  0.00  0.00    +0.000 A 
ATOM     19  O   UNL     1       7.294   8.295  17.222  0.00  0.00    +0.000 OA
BRANCH  18  20
ATOM     20  C   UNL     1       8.701   9.979  18.310  0.00  0.00    +0.000 A 
ATOM     21  C   UNL     1       9.646  10.282  19.304  0.00  0.00    +0.000 A 
ATOM     22  C   UNL     1      10.087  11.593  19.515  0.00  0.00    +0.000 A 
ATOM     23  C   UNL     1       9.593  12.638  18.732  0.00  0.00    +0.000 A 
ATOM     24  C   UNL     1      10.011  14.056  18.992  0.00  0.00    +0.000 C 
ATOM     25  C   UNL     1       8.680  12.340  17.712  0.00  0.00    +0.000 A 
ATOM     26  C   UNL     1       8.240  11.024  17.500  0.00  0.00    +0.000 A 
ENDBRANCH  18  20
ENDBRANCH   1  15
TORSDOF 6
ENDMDL
MODEL 4
REMARK VINA RESULT:      -7.8      1.636      1.847
REMARK  Name = 
REMARK  10 active torsions:
REMARK  status: ('A' for Active; 'I' for Inactive)
REMARK    1  A    between atoms: C_1  and  O_2
REMARK    2  A    between atoms: O_2  and  C_3
REMARK    3  A    between atoms: C_5  and  C_6
REMARK    4  A    between atoms: C_6  and  C_8
REMARK    5  A    between atoms: C_11  and  C_12
REMARK    6  A    between atoms: C_15  and  C_16
REMARK    7  A    between atoms: C_21  and  O_22
REMARK    8  A    between atoms: O_22  and  C_23
REMARK    9  A    between atoms: C_24  and  O_25
REMARK   10  A    between atoms: O_25  and  C_26
REMARK                            x       y       z     vdW  Elec       q    Type
REMARK                         _______ _______ _______ _____ _____    ______ ____
ROOT
ATOM      1  C   UNL     1       7.219   5.550  18.432  0.00  0.00    +0.000 C 
ATOM      2  O   UNL     1       8.060   4.661  18.626  0.00  0.00    +0.000 OA
ENDROOT
BRANCH   1   5
ATOM      3  C   UNL     1       4.068   3.543  19.124  0.00  0.00    +0.000 A 
ATOM      4  C   UNL     1       5.392   3.874  18.782  0.00  0.00    +0.000 A 
ATOM      5  C   UNL     1       5.773   5.194  18.560  0.00  0.00    +0.000 A 
ATOM      6  C   UNL     1       4.784   6.174  18.503  0.00  0.00    +0.000 A 
ATOM      7  C   UNL     1       3.431   5.847  18.731  0.00  0.00    +0.000 A 
ATOM      8  C   UNL     1       3.055   4.520  19.056  0.00  0.00    +0.000 A 
BRANCH   3  10
ATOM      9  C   UNL     1       3.537   1.338  18.452  0.00  0.00    +0.000 C 
ATOM     10  O   UNL     1       3.784   2.260  19.524  0.00  0.00    +0.000 OA
ENDBRANCH   3  10
BRANCH   7  11
ATOM     11  O   UNL     1       2.626   6.959  18.636  0.00  0.00    +0.000 OA
ATOM     12  C   UNL     1       2.981   8.019  17.758  0.00  0.00    +0.000 C 
ENDBRANCH   7  11
BRANCH   8  13
ATOM     13  O   UNL     1       1.721   4.321  19.271  0.00  0.00    +0.000 OA
ATOM     14  C   UNL     1       1.163   4.216  20.566  0.00  0.00    +0.000 C 
ENDBRANCH   8  13
ENDBRANCH   1   5
BRANCH   1  15
ATOM     15  C   UNL     1       7.551   6.916  18.065  0.00  0.00    +0.000 A 
ATOM     16  N   UNL     1       7.092   7.558  17.008  0.00  0.00    +0.000 NA
ATOM     17  N   UNL     1       7.601   8.831  17.068  0.00  0.00    +0.000 NA
ATOM     18  C   UNL     1       8.349   8.893  18.154  0.00  0.00    +0.000 A 
ATOM     19  O   UNL     1       8.377   7.700  18.841  0.00  0.00    +0.000 OA
BRANCH  18  20
ATOM     20  C   UNL     1       9.113  10.029  18.664  0.00  0.00    +0.000 A 
ATOM     21  C   UNL     1       9.800  10.847  17.751  0.00  0.00    +0.000 A 
ATOM     22  C   UNL     1      10.603  11.908  18.183  0.00  0.00    +0.000 A 
ATOM     23  C   UNL     1      10.737  12.181  19.545  0.00  0.00    +0.000 A 
ATOM     24  C   UNL     1      11.646  13.275  20.023  0.00  0.00    +0.000 C 
ATOM     25  C   UNL     1      10.026  11.396  20.462  0.00  0.00    +0.000 A 
ATOM     26  C   UNL     1       9.218  10.333  20.027  0.00  0.00    +0.000 A 
ENDBRANCH  18  20
ENDBRANCH   1  15
TORSDOF 6
ENDMDL
MODEL 5
REMARK VINA RESULT:      -7.7      1.515      1.534
REMARK  Name = 
REMARK  10 active torsions:
REMARK  status: ('A' for Active; 'I' for Inactive)
REMARK    1  A    between atoms: C_1  and  O_2
REMARK    2  A    between atoms: O_2  and  C_3
REMARK    3  A    between atoms: C_5  and  C_6
REMARK    4  A    between atoms: C_6  and  C_8
REMARK    5  A    between atoms: C_11  and  C_12
REMARK    6  A    between atoms: C_15  and  C_16
REMARK    7  A    between atoms: C_21  and  O_22
REMARK    8  A    between atoms: O_22  and  C_23
REMARK    9  A    between atoms: C_24  and  O_25
REMARK   10  A    between atoms: O_25  and  C_26
REMARK                            x       y       z     vdW  Elec       q    Type
REMARK                         _______ _______ _______ _____ _____    ______ ____
ROOT
ATOM      1  C   UNL     1       7.025   5.501  18.344  0.00  0.00    +0.000 C 
ATOM      2  O   UNL     1       7.840   4.597  18.575  0.00  0.00    +0.000 OA
ENDROOT
BRANCH   1   5
ATOM      3  C   UNL     1       3.772   3.557  18.079  0.00  0.00    +0.000 A 
ATOM      4  C   UNL     1       5.086   3.998  17.843  0.00  0.00    +0.000 A 
ATOM      5  C   UNL     1       5.569   5.173  18.413  0.00  0.00    +0.000 A 
ATOM      6  C   UNL     1       4.674   6.007  19.080  0.00  0.00    +0.000 A 
ATOM      7  C   UNL     1       3.322   5.640  19.233  0.00  0.00    +0.000 A 
ATOM      8  C   UNL     1       2.853   4.397  18.739  0.00  0.00    +0.000 A 
BRANCH   3  10
ATOM      9  C   UNL     1       3.712   1.247  18.585  0.00  0.00    +0.000 C 
ATOM     10  O   UNL     1       3.404   2.302  17.661  0.00  0.00    +0.000 OA
ENDBRANCH   3  10
BRANCH   7  11
ATOM     11  O   UNL     1       2.619   6.599  19.926  0.00  0.00    +0.000 OA
ATOM     12  C   UNL     1       2.160   7.765  19.256  0.00  0.00    +0.000 C 
ENDBRANCH   7  11
BRANCH   8  13
ATOM     13  O   UNL     1       1.529   4.138  18.956  0.00  0.00    +0.000 OA
ATOM     14  C   UNL     1       1.063   3.438  20.094  0.00  0.00    +0.000 C 
ENDBRANCH   8  13
ENDBRANCH   1   5
BRANCH   1  15
ATOM     15  C   UNL     1       7.398   6.860  17.989  0.00  0.00    +0.000 A 
ATOM     16  N   UNL     1       6.963   7.522  16.934  0.00  0.00    +0.000 NA
ATOM     17  N   UNL     1       7.507   8.780  17.006  0.00  0.00    +0.000 NA
ATOM     18  C   UNL     1       8.251   8.812  18.095  0.00  0.00    +0.000 A 
ATOM     19  O   UNL     1       8.242   7.615  18.774  0.00  0.00    +0.000 OA
BRANCH  18  20
ATOM     20  C   UNL     1       9.045   9.923  18.617  0.00  0.00    +0.000 A 
ATOM     21  C   UNL     1       9.113  10.109  20.009  0.00  0.00    +0.000 A 
ATOM     22  C   UNL     1       9.799  11.193  20.566  0.00  0.00    +0.000 A 
ATOM     23  C   UNL     1      10.439  12.121  19.743  0.00  0.00    +0.000 A 
ATOM     24  C   UNL     1      11.123  13.322  20.327  0.00  0.00    +0.000 C 
ATOM     25  C   UNL     1      10.410  11.923  18.357  0.00  0.00    +0.000 A 
ATOM     26  C   UNL     1       9.723  10.834  17.798  0.00  0.00    +0.000 A 
ENDBRANCH  18  20
ENDBRANCH   1  15
TORSDOF 6
ENDMDL
MODEL 6
REMARK VINA RESULT:      -7.6      1.882      2.754
REMARK  Name = 
REMARK  10 active torsions:
REMARK  status: ('A' for Active; 'I' for Inactive)
REMARK    1  A    between atoms: C_1  and  O_2
REMARK    2  A    between atoms: O_2  and  C_3
REMARK    3  A    between atoms: C_5  and  C_6
REMARK    4  A    between atoms: C_6  and  C_8
REMARK    5  A    between atoms: C_11  and  C_12
REMARK    6  A    between atoms: C_15  and  C_16
REMARK    7  A    between atoms: C_21  and  O_22
REMARK    8  A    between atoms: O_22  and  C_23
REMARK    9  A    between atoms: C_24  and  O_25
REMARK   10  A    between atoms: O_25  and  C_26
REMARK                            x       y       z     vdW  Elec       q    Type
REMARK                         _______ _______ _______ _____ _____    ______ ____
ROOT
ATOM      1  C   UNL     1       7.603   6.013  18.794  0.00  0.00    +0.000 C 
ATOM      2  O   UNL     1       8.362   5.320  19.485  0.00  0.00    +0.000 OA
ENDROOT
BRANCH   1   5
ATOM      3  C   UNL     1       5.073   4.107  16.695  0.00  0.00    +0.000 A 
ATOM      4  C   UNL     1       6.195   4.869  17.067  0.00  0.00    +0.000 A 
ATOM      5  C   UNL     1       6.310   5.412  18.344  0.00  0.00    +0.000 A 
ATOM      6  C   UNL     1       5.213   5.343  19.200  0.00  0.00    +0.000 A 
ATOM      7  C   UNL     1       4.032   4.680  18.807  0.00  0.00    +0.000 A 
ATOM      8  C   UNL     1       3.951   4.041  17.544  0.00  0.00    +0.000 A 
BRANCH   3  10
ATOM      9  C   UNL     1       6.059   3.914  14.554  0.00  0.00    +0.000 C 
ATOM     10  O   UNL     1       5.093   3.431  15.500  0.00  0.00    +0.000 OA
ENDBRANCH   3  10
BRANCH   7  11
ATOM     11  O   UNL     1       3.081   4.723  19.800  0.00  0.00    +0.000 OA
ATOM     12  C   UNL     1       2.949   3.635  20.705  0.00  0.00    +0.000 C 
ENDBRANCH   7  11
BRANCH   8  13
ATOM     13  O   UNL     1       2.765   3.418  17.275  0.00  0.00    +0.000 OA
ATOM     14  C   UNL     1       2.530   2.057  17.583  0.00  0.00    +0.000 C 
ENDBRANCH   8  13
ENDBRANCH   1   5
BRANCH   1  15
ATOM     15  C   UNL     1       7.900   7.372  18.374  0.00  0.00    +0.000 A 
ATOM     16  N   UNL     1       7.387   7.976  17.319  0.00  0.00    +0.000 NA
ATOM     17  N   UNL     1       7.881   9.257  17.320  0.00  0.00    +0.000 NA
ATOM     18  C   UNL     1       8.674   9.360  18.369  0.00  0.00    +0.000 A 
ATOM     19  O   UNL     1       8.748   8.189  19.089  0.00  0.00    +0.000 OA
BRANCH  18  20
ATOM     20  C   UNL     1       9.444  10.521  18.813  0.00  0.00    +0.000 A 
ATOM     21  C   UNL     1      10.144  11.273  17.855  0.00  0.00    +0.000 A 
ATOM     22  C   UNL     1      10.953  12.353  18.225  0.00  0.00    +0.000 A 
ATOM     23  C   UNL     1      11.080  12.711  19.568  0.00  0.00    +0.000 A 
ATOM     24  C   UNL     1      11.995  13.826  19.982  0.00  0.00    +0.000 C 
ATOM     25  C   UNL     1      10.355  11.991  20.527  0.00  0.00    +0.000 A 
ATOM     26  C   UNL     1       9.542  10.910  20.155  0.00  0.00    +0.000 A 
ENDBRANCH  18  20
ENDBRANCH   1  15
TORSDOF 6
ENDMDL
MODEL 7
REMARK VINA RESULT:      -7.6      1.575      2.903
REMARK  Name = 
REMARK  10 active torsions:
REMARK  status: ('A' for Active; 'I' for Inactive)
REMARK    1  A    between atoms: C_1  and  O_2
REMARK    2  A    between atoms: O_2  and  C_3
REMARK    3  A    between atoms: C_5  and  C_6
REMARK    4  A    between atoms: C_6  and  C_8
REMARK    5  A    between atoms: C_11  and  C_12
REMARK    6  A    between atoms: C_15  and  C_16
REMARK    7  A    between atoms: C_21  and  O_22
REMARK    8  A    between atoms: O_22  and  C_23
REMARK    9  A    between atoms: C_24  and  O_25
REMARK   10  A    between atoms: O_25  and  C_26
REMARK                            x       y       z     vdW  Elec       q    Type
REMARK                         _______ _______ _______ _____ _____    ______ ____
ROOT
ATOM      1  C   UNL     1       7.219   5.517  18.382  0.00  0.00    +0.000 C 
ATOM      2  O   UNL     1       8.051   4.609  18.515  0.00  0.00    +0.000 OA
ENDROOT
BRANCH   1   5
ATOM      3  C   UNL     1       3.430   5.783  18.280  0.00  0.00    +0.000 A 
ATOM      4  C   UNL     1       4.792   6.131  18.304  0.00  0.00    +0.000 A 
ATOM      5  C   UNL     1       5.775   5.188  18.590  0.00  0.00    +0.000 A 
ATOM      6  C   UNL     1       5.381   3.927  19.033  0.00  0.00    +0.000 A 
ATOM      7  C   UNL     1       4.016   3.590  19.126  0.00  0.00    +0.000 A 
ATOM      8  C   UNL     1       3.016   4.517  18.739  0.00  0.00    +0.000 A 
BRANCH   3  10
ATOM      9  C   UNL     1       2.542   7.969  18.459  0.00  0.00    +0.000 C 
ATOM     10  O   UNL     1       2.518   6.692  17.802  0.00  0.00    +0.000 OA
ENDBRANCH   3  10
BRANCH   7  11
ATOM     11  O   UNL     1       3.850   2.299  19.574  0.00  0.00    +0.000 OA
ATOM     12  C   UNL     1       3.704   1.236  18.642  0.00  0.00    +0.000 C 
ENDBRANCH   7  11
BRANCH   8  13
ATOM     13  O   UNL     1       1.728   4.078  18.857  0.00  0.00    +0.000 OA
ATOM     14  C   UNL     1       1.019   4.108  20.081  0.00  0.00    +0.000 C 
ENDBRANCH   8  13
ENDBRANCH   1   5
BRANCH   1  15
ATOM     15  C   UNL     1       7.556   6.882  18.014  0.00  0.00    +0.000 A 
ATOM     16  N   UNL     1       7.133   7.510  16.934  0.00  0.00    +0.000 NA
ATOM     17  N   UNL     1       7.633   8.787  17.000  0.00  0.00    +0.000 NA
ATOM     18  C   UNL     1       8.340   8.863  18.112  0.00  0.00    +0.000 A 
ATOM     19  O   UNL     1       8.349   7.678  18.812  0.00  0.00    +0.000 OA
BRANCH  18  20
ATOM     20  C   UNL     1       9.078  10.009  18.639  0.00  0.00    +0.000 A 
ATOM     21  C   UNL     1       9.145  10.188  20.031  0.00  0.00    +0.000 A 
ATOM     22  C   UNL     1       9.778  11.302  20.593  0.00  0.00    +0.000 A 
ATOM     23  C   UNL     1      10.365  12.267  19.774  0.00  0.00    +0.000 A 
ATOM     24  C   UNL     1      10.990  13.497  20.364  0.00  0.00    +0.000 C 
ATOM     25  C   UNL     1      10.339  12.078  18.386  0.00  0.00    +0.000 A 
ATOM     26  C   UNL     1       9.705  10.959  17.823  0.00  0.00    +0.000 A 
ENDBRANCH  18  20
ENDBRANCH   1  15
TORSDOF 6
ENDMDL
MODEL 8
REMARK VINA RESULT:      -7.5      0.841      2.742
REMARK  Name = 
REMARK  10 active torsions:
REMARK  status: ('A' for Active; 'I' for Inactive)
REMARK    1  A    between atoms: C_1  and  O_2
REMARK    2  A    between atoms: O_2  and  C_3
REMARK    3  A    between atoms: C_5  and  C_6
REMARK    4  A    between atoms: C_6  and  C_8
REMARK    5  A    between atoms: C_11  and  C_12
REMARK    6  A    between atoms: C_15  and  C_16
REMARK    7  A    between atoms: C_21  and  O_22
REMARK    8  A    between atoms: O_22  and  C_23
REMARK    9  A    between atoms: C_24  and  O_25
REMARK   10  A    between atoms: O_25  and  C_26
REMARK                            x       y       z     vdW  Elec       q    Type
REMARK                         _______ _______ _______ _____ _____    ______ ____
ROOT
ATOM      1  C   UNL     1       6.417   6.359  16.835  0.00  0.00    +0.000 C 
ATOM      2  O   UNL     1       6.639   5.978  15.678  0.00  0.00    +0.000 OA
ENDROOT
BRANCH   1   5
ATOM      3  C   UNL     1       2.817   6.325  18.049  0.00  0.00    +0.000 A 
ATOM      4  C   UNL     1       4.081   6.780  17.633  0.00  0.00    +0.000 A 
ATOM      5  C   UNL     1       5.157   5.906  17.499  0.00  0.00    +0.000 A 
ATOM      6  C   UNL     1       5.014   4.598  17.956  0.00  0.00    +0.000 A 
ATOM      7  C   UNL     1       3.787   4.148  18.484  0.00  0.00    +0.000 A 
ATOM      8  C   UNL     1       2.663   5.009  18.529  0.00  0.00    +0.000 A 
BRANCH   3  10
ATOM      9  C   UNL     1       2.088   8.573  17.952  0.00  0.00    +0.000 C 
ATOM     10  O   UNL     1       1.744   7.179  17.978  0.00  0.00    +0.000 OA
ENDBRANCH   3  10
BRANCH   7  11
ATOM     11  O   UNL     1       3.863   2.828  18.868  0.00  0.00    +0.000 OA
ATOM     12  C   UNL     1       3.433   1.805  17.980  0.00  0.00    +0.000 C 
ENDBRANCH   7  11
BRANCH   8  13
ATOM     13  O   UNL     1       1.522   4.463  19.046  0.00  0.00    +0.000 OA
ATOM     14  C   UNL     1       1.267   4.401  20.436  0.00  0.00    +0.000 C 
ENDBRANCH   8  13
ENDBRANCH   1   5
BRANCH   1  15
ATOM     15  C   UNL     1       7.299   7.238  17.585  0.00  0.00    +0.000 A 
ATOM     16  N   UNL     1       8.065   6.873  18.595  0.00  0.00    +0.000 NA
ATOM     17  N   UNL     1       8.774   7.986  18.973  0.00  0.00    +0.000 NA
ATOM     18  C   UNL     1       8.395   8.969  18.179  0.00  0.00    +0.000 A 
ATOM     19  O   UNL     1       7.442   8.571  17.269  0.00  0.00    +0.000 OA
BRANCH  18  20
ATOM     20  C   UNL     1       8.852  10.357  18.175  0.00  0.00    +0.000 A 
ATOM     21  C   UNL     1       8.028  11.337  17.595  0.00  0.00    +0.000 A 
ATOM     22  C   UNL     1       8.440  12.671  17.499  0.00  0.00    +0.000 A 
ATOM     23  C   UNL     1       9.689  13.060  17.985  0.00  0.00    +0.000 A 
ATOM     24  C   UNL     1      10.166  14.474  17.830  0.00  0.00    +0.000 C 
ATOM     25  C   UNL     1      10.501  12.099  18.600  0.00  0.00    +0.000 A 
ATOM     26  C   UNL     1      10.086  10.761  18.698  0.00  0.00    +0.000 A 
ENDBRANCH  18  20
ENDBRANCH   1  15
TORSDOF 6
ENDMDL
MODEL 9
REMARK VINA RESULT:      -7.5      3.339      6.381
REMARK  Name = 
REMARK  10 active torsions:
REMARK  status: ('A' for Active; 'I' for Inactive)
REMARK    1  A    between atoms: C_1  and  O_2
REMARK    2  A    between atoms: O_2  and  C_3
REMARK    3  A    between atoms: C_5  and  C_6
REMARK    4  A    between atoms: C_6  and  C_8
REMARK    5  A    between atoms: C_11  and  C_12
REMARK    6  A    between atoms: C_15  and  C_16
REMARK    7  A    between atoms: C_21  and  O_22
REMARK    8  A    between atoms: O_22  and  C_23
REMARK    9  A    between atoms: C_24  and  O_25
REMARK   10  A    between atoms: O_25  and  C_26
REMARK                            x       y       z     vdW  Elec       q    Type
REMARK                         _______ _______ _______ _____ _____    ______ ____
ROOT
ATOM      1  C   UNL     1       4.085   3.586  17.498  0.00  0.00    +0.000 C 
ATOM      2  O   UNL     1       3.713   2.406  17.419  0.00  0.00    +0.000 OA
ENDROOT
BRANCH   1   5
ATOM      3  C   UNL     1       6.300   3.947  14.433  0.00  0.00    +0.000 A 
ATOM      4  C   UNL     1       5.412   3.410  15.382  0.00  0.00    +0.000 A 
ATOM      5  C   UNL     1       5.196   4.037  16.606  0.00  0.00    +0.000 A 
ATOM      6  C   UNL     1       6.009   5.112  16.958  0.00  0.00    +0.000 A 
ATOM      7  C   UNL     1       6.986   5.600  16.066  0.00  0.00    +0.000 A 
ATOM      8  C   UNL     1       7.138   5.025  14.780  0.00  0.00    +0.000 A 
BRANCH   3  10
ATOM      9  C   UNL     1       5.082   3.454  12.465  0.00  0.00    +0.000 C 
ATOM     10  O   UNL     1       6.333   3.408  13.170  0.00  0.00    +0.000 OA
ENDBRANCH   3  10
BRANCH   7  11
ATOM     11  O   UNL     1       7.668   6.666  16.607  0.00  0.00    +0.000 OA
ATOM     12  C   UNL     1       7.625   6.899  18.008  0.00  0.00    +0.000 C 
ENDBRANCH   7  11
BRANCH   8  13
ATOM     13  O   UNL     1       8.105   5.586  13.994  0.00  0.00    +0.000 OA
ATOM     14  C   UNL     1       8.013   5.631  12.583  0.00  0.00    +0.000 C 
ENDBRANCH   8  13
ENDBRANCH   1   5
BRANCH   1  15
ATOM     15  C   UNL     1       3.519   4.556  18.420  0.00  0.00    +0.000 A 
ATOM     16  N   UNL     1       3.454   4.419  19.730  0.00  0.00    +0.000 NA
ATOM     17  N   UNL     1       2.908   5.579  20.221  0.00  0.00    +0.000 NA
ATOM     18  C   UNL     1       2.662   6.355  19.182  0.00  0.00    +0.000 A 
ATOM     19  O   UNL     1       3.016   5.765  17.990  0.00  0.00    +0.000 OA
BRANCH  18  20
ATOM     20  C   UNL     1       2.078   7.695  19.170  0.00  0.00    +0.000 A 
ATOM     21  C   UNL     1       1.509   8.194  20.354  0.00  0.00    +0.000 A 
ATOM     22  C   UNL     1       0.874   9.441  20.388  0.00  0.00    +0.000 A 
ATOM     23  C   UNL     1       0.796  10.224  19.235  0.00  0.00    +0.000 A 
ATOM     24  C   UNL     1       0.062  11.533  19.245  0.00  0.00    +0.000 C 
ATOM     25  C   UNL     1       1.395   9.752  18.060  0.00  0.00    +0.000 A 
ATOM     26  C   UNL     1       2.034   8.503  18.027  0.00  0.00    +0.000 A 
ENDBRANCH  18  20
ENDBRANCH   1  15
TORSDOF 6
ENDMDL
