MODEL 1
REMARK VINA RESULT:      -8.4      0.000      0.000
REMARK  Name = 
REMARK  9 active torsions:
REMARK  status: ('A' for Active; 'I' for Inactive)
REMARK    1  A    between atoms: C_1  and  O_2
REMARK    2  A    between atoms: O_2  and  C_3
REMARK    3  A    between atoms: C_6  and  C_7
REMARK    4  A    between atoms: C_7  and  N_8
REMARK    5  A    between atoms: N_8  and  C_9
REMARK    6  A    between atoms: C_12  and  N_13
REMARK    7  A    between atoms: N_13  and  C_14
REMARK    8  A    between atoms: C_14  and  C_15
REMARK    9  A    between atoms: C_24  and  C_25
REMARK                            x       y       z     vdW  Elec       q    Type
REMARK                         _______ _______ _______ _____ _____    ______ ____
ROOT
ATOM      1  C   UNL     1       2.932   6.959  18.876  0.00  0.00    +0.000 A 
ATOM      2  N   UNL     1       3.623   7.490  17.832  0.00  0.00    +0.000 NA
ATOM      3  N   UNL     1       4.557   6.802  17.170  0.00  0.00    +0.000 NA
ATOM      4  C   UNL     1       4.830   5.496  17.439  0.00  0.00    +0.000 A 
ATOM      5  C   UNL     1       4.117   4.860  18.481  0.00  0.00    +0.000 A 
ATOM      6  C   UNL     1       4.294   3.493  18.790  0.00  0.00    +0.000 A 
ATOM      7  C   UNL     1       3.543   2.898  19.791  0.00  0.00    +0.000 A 
ATOM      8  C   UNL     1       2.669   3.659  20.559  0.00  0.00    +0.000 A 
ATOM      9  C   UNL     1       2.497   5.006  20.311  0.00  0.00    +0.000 A 
ATOM     10  C   UNL     1       3.185   5.622  19.244  0.00  0.00    +0.000 A 
ENDROOT
BRANCH   1  11
ATOM     11  N   UNL     1       1.947   7.743  19.559  0.00  0.00    +0.000 N 
ATOM     12  H   UNL     1       1.486   7.386  20.405  0.00  0.00    +0.000 HD
BRANCH  11  13
ATOM     13  C   UNL     1       1.465   9.025  19.097  0.00  0.00    +0.000 C 
BRANCH  13  17
ATOM     14  C   UNL     1      -0.533  10.967  22.379  0.00  0.00    +0.000 A 
ATOM     15  C   UNL     1      -0.463   9.563  22.288  0.00  0.00    +0.000 A 
ATOM     16  C   UNL     1       0.191   8.958  21.224  0.00  0.00    +0.000 A 
ATOM     17  C   UNL     1       0.795   9.733  20.231  0.00  0.00    +0.000 A 
ATOM     18  C   UNL     1       0.744  11.133  20.314  0.00  0.00    +0.000 A 
ATOM     19  C   UNL     1       0.080  11.750  21.383  0.00  0.00    +0.000 A 
ATOM     20 CL   UNL     1       0.012  13.505  21.457  0.00  0.00    +0.000 Cl
BRANCH  14  22
ATOM     21  C   UNL     1      -2.526  11.912  23.390  0.00  0.00    +0.000 C 
ATOM     22  O   UNL     1      -1.185  11.581  23.401  0.00  0.00    +0.000 OA
ENDBRANCH  14  22
ENDBRANCH  13  17
ENDBRANCH  11  13
ENDBRANCH   1  11
BRANCH   4  23
ATOM     23  N   UNL     1       5.820   4.804  16.665  0.00  0.00    +0.000 N 
ATOM     24  H   UNL     1       6.817   5.031  16.750  0.00  0.00    +0.000 HD
BRANCH  23  25
ATOM     25  C   UNL     1       5.482   3.859  15.622  0.00  0.00    +0.000 C 
BRANCH  25  26
ATOM     26  C   UNL     1       6.187   4.177  14.334  0.00  0.00    +0.000 A 
ATOM     27  C   UNL     1       5.895   3.475  13.150  0.00  0.00    +0.000 A 
ATOM     28  C   UNL     1       6.599   3.763  11.978  0.00  0.00    +0.000 A 
ATOM     29  C   UNL     1       7.587   4.750  12.000  0.00  0.00    +0.000 A 
ATOM     30  N   UNL     1       7.851   5.425  13.149  0.00  0.00    +0.000 NA
ATOM     31  C   UNL     1       7.181   5.165  14.302  0.00  0.00    +0.000 A 
ENDBRANCH  25  26
ENDBRANCH  23  25
ENDBRANCH   4  23
BRANCH   8  32
ATOM     32  C   UNL     1       1.813   2.946  21.591  0.00  0.00    +0.000 C 
ATOM     33  N   UNL     1       1.101   2.355  22.449  0.00  0.00    +0.000 NA
ENDBRANCH   8  32
TORSDOF 8
ENDMDL
MODEL 2
REMARK VINA RESULT:      -8.3      1.537      2.609
REMARK  Name = 
REMARK  9 active torsions:
REMARK  status: ('A' for Active; 'I' for Inactive)
REMARK    1  A    between atoms: C_1  and  O_2
REMARK    2  A    between atoms: O_2  and  C_3
REMARK    3  A    between atoms: C_6  and  C_7
REMARK    4  A    between atoms: C_7  and  N_8
REMARK    5  A    between atoms: N_8  and  C_9
REMARK    6  A    between atoms: C_12  and  N_13
REMARK    7  A    between atoms: N_13  and  C_14
REMARK    8  A    between atoms: C_14  and  C_15
REMARK    9  A    between atoms: C_24  and  C_25
REMARK                            x       y       z     vdW  Elec       q    Type
REMARK                         _______ _______ _______ _____ _____    ______ ____
ROOT
ATOM      1  C   UNL     1       2.859   7.015  18.553  0.00  0.00    +0.000 A 
ATOM      2  N   UNL     1       3.411   7.514  17.414  0.00  0.00    +0.000 NA
ATOM      3  N   UNL     1       4.174   6.773  16.607  0.00  0.00    +0.000 NA
ATOM      4  C   UNL     1       4.391   5.447  16.820  0.00  0.00    +0.000 A 
ATOM      5  C   UNL     1       3.810   4.845  17.960  0.00  0.00    +0.000 A 
ATOM      6  C   UNL     1       3.934   3.464  18.228  0.00  0.00    +0.000 A 
ATOM      7  C   UNL     1       3.311   2.906  19.333  0.00  0.00    +0.000 A 
ATOM      8  C   UNL     1       2.630   3.713  20.236  0.00  0.00    +0.000 A 
ATOM      9  C   UNL     1       2.519   5.073  20.028  0.00  0.00    +0.000 A 
ATOM     10  C   UNL     1       3.071   5.658  18.867  0.00  0.00    +0.000 A 
ENDROOT
BRANCH   1  11
ATOM     11  N   UNL     1       2.057   7.855  19.391  0.00  0.00    +0.000 N 
ATOM     12  H   UNL     1       1.833   7.575  20.353  0.00  0.00    +0.000 HD
BRANCH  11  13
ATOM     13  C   UNL     1       1.440   9.087  18.954  0.00  0.00    +0.000 C 
BRANCH  13  17
ATOM     14  C   UNL     1      -0.476  10.917  22.348  0.00  0.00    +0.000 A 
ATOM     15  C   UNL     1      -0.440   9.518  22.189  0.00  0.00    +0.000 A 
ATOM     16  C   UNL     1       0.188   8.949  21.090  0.00  0.00    +0.000 A 
ATOM     17  C   UNL     1       0.800   9.756  20.128  0.00  0.00    +0.000 A 
ATOM     18  C   UNL     1       0.783  11.151  20.278  0.00  0.00    +0.000 A 
ATOM     19  C   UNL     1       0.145  11.732  21.382  0.00  0.00    +0.000 A 
ATOM     20 CL   UNL     1       0.121  13.482  21.541  0.00  0.00    +0.000 Cl
BRANCH  14  22
ATOM     21  C   UNL     1      -2.444  11.820  23.442  0.00  0.00    +0.000 C 
ATOM     22  O   UNL     1      -1.102  11.496  23.405  0.00  0.00    +0.000 OA
ENDBRANCH  14  22
ENDBRANCH  13  17
ENDBRANCH  11  13
ENDBRANCH   1  11
BRANCH   4  23
ATOM     23  N   UNL     1       5.191   4.700  15.892  0.00  0.00    +0.000 N 
ATOM     24  H   UNL     1       4.786   3.948  15.325  0.00  0.00    +0.000 HD
BRANCH  23  25
ATOM     25  C   UNL     1       6.628   4.849  15.797  0.00  0.00    +0.000 C 
BRANCH  25  26
ATOM     26  C   UNL     1       7.208   5.452  17.045  0.00  0.00    +0.000 A 
ATOM     27  C   UNL     1       7.443   6.835  17.145  0.00  0.00    +0.000 A 
ATOM     28  C   UNL     1       8.024   7.361  18.302  0.00  0.00    +0.000 A 
ATOM     29  C   UNL     1       8.363   6.500  19.348  0.00  0.00    +0.000 A 
ATOM     30  N   UNL     1       8.121   5.167  19.240  0.00  0.00    +0.000 NA
ATOM     31  C   UNL     1       7.556   4.630  18.126  0.00  0.00    +0.000 A 
ENDBRANCH  25  26
ENDBRANCH  23  25
ENDBRANCH   4  23
BRANCH   8  32
ATOM     32  C   UNL     1       1.900   3.044  21.389  0.00  0.00    +0.000 C 
ATOM     33  N   UNL     1       1.293   2.490  22.345  0.00  0.00    +0.000 NA
ENDBRANCH   8  32
TORSDOF 8
ENDMDL
MODEL 3
REMARK VINA RESULT:      -8.2      1.102      1.512
REMARK  Name = 
REMARK  9 active torsions:
REMARK  status: ('A' for Active; 'I' for Inactive)
REMARK    1  A    between atoms: C_1  and  O_2
REMARK    2  A    between atoms: O_2  and  C_3
REMARK    3  A    between atoms: C_6  and  C_7
REMARK    4  A    between atoms: C_7  and  N_8
REMARK    5  A    between atoms: N_8  and  C_9
REMARK    6  A    between atoms: C_12  and  N_13
REMARK    7  A    between atoms: N_13  and  C_14
REMARK    8  A    between atoms: C_14  and  C_15
REMARK    9  A    between atoms: C_24  and  C_25
REMARK                            x       y       z     vdW  Elec       q    Type
REMARK                         _______ _______ _______ _____ _____    ______ ____
ROOT
ATOM      1  C   UNL     1       3.119   6.921  18.559  0.00  0.00    +0.000 A 
ATOM      2  N   UNL     1       3.861   7.410  17.529  0.00  0.00    +0.000 NA
ATOM      3  N   UNL     1       4.872   6.725  16.989  0.00  0.00    +0.000 NA
ATOM      4  C   UNL     1       5.185   5.457  17.374  0.00  0.00    +0.000 A 
ATOM      5  C   UNL     1       4.426   4.862  18.409  0.00  0.00    +0.000 A 
ATOM      6  C   UNL     1       4.642   3.532  18.832  0.00  0.00    +0.000 A 
ATOM      7  C   UNL     1       3.847   2.973  19.820  0.00  0.00    +0.000 A 
ATOM      8  C   UNL     1       2.884   3.741  20.464  0.00  0.00    +0.000 A 
ATOM      9  C   UNL     1       2.669   5.056  20.103  0.00  0.00    +0.000 A 
ATOM     10  C   UNL     1       3.406   5.629  19.044  0.00  0.00    +0.000 A 
ENDROOT
BRANCH   1  11
ATOM     11  N   UNL     1       2.052   7.701  19.110  0.00  0.00    +0.000 N 
ATOM     12  H   UNL     1       1.605   7.428  19.994  0.00  0.00    +0.000 HD
BRANCH  11  13
ATOM     13  C   UNL     1       1.466   8.851  18.459  0.00  0.00    +0.000 C 
BRANCH  13  17
ATOM     14  C   UNL     1       0.224  11.730  21.410  0.00  0.00    +0.000 A 
ATOM     15  C   UNL     1       0.706  12.130  20.148  0.00  0.00    +0.000 A 
ATOM     16  C   UNL     1       1.095  11.185  19.210  0.00  0.00    +0.000 A 
ATOM     17  C   UNL     1       1.010   9.821  19.501  0.00  0.00    +0.000 A 
ATOM     18  C   UNL     1       0.521   9.406  20.749  0.00  0.00    +0.000 A 
ATOM     19  C   UNL     1       0.131  10.356  21.703  0.00  0.00    +0.000 A 
ATOM     20 CL   UNL     1      -0.461   9.813  23.266  0.00  0.00    +0.000 Cl
BRANCH  14  22
ATOM     21  C   UNL     1      -1.415  13.164  22.479  0.00  0.00    +0.000 C 
ATOM     22  O   UNL     1      -0.144  12.638  22.351  0.00  0.00    +0.000 OA
ENDBRANCH  14  22
ENDBRANCH  13  17
ENDBRANCH  11  13
ENDBRANCH   1  11
BRANCH   4  23
ATOM     23  N   UNL     1       6.260   4.763  16.727  0.00  0.00    +0.000 N 
ATOM     24  H   UNL     1       6.545   3.824  17.027  0.00  0.00    +0.000 HD
BRANCH  23  25
ATOM     25  C   UNL     1       7.101   5.380  15.723  0.00  0.00    +0.000 C 
BRANCH  25  26
ATOM     26  C   UNL     1       6.867   4.787  14.362  0.00  0.00    +0.000 A 
ATOM     27  C   UNL     1       5.818   3.879  14.134  0.00  0.00    +0.000 A 
ATOM     28  C   UNL     1       5.652   3.310  12.868  0.00  0.00    +0.000 A 
ATOM     29  C   UNL     1       6.535   3.656  11.843  0.00  0.00    +0.000 A 
ATOM     30  N   UNL     1       7.538   4.542  12.077  0.00  0.00    +0.000 NA
ATOM     31  C   UNL     1       7.721   5.110  13.298  0.00  0.00    +0.000 A 
ENDBRANCH  25  26
ENDBRANCH  23  25
ENDBRANCH   4  23
BRANCH   8  32
ATOM     32  C   UNL     1       1.987   3.061  21.484  0.00  0.00    +0.000 C 
ATOM     33  N   UNL     1       1.242   2.497  22.331  0.00  0.00    +0.000 NA
ENDBRANCH   8  32
TORSDOF 8
ENDMDL
MODEL 4
REMARK VINA RESULT:      -8.2      3.532      6.353
REMARK  Name = 
REMARK  9 active torsions:
REMARK  status: ('A' for Active; 'I' for Inactive)
REMARK    1  A    between atoms: C_1  and  O_2
REMARK    2  A    between atoms: O_2  and  C_3
REMARK    3  A    between atoms: C_6  and  C_7
REMARK    4  A    between atoms: C_7  and  N_8
REMARK    5  A    between atoms: N_8  and  C_9
REMARK    6  A    between atoms: C_12  and  N_13
REMARK    7  A    between atoms: N_13  and  C_14
REMARK    8  A    between atoms: C_14  and  C_15
REMARK    9  A    between atoms: C_24  and  C_25
REMARK                            x       y       z     vdW  Elec       q    Type
REMARK                         _______ _______ _______ _____ _____    ______ ____
ROOT
ATOM      1  C   UNL     1       0.026  10.440  18.808  0.00  0.00    +0.000 A 
ATOM      2  N   UNL     1       0.810   9.580  18.104  0.00  0.00    +0.000 NA
ATOM      3  N   UNL     1       1.537   8.629  18.696  0.00  0.00    +0.000 NA
ATOM      4  C   UNL     1       1.485   8.398  20.036  0.00  0.00    +0.000 A 
ATOM      5  C   UNL     1       0.654   9.221  20.830  0.00  0.00    +0.000 A 
ATOM      6  C   UNL     1       0.495   9.016  22.218  0.00  0.00    +0.000 A 
ATOM      7  C   UNL     1      -0.364   9.820  22.951  0.00  0.00    +0.000 A 
ATOM      8  C   UNL     1      -1.013  10.889  22.345  0.00  0.00    +0.000 A 
ATOM      9  C   UNL     1      -0.854  11.144  20.998  0.00  0.00    +0.000 A 
ATOM     10  C   UNL     1      -0.051  10.293  20.207  0.00  0.00    +0.000 A 
ENDROOT
BRANCH   1  11
ATOM     11  N   UNL     1      -0.726  11.450  18.125  0.00  0.00    +0.000 N 
ATOM     12  H   UNL     1      -0.532  12.446  18.286  0.00  0.00    +0.000 HD
BRANCH  11  13
ATOM     13  C   UNL     1      -1.840  11.180  17.246  0.00  0.00    +0.000 C 
BRANCH  13  17
ATOM     14  C   UNL     1      -5.578  11.747  19.306  0.00  0.00    +0.000 A 
ATOM     15  C   UNL     1      -5.460  10.844  18.231  0.00  0.00    +0.000 A 
ATOM     16  C   UNL     1      -4.244  10.674  17.585  0.00  0.00    +0.000 A 
ATOM     17  C   UNL     1      -3.117  11.389  17.995  0.00  0.00    +0.000 A 
ATOM     18  C   UNL     1      -3.215  12.283  19.073  0.00  0.00    +0.000 A 
ATOM     19  C   UNL     1      -4.441  12.465  19.726  0.00  0.00    +0.000 A 
ATOM     20 CL   UNL     1      -4.546  13.603  21.061  0.00  0.00    +0.000 Cl
BRANCH  14  22
ATOM     21  C   UNL     1      -7.556  10.939  20.454  0.00  0.00    +0.000 C 
ATOM     22  O   UNL     1      -6.763  11.945  19.941  0.00  0.00    +0.000 OA
ENDBRANCH  14  22
ENDBRANCH  13  17
ENDBRANCH  11  13
ENDBRANCH   1  11
BRANCH   4  23
ATOM     23  N   UNL     1       2.263   7.335  20.603  0.00  0.00    +0.000 N 
ATOM     24  H   UNL     1       3.197   7.507  20.993  0.00  0.00    +0.000 HD
BRANCH  23  25
ATOM     25  C   UNL     1       1.862   5.945  20.535  0.00  0.00    +0.000 C 
BRANCH  25  26
ATOM     26  C   UNL     1       2.582   5.212  19.439  0.00  0.00    +0.000 A 
ATOM     27  C   UNL     1       1.875   4.547  18.421  0.00  0.00    +0.000 A 
ATOM     28  C   UNL     1       2.571   3.836  17.440  0.00  0.00    +0.000 A 
ATOM     29  C   UNL     1       3.966   3.799  17.484  0.00  0.00    +0.000 A 
ATOM     30  N   UNL     1       4.635   4.455  18.468  0.00  0.00    +0.000 NA
ATOM     31  C   UNL     1       3.983   5.154  19.434  0.00  0.00    +0.000 A 
ENDBRANCH  25  26
ENDBRANCH  23  25
ENDBRANCH   4  23
BRANCH   8  32
ATOM     32  C   UNL     1      -2.003  11.691  23.172  0.00  0.00    +0.000 C 
ATOM     33  N   UNL     1      -2.825  12.357  23.860  0.00  0.00    +0.000 NA
ENDBRANCH   8  32
TORSDOF 8
ENDMDL
MODEL 5
REMARK VINA RESULT:      -8.2      0.997      1.044
REMARK  Name = 
REMARK  9 active torsions:
REMARK  status: ('A' for Active; 'I' for Inactive)
REMARK    1  A    between atoms: C_1  and  O_2
REMARK    2  A    between atoms: O_2  and  C_3
REMARK    3  A    between atoms: C_6  and  C_7
REMARK    4  A    between atoms: C_7  and  N_8
REMARK    5  A    between atoms: N_8  and  C_9
REMARK    6  A    between atoms: C_12  and  N_13
REMARK    7  A    between atoms: N_13  and  C_14
REMARK    8  A    between atoms: C_14  and  C_15
REMARK    9  A    between atoms: C_24  and  C_25
REMARK                            x       y       z     vdW  Elec       q    Type
REMARK                         _______ _______ _______ _____ _____    ______ ____
ROOT
ATOM      1  C   UNL     1       3.167   6.729  18.369  0.00  0.00    +0.000 A 
ATOM      2  N   UNL     1       3.922   7.108  17.303  0.00  0.00    +0.000 NA
ATOM      3  N   UNL     1       4.887   6.334  16.801  0.00  0.00    +0.000 NA
ATOM      4  C   UNL     1       5.133   5.078  17.264  0.00  0.00    +0.000 A 
ATOM      5  C   UNL     1       4.355   4.594  18.341  0.00  0.00    +0.000 A 
ATOM      6  C   UNL     1       4.501   3.284  18.848  0.00  0.00    +0.000 A 
ATOM      7  C   UNL     1       3.687   2.835  19.876  0.00  0.00    +0.000 A 
ATOM      8  C   UNL     1       2.777   3.696  20.477  0.00  0.00    +0.000 A 
ATOM      9  C   UNL     1       2.631   4.995  20.034  0.00  0.00    +0.000 A 
ATOM     10  C   UNL     1       3.387   5.456  18.934  0.00  0.00    +0.000 A 
ENDROOT
BRANCH   1  11
ATOM     11  N   UNL     1       2.151   7.601  18.877  0.00  0.00    +0.000 N 
ATOM     12  H   UNL     1       1.579   7.326  19.684  0.00  0.00    +0.000 HD
BRANCH  11  13
ATOM     13  C   UNL     1       1.789   8.864  18.274  0.00  0.00    +0.000 C 
BRANCH  13  17
ATOM     14  C   UNL     1      -0.756  10.942  21.058  0.00  0.00    +0.000 A 
ATOM     15  C   UNL     1       0.250  10.059  21.498  0.00  0.00    +0.000 A 
ATOM     16  C   UNL     1       1.063   9.404  20.583  0.00  0.00    +0.000 A 
ATOM     17  C   UNL     1       0.899   9.616  19.212  0.00  0.00    +0.000 A 
ATOM     18  C   UNL     1      -0.091  10.501  18.759  0.00  0.00    +0.000 A 
ATOM     19  C   UNL     1      -0.918  11.161  19.677  0.00  0.00    +0.000 A 
ATOM     20 CL   UNL     1      -2.164  12.251  19.086  0.00  0.00    +0.000 Cl
BRANCH  14  22
ATOM     21  C   UNL     1      -1.635  11.312  23.288  0.00  0.00    +0.000 C 
ATOM     22  O   UNL     1      -1.576  11.578  21.935  0.00  0.00    +0.000 OA
ENDBRANCH  14  22
ENDBRANCH  13  17
ENDBRANCH  11  13
ENDBRANCH   1  11
BRANCH   4  23
ATOM     23  N   UNL     1       6.160   4.285  16.654  0.00  0.00    +0.000 N 
ATOM     24  H   UNL     1       7.140   4.367  16.946  0.00  0.00    +0.000 HD
BRANCH  23  25
ATOM     25  C   UNL     1       5.919   3.435  15.507  0.00  0.00    +0.000 C 
BRANCH  25  26
ATOM     26  C   UNL     1       6.496   4.024  14.250  0.00  0.00    +0.000 A 
ATOM     27  C   UNL     1       6.202   3.477  12.988  0.00  0.00    +0.000 A 
ATOM     28  C   UNL     1       6.788   4.018  11.841  0.00  0.00    +0.000 A 
ATOM     29  C   UNL     1       7.660   5.102  11.966  0.00  0.00    +0.000 A 
ATOM     30  N   UNL     1       7.927   5.625  13.191  0.00  0.00    +0.000 NA
ATOM     31  C   UNL     1       7.370   5.118  14.323  0.00  0.00    +0.000 A 
ENDBRANCH  25  26
ENDBRANCH  23  25
ENDBRANCH   4  23
BRANCH   8  32
ATOM     32  C   UNL     1       1.855   3.135  21.546  0.00  0.00    +0.000 C 
ATOM     33  N   UNL     1       1.089   2.669  22.433  0.00  0.00    +0.000 NA
ENDBRANCH   8  32
TORSDOF 8
ENDMDL
MODEL 6
REMARK VINA RESULT:      -8.1      4.482     11.201
REMARK  Name = 
REMARK  9 active torsions:
REMARK  status: ('A' for Active; 'I' for Inactive)
REMARK    1  A    between atoms: C_1  and  O_2
REMARK    2  A    between atoms: O_2  and  C_3
REMARK    3  A    between atoms: C_6  and  C_7
REMARK    4  A    between atoms: C_7  and  N_8
REMARK    5  A    between atoms: N_8  and  C_9
REMARK    6  A    between atoms: C_12  and  N_13
REMARK    7  A    between atoms: N_13  and  C_14
REMARK    8  A    between atoms: C_14  and  C_15
REMARK    9  A    between atoms: C_24  and  C_25
REMARK                            x       y       z     vdW  Elec       q    Type
REMARK                         _______ _______ _______ _____ _____    ______ ____
ROOT
ATOM      1  C   UNL     1       0.456  10.100  20.532  0.00  0.00    +0.000 A 
ATOM      2  N   UNL     1       0.700  10.598  21.774  0.00  0.00    +0.000 NA
ATOM      3  N   UNL     1       0.032  11.643  22.268  0.00  0.00    +0.000 NA
ATOM      4  C   UNL     1      -0.995  12.237  21.600  0.00  0.00    +0.000 A 
ATOM      5  C   UNL     1      -1.339  11.743  20.320  0.00  0.00    +0.000 A 
ATOM      6  C   UNL     1      -2.426  12.260  19.581  0.00  0.00    +0.000 A 
ATOM      7  C   UNL     1      -2.756  11.717  18.349  0.00  0.00    +0.000 A 
ATOM      8  C   UNL     1      -1.971  10.717  17.789  0.00  0.00    +0.000 A 
ATOM      9  C   UNL     1      -0.878  10.212  18.465  0.00  0.00    +0.000 A 
ATOM     10  C   UNL     1      -0.566  10.686  19.758  0.00  0.00    +0.000 A 
ENDROOT
BRANCH   1  11
ATOM     11  N   UNL     1       1.208   8.983  20.045  0.00  0.00    +0.000 N 
ATOM     12  H   UNL     1       1.554   8.965  19.078  0.00  0.00    +0.000 HD
BRANCH  11  13
ATOM     13  C   UNL     1       1.471   7.784  20.809  0.00  0.00    +0.000 C 
BRANCH  13  17
ATOM     14  C   UNL     1       3.217   4.899  18.133  0.00  0.00    +0.000 A 
ATOM     15  C   UNL     1       3.095   6.255  17.774  0.00  0.00    +0.000 A 
ATOM     16  C   UNL     1       2.533   7.169  18.655  0.00  0.00    +0.000 A 
ATOM     17  C   UNL     1       2.088   6.759  19.913  0.00  0.00    +0.000 A 
ATOM     18  C   UNL     1       2.214   5.413  20.290  0.00  0.00    +0.000 A 
ATOM     19  C   UNL     1       2.774   4.484  19.403  0.00  0.00    +0.000 A 
ATOM     20 CL   UNL     1       2.905   2.800  19.889  0.00  0.00    +0.000 Cl
BRANCH  14  22
ATOM     21  C   UNL     1       5.049   3.993  16.826  0.00  0.00    +0.000 C 
ATOM     22  O   UNL     1       3.745   3.983  17.279  0.00  0.00    +0.000 OA
ENDBRANCH  14  22
ENDBRANCH  13  17
ENDBRANCH  11  13
ENDBRANCH   1  11
BRANCH   4  23
ATOM     23  N   UNL     1      -1.696  13.333  22.204  0.00  0.00    +0.000 N 
ATOM     24  H   UNL     1      -1.720  14.258  21.761  0.00  0.00    +0.000 HD
BRANCH  23  25
ATOM     25  C   UNL     1      -2.283  13.257  23.525  0.00  0.00    +0.000 C 
BRANCH  25  26
ATOM     26  C   UNL     1      -3.765  13.018  23.461  0.00  0.00    +0.000 A 
ATOM     27  C   UNL     1      -4.519  13.411  22.341  0.00  0.00    +0.000 A 
ATOM     28  C   UNL     1      -5.902  13.215  22.329  0.00  0.00    +0.000 A 
ATOM     29  C   UNL     1      -6.518  12.628  23.436  0.00  0.00    +0.000 A 
ATOM     30  N   UNL     1      -5.775  12.246  24.507  0.00  0.00    +0.000 NA
ATOM     31  C   UNL     1      -4.428  12.424  24.544  0.00  0.00    +0.000 A 
ENDBRANCH  25  26
ENDBRANCH  23  25
ENDBRANCH   4  23
BRANCH   8  32
ATOM     32  C   UNL     1      -2.419  10.102  16.474  0.00  0.00    +0.000 C 
ATOM     33  N   UNL     1      -2.790   9.592  15.382  0.00  0.00    +0.000 NA
ENDBRANCH   8  32
TORSDOF 8
ENDMDL
MODEL 7
REMARK VINA RESULT:      -8.1      1.853      2.925
REMARK  Name = 
REMARK  9 active torsions:
REMARK  status: ('A' for Active; 'I' for Inactive)
REMARK    1  A    between atoms: C_1  and  O_2
REMARK    2  A    between atoms: O_2  and  C_3
REMARK    3  A    between atoms: C_6  and  C_7
REMARK    4  A    between atoms: C_7  and  N_8
REMARK    5  A    between atoms: N_8  and  C_9
REMARK    6  A    between atoms: C_12  and  N_13
REMARK    7  A    between atoms: N_13  and  C_14
REMARK    8  A    between atoms: C_14  and  C_15
REMARK    9  A    between atoms: C_24  and  C_25
REMARK                            x       y       z     vdW  Elec       q    Type
REMARK                         _______ _______ _______ _____ _____    ______ ____
ROOT
ATOM      1  C   UNL     1       2.876   7.140  18.343  0.00  0.00    +0.000 A 
ATOM      2  N   UNL     1       3.434   7.622  17.200  0.00  0.00    +0.000 NA
ATOM      3  N   UNL     1       4.219   6.876  16.418  0.00  0.00    +0.000 NA
ATOM      4  C   UNL     1       4.455   5.558  16.664  0.00  0.00    +0.000 A 
ATOM      5  C   UNL     1       3.870   4.972  17.810  0.00  0.00    +0.000 A 
ATOM      6  C   UNL     1       4.013   3.600  18.111  0.00  0.00    +0.000 A 
ATOM      7  C   UNL     1       3.386   3.057  19.221  0.00  0.00    +0.000 A 
ATOM      8  C   UNL     1       2.680   3.872  20.097  0.00  0.00    +0.000 A 
ATOM      9  C   UNL     1       2.549   5.225  19.857  0.00  0.00    +0.000 A 
ATOM     10  C   UNL     1       3.106   5.793  18.691  0.00  0.00    +0.000 A 
ENDROOT
BRANCH   1  11
ATOM     11  N   UNL     1       2.050   7.985  19.152  0.00  0.00    +0.000 N 
ATOM     12  H   UNL     1       1.844   7.738  20.127  0.00  0.00    +0.000 HD
BRANCH  11  13
ATOM     13  C   UNL     1       1.384   9.173  18.669  0.00  0.00    +0.000 C 
BRANCH  13  17
ATOM     14  C   UNL     1      -0.525  11.256  21.918  0.00  0.00    +0.000 A 
ATOM     15  C   UNL     1      -0.532  11.773  20.608  0.00  0.00    +0.000 A 
ATOM     16  C   UNL     1       0.085  11.082  19.574  0.00  0.00    +0.000 A 
ATOM     17  C   UNL     1       0.717   9.860  19.817  0.00  0.00    +0.000 A 
ATOM     18  C   UNL     1       0.721   9.326  21.115  0.00  0.00    +0.000 A 
ATOM     19  C   UNL     1       0.106  10.021  22.164  0.00  0.00    +0.000 A 
ATOM     20 CL   UNL     1       0.140   9.343  23.785  0.00  0.00    +0.000 Cl
BRANCH  14  22
ATOM     21  C   UNL     1      -1.167  13.300  23.055  0.00  0.00    +0.000 C 
ATOM     22  O   UNL     1      -1.105  11.925  22.949  0.00  0.00    +0.000 OA
ENDBRANCH  14  22
ENDBRANCH  13  17
ENDBRANCH  11  13
ENDBRANCH   1  11
BRANCH   4  23
ATOM     23  N   UNL     1       5.278   4.805  15.763  0.00  0.00    +0.000 N 
ATOM     24  H   UNL     1       4.882   4.067  15.170  0.00  0.00    +0.000 HD
BRANCH  23  25
ATOM     25  C   UNL     1       6.721   4.923  15.732  0.00  0.00    +0.000 C 
BRANCH  25  26
ATOM     26  C   UNL     1       7.261   5.475  17.021  0.00  0.00    +0.000 A 
ATOM     27  C   UNL     1       7.502   6.851  17.180  0.00  0.00    +0.000 A 
ATOM     28  C   UNL     1       8.046   7.330  18.375  0.00  0.00    +0.000 A 
ATOM     29  C   UNL     1       8.342   6.429  19.399  0.00  0.00    +0.000 A 
ATOM     30  N   UNL     1       8.095   5.103  19.234  0.00  0.00    +0.000 NA
ATOM     31  C   UNL     1       7.566   4.612  18.082  0.00  0.00    +0.000 A 
ENDBRANCH  25  26
ENDBRANCH  23  25
ENDBRANCH   4  23
BRANCH   8  32
ATOM     32  C   UNL     1       1.947   3.218  21.256  0.00  0.00    +0.000 C 
ATOM     33  N   UNL     1       1.338   2.675  22.218  0.00  0.00    +0.000 NA
ENDBRANCH   8  32
TORSDOF 8
ENDMDL
MODEL 8
REMARK VINA RESULT:      -8.1      4.648      7.461
REMARK  Name = 
REMARK  9 active torsions:
REMARK  status: ('A' for Active; 'I' for Inactive)
REMARK    1  A    between atoms: C_1  and  O_2
REMARK    2  A    between atoms: O_2  and  C_3
REMARK    3  A    between atoms: C_6  and  C_7
REMARK    4  A    between atoms: C_7  and  N_8
REMARK    5  A    between atoms: N_8  and  C_9
REMARK    6  A    between atoms: C_12  and  N_13
REMARK    7  A    between atoms: N_13  and  C_14
REMARK    8  A    between atoms: C_14  and  C_15
REMARK    9  A    between atoms: C_24  and  C_25
REMARK                            x       y       z     vdW  Elec       q    Type
REMARK                         _______ _______ _______ _____ _____    ______ ____
ROOT
ATOM      1  C   UNL     1       6.270   6.533  17.367  0.00  0.00    +0.000 A 
ATOM      2  N   UNL     1       6.876   5.347  17.093  0.00  0.00    +0.000 NA
ATOM      3  N   UNL     1       6.208   4.190  17.080  0.00  0.00    +0.000 NA
ATOM      4  C   UNL     1       4.861   4.122  17.260  0.00  0.00    +0.000 A 
ATOM      5  C   UNL     1       4.153   5.321  17.503  0.00  0.00    +0.000 A 
ATOM      6  C   UNL     1       2.748   5.352  17.643  0.00  0.00    +0.000 A 
ATOM      7  C   UNL     1       2.089   6.555  17.836  0.00  0.00    +0.000 A 
ATOM      8  C   UNL     1       2.809   7.735  17.979  0.00  0.00    +0.000 A 
ATOM      9  C   UNL     1       4.187   7.740  17.885  0.00  0.00    +0.000 A 
ATOM     10  C   UNL     1       4.881   6.543  17.606  0.00  0.00    +0.000 A 
ENDROOT
BRANCH   1  11
ATOM     11  N   UNL     1       7.033   7.744  17.380  0.00  0.00    +0.000 N 
ATOM     12  H   UNL     1       6.762   8.542  16.792  0.00  0.00    +0.000 HD
BRANCH  11  13
ATOM     13  C   UNL     1       8.259   7.925  18.124  0.00  0.00    +0.000 C 
BRANCH  13  17
ATOM     14  C   UNL     1       8.951  12.154  18.543  0.00  0.00    +0.000 A 
ATOM     15  C   UNL     1       8.121  11.641  17.526  0.00  0.00    +0.000 A 
ATOM     16  C   UNL     1       7.908  10.274  17.413  0.00  0.00    +0.000 A 
ATOM     17  C   UNL     1       8.507   9.387  18.310  0.00  0.00    +0.000 A 
ATOM     18  C   UNL     1       9.327   9.884  19.335  0.00  0.00    +0.000 A 
ATOM     19  C   UNL     1       9.552  11.262  19.451  0.00  0.00    +0.000 A 
ATOM     20 CL   UNL     1      10.596  11.860  20.732  0.00  0.00    +0.000 Cl
BRANCH  14  22
ATOM     21  C   UNL     1       8.343  14.383  19.280  0.00  0.00    +0.000 C 
ATOM     22  O   UNL     1       9.189  13.486  18.660  0.00  0.00    +0.000 OA
ENDBRANCH  14  22
ENDBRANCH  13  17
ENDBRANCH  11  13
ENDBRANCH   1  11
BRANCH   4  23
ATOM     23  N   UNL     1       4.200   2.851  17.196  0.00  0.00    +0.000 N 
ATOM     24  H   UNL     1       3.628   2.587  16.386  0.00  0.00    +0.000 HD
BRANCH  23  25
ATOM     25  C   UNL     1       4.168   1.925  18.309  0.00  0.00    +0.000 C 
BRANCH  25  26
ATOM     26  C   UNL     1       3.104   2.289  19.304  0.00  0.00    +0.000 A 
ATOM     27  C   UNL     1       1.750   2.357  18.931  0.00  0.00    +0.000 A 
ATOM     28  C   UNL     1       0.787   2.742  19.868  0.00  0.00    +0.000 A 
ATOM     29  C   UNL     1       1.186   3.052  21.169  0.00  0.00    +0.000 A 
ATOM     30  N   UNL     1       2.498   2.972  21.518  0.00  0.00    +0.000 NA
ATOM     31  C   UNL     1       3.453   2.600  20.626  0.00  0.00    +0.000 A 
ENDBRANCH  25  26
ENDBRANCH  23  25
ENDBRANCH   4  23
BRANCH   8  32
ATOM     32  C   UNL     1       2.038   9.037  18.111  0.00  0.00    +0.000 C 
ATOM     33  N   UNL     1       1.397  10.118  18.221  0.00  0.00    +0.000 NA
ENDBRANCH   8  32
TORSDOF 8
ENDMDL
MODEL 9
REMARK VINA RESULT:      -8.0      1.152      1.404
REMARK  Name = 
REMARK  9 active torsions:
REMARK  status: ('A' for Active; 'I' for Inactive)
REMARK    1  A    between atoms: C_1  and  O_2
REMARK    2  A    between atoms: O_2  and  C_3
REMARK    3  A    between atoms: C_6  and  C_7
REMARK    4  A    between atoms: C_7  and  N_8
REMARK    5  A    between atoms: N_8  and  C_9
REMARK    6  A    between atoms: C_12  and  N_13
REMARK    7  A    between atoms: N_13  and  C_14
REMARK    8  A    between atoms: C_14  and  C_15
REMARK    9  A    between atoms: C_24  and  C_25
REMARK                            x       y       z     vdW  Elec       q    Type
REMARK                         _______ _______ _______ _____ _____    ______ ____
ROOT
ATOM      1  C   UNL     1       2.967   6.829  18.495  0.00  0.00    +0.000 A 
ATOM      2  N   UNL     1       3.707   7.296  17.454  0.00  0.00    +0.000 NA
ATOM      3  N   UNL     1       4.730   6.609  16.940  0.00  0.00    +0.000 NA
ATOM      4  C   UNL     1       5.058   5.358  17.366  0.00  0.00    +0.000 A 
ATOM      5  C   UNL     1       4.303   4.786  18.416  0.00  0.00    +0.000 A 
ATOM      6  C   UNL     1       4.536   3.473  18.882  0.00  0.00    +0.000 A 
ATOM      7  C   UNL     1       3.744   2.934  19.883  0.00  0.00    +0.000 A 
ATOM      8  C   UNL     1       2.768   3.708  20.498  0.00  0.00    +0.000 A 
ATOM      9  C   UNL     1       2.536   5.008  20.096  0.00  0.00    +0.000 A 
ATOM     10  C   UNL     1       3.270   5.558  19.023  0.00  0.00    +0.000 A 
ENDROOT
BRANCH   1  11
ATOM     11  N   UNL     1       1.886   7.611  19.017  0.00  0.00    +0.000 N 
ATOM     12  H   UNL     1       1.136   7.946  18.400  0.00  0.00    +0.000 HD
BRANCH  11  13
ATOM     13  C   UNL     1       1.794   8.058  20.388  0.00  0.00    +0.000 C 
BRANCH  13  17
ATOM     14  C   UNL     1      -0.842  11.461  20.499  0.00  0.00    +0.000 A 
ATOM     15  C   UNL     1      -0.238  11.036  19.299  0.00  0.00    +0.000 A 
ATOM     16  C   UNL     1       0.604   9.933  19.285  0.00  0.00    +0.000 A 
ATOM     17  C   UNL     1       0.860   9.223  20.461  0.00  0.00    +0.000 A 
ATOM     18  C   UNL     1       0.257   9.627  21.662  0.00  0.00    +0.000 A 
ATOM     19  C   UNL     1      -0.589  10.744  21.684  0.00  0.00    +0.000 A 
ATOM     20 CL   UNL     1      -1.319  11.242  23.203  0.00  0.00    +0.000 Cl
BRANCH  14  22
ATOM     21  C   UNL     1      -2.978  12.556  20.149  0.00  0.00    +0.000 C 
ATOM     22  O   UNL     1      -1.653  12.549  20.539  0.00  0.00    +0.000 OA
ENDBRANCH  14  22
ENDBRANCH  13  17
ENDBRANCH  11  13
ENDBRANCH   1  11
BRANCH   4  23
ATOM     23  N   UNL     1       6.146   4.660  16.746  0.00  0.00    +0.000 N 
ATOM     24  H   UNL     1       7.121   4.923  16.927  0.00  0.00    +0.000 HD
BRANCH  23  25
ATOM     25  C   UNL     1       5.952   3.650  15.727  0.00  0.00    +0.000 C 
BRANCH  25  26
ATOM     26  C   UNL     1       6.473   4.100  14.392  0.00  0.00    +0.000 A 
ATOM     27  C   UNL     1       6.118   3.430  13.207  0.00  0.00    +0.000 A 
ATOM     28  C   UNL     1       6.654   3.845  11.985  0.00  0.00    +0.000 A 
ATOM     29  C   UNL     1       7.537   4.927  11.958  0.00  0.00    +0.000 A 
ATOM     30  N   UNL     1       7.862   5.570  13.110  0.00  0.00    +0.000 NA
ATOM     31  C   UNL     1       7.355   5.187  14.312  0.00  0.00    +0.000 A 
ENDBRANCH  25  26
ENDBRANCH  23  25
ENDBRANCH   4  23
BRANCH   8  32
ATOM     32  C   UNL     1       1.875   3.048  21.536  0.00  0.00    +0.000 C 
ATOM     33  N   UNL     1       1.134   2.500  22.397  0.00  0.00    +0.000 NA
ENDBRANCH   8  32
TORSDOF 8
ENDMDL
