MODEL 1
REMARK VINA RESULT:      -7.7      0.000      0.000
REMARK  Name = 
REMARK  16 active torsions:
REMARK  status: ('A' for Active; 'I' for Inactive)
REMARK    1  A    between atoms: C_1  and  C_2
REMARK    2  A    between atoms: C_2  and  C_3
REMARK    3  A    between atoms: C_3  and  C_4
REMARK    4  A    between atoms: C_4  and  C_5
REMARK    5  A    between atoms: C_5  and  C_6
REMARK    6  A    between atoms: C_6  and  C_8
REMARK    7  A    between atoms: C_11  and  O_12
REMARK    8  A    between atoms: O_12  and  C_13
REMARK    9  A    between atoms: C_13  and  C_14
REMARK   10  A    between atoms: C_18  and  N_19
REMARK   11  A    between atoms: C_20  and  C_22
REMARK   12  A    between atoms: C_22  and  C_23
REMARK   13  A    between atoms: C_23  and  O_25
REMARK   14  A    between atoms: O_25  and  C_26
REMARK   15  A    between atoms: C_29  and  O_30
REMARK   16  A    between atoms: O_30  and  C_31
REMARK                            x       y       z     vdW  Elec       q    Type
REMARK                         _______ _______ _______ _____ _____    ______ ____
ROOT
ATOM      1  O   UNL     1       5.493   4.026  19.305  0.00  0.00    +0.000 OA
ENDROOT
BRANCH   1   5
ATOM      2  C   UNL     1       6.661   4.671  15.324  0.00  0.00    +0.000 A 
ATOM      3  C   UNL     1       5.894   3.541  15.672  0.00  0.00    +0.000 A 
ATOM      4  C   UNL     1       5.445   3.323  16.969  0.00  0.00    +0.000 A 
ATOM      5  C   UNL     1       5.821   4.188  17.984  0.00  0.00    +0.000 A 
ATOM      6  C   UNL     1       6.599   5.301  17.661  0.00  0.00    +0.000 A 
ATOM      7  C   UNL     1       7.030   5.569  16.339  0.00  0.00    +0.000 A 
BRANCH   2   8
ATOM      8  C   UNL     1       7.001   4.751  13.868  0.00  0.00    +0.000 C 
ATOM      9  O   UNL     1       7.613   5.712  13.411  0.00  0.00    +0.000 OA
BRANCH   8  10
ATOM     10  C   UNL     1       6.696   3.549  12.966  0.00  0.00    +0.000 C 
BRANCH  10  11
ATOM     11  C   UNL     1       5.277   3.507  12.395  0.00  0.00    +0.000 C 
BRANCH  11  12
ATOM     12  C   UNL     1       5.153   2.439  11.312  0.00  0.00    +0.000 C 
BRANCH  12  14
ATOM     13  C   UNL     1       6.136   0.146  11.261  0.00  0.00    +0.000 C 
ATOM     14  C   UNL     1       6.435   1.632  11.151  0.00  0.00    +0.000 C 
ENDBRANCH  12  14
ENDBRANCH  11  12
ENDBRANCH  10  11
ENDBRANCH   8  10
ENDBRANCH   2   8
BRANCH   7  15
ATOM     15  O   UNL     1       7.758   6.725  16.322  0.00  0.00    +0.000 OA
ATOM     16  C   UNL     1       7.700   7.673  17.368  0.00  0.00    +0.000 C 
ENDBRANCH   7  15
ENDBRANCH   1   5
BRANCH   1  17
ATOM     17  C   UNL     1       4.636   2.910  19.566  0.00  0.00    +0.000 C 
BRANCH  17  18
ATOM     18  C   UNL     1       3.230   3.364  19.851  0.00  0.00    +0.000 A 
ATOM     19  C   UNL     1       2.156   2.517  19.552  0.00  0.00    +0.000 A 
ATOM     20  C   UNL     1       0.848   2.945  19.757  0.00  0.00    +0.000 A 
ATOM     21  C   UNL     1       0.604   4.215  20.279  0.00  0.00    +0.000 A 
ATOM     22  C   UNL     1       1.659   5.065  20.609  0.00  0.00    +0.000 A 
ATOM     23  C   UNL     1       2.976   4.638  20.379  0.00  0.00    +0.000 A 
BRANCH  22  24
ATOM     24  N   UNL     1       1.478   6.350  21.154  0.00  0.00    +0.000 N 
ATOM     25  C   UNL     1       1.701   7.557  20.525  0.00  0.00    +0.000 C 
ATOM     26  O   UNL     1       2.131   7.701  19.380  0.00  0.00    +0.000 OA
ATOM     27  H   UNL     1       1.015   6.378  22.064  0.00  0.00    +0.000 HD
BRANCH  25  28
ATOM     28  C   UNL     1       1.434   8.794  21.355  0.00  0.00    +0.000 C 
BRANCH  28  29
ATOM     29  C   UNL     1      -0.006   9.162  21.521  0.00  0.00    +0.000 C 
ATOM     30  O   UNL     1      -0.639   9.015  22.556  0.00  0.00    +0.000 OA
BRANCH  29  31
ATOM     31  O   UNL     1      -0.502   9.715  20.380  0.00  0.00    +0.000 OA
ATOM     32  C   UNL     1       0.032  11.002  20.087  0.00  0.00    +0.000 C 
ENDBRANCH  29  31
ENDBRANCH  28  29
ENDBRANCH  25  28
ENDBRANCH  22  24
ENDBRANCH  17  18
ENDBRANCH   1  17
TORSDOF 13
ENDMDL
MODEL 2
REMARK VINA RESULT:      -7.3      2.507      8.505
REMARK  Name = 
REMARK  16 active torsions:
REMARK  status: ('A' for Active; 'I' for Inactive)
REMARK    1  A    between atoms: C_1  and  C_2
REMARK    2  A    between atoms: C_2  and  C_3
REMARK    3  A    between atoms: C_3  and  C_4
REMARK    4  A    between atoms: C_4  and  C_5
REMARK    5  A    between atoms: C_5  and  C_6
REMARK    6  A    between atoms: C_6  and  C_8
REMARK    7  A    between atoms: C_11  and  O_12
REMARK    8  A    between atoms: O_12  and  C_13
REMARK    9  A    between atoms: C_13  and  C_14
REMARK   10  A    between atoms: C_18  and  N_19
REMARK   11  A    between atoms: C_20  and  C_22
REMARK   12  A    between atoms: C_22  and  C_23
REMARK   13  A    between atoms: C_23  and  O_25
REMARK   14  A    between atoms: O_25  and  C_26
REMARK   15  A    between atoms: C_29  and  O_30
REMARK   16  A    between atoms: O_30  and  C_31
REMARK                            x       y       z     vdW  Elec       q    Type
REMARK                         _______ _______ _______ _____ _____    ______ ____
ROOT
ATOM      1  O   UNL     1       2.073   6.261  20.787  0.00  0.00    +0.000 OA
ENDROOT
BRANCH   1   5
ATOM      2  C   UNL     1       0.408  10.018  19.923  0.00  0.00    +0.000 A 
ATOM      3  C   UNL     1       0.021   9.310  21.078  0.00  0.00    +0.000 A 
ATOM      4  C   UNL     1       0.589   8.090  21.424  0.00  0.00    +0.000 A 
ATOM      5  C   UNL     1       1.507   7.491  20.576  0.00  0.00    +0.000 A 
ATOM      6  C   UNL     1       1.886   8.168  19.415  0.00  0.00    +0.000 A 
ATOM      7  C   UNL     1       1.356   9.434  19.065  0.00  0.00    +0.000 A 
BRANCH   2   8
ATOM      8  C   UNL     1      -0.282  11.336  19.755  0.00  0.00    +0.000 C 
ATOM      9  O   UNL     1      -0.017  12.288  20.483  0.00  0.00    +0.000 OA
BRANCH   8  10
ATOM     10  C   UNL     1      -1.235  11.530  18.569  0.00  0.00    +0.000 C 
BRANCH  10  11
ATOM     11  C   UNL     1      -2.155  10.344  18.272  0.00  0.00    +0.000 C 
BRANCH  11  12
ATOM     12  C   UNL     1      -2.159  10.013  16.783  0.00  0.00    +0.000 C 
BRANCH  12  14
ATOM     13  C   UNL     1      -3.358  10.228  14.605  0.00  0.00    +0.000 C 
ATOM     14  C   UNL     1      -3.468  10.410  16.110  0.00  0.00    +0.000 C 
ENDBRANCH  12  14
ENDBRANCH  11  12
ENDBRANCH  10  11
ENDBRANCH   8  10
ENDBRANCH   2   8
BRANCH   7  15
ATOM     15  O   UNL     1       1.916   9.855  17.894  0.00  0.00    +0.000 OA
ATOM     16  C   UNL     1       2.499  11.135  17.748  0.00  0.00    +0.000 C 
ENDBRANCH   7  15
ENDBRANCH   1   5
BRANCH   1  17
ATOM     17  C   UNL     1       1.144   5.173  20.751  0.00  0.00    +0.000 C 
BRANCH  17  18
ATOM     18  C   UNL     1       1.592   4.113  19.780  0.00  0.00    +0.000 A 
ATOM     19  C   UNL     1       0.758   3.021  19.515  0.00  0.00    +0.000 A 
ATOM     20  C   UNL     1       1.181   2.006  18.663  0.00  0.00    +0.000 A 
ATOM     21  C   UNL     1       2.434   2.082  18.057  0.00  0.00    +0.000 A 
ATOM     22  C   UNL     1       3.272   3.173  18.287  0.00  0.00    +0.000 A 
ATOM     23  C   UNL     1       2.850   4.184  19.163  0.00  0.00    +0.000 A 
BRANCH  22  24
ATOM     24  N   UNL     1       4.540   3.316  17.692  0.00  0.00    +0.000 N 
ATOM     25  C   UNL     1       5.022   4.421  17.023  0.00  0.00    +0.000 C 
ATOM     26  O   UNL     1       4.397   5.461  16.810  0.00  0.00    +0.000 OA
ATOM     27  H   UNL     1       5.204   2.567  17.893  0.00  0.00    +0.000 HD
BRANCH  25  28
ATOM     28  C   UNL     1       6.425   4.299  16.469  0.00  0.00    +0.000 C 
BRANCH  28  29
ATOM     29  C   UNL     1       6.980   5.534  15.837  0.00  0.00    +0.000 C 
ATOM     30  O   UNL     1       7.666   6.359  16.422  0.00  0.00    +0.000 OA
BRANCH  29  31
ATOM     31  O   UNL     1       6.652   5.595  14.516  0.00  0.00    +0.000 OA
ATOM     32  C   UNL     1       6.770   4.348  13.838  0.00  0.00    +0.000 C 
ENDBRANCH  29  31
ENDBRANCH  28  29
ENDBRANCH  25  28
ENDBRANCH  22  24
ENDBRANCH  17  18
ENDBRANCH   1  17
TORSDOF 13
ENDMDL
MODEL 3
REMARK VINA RESULT:      -7.2      2.583      9.462
REMARK  Name = 
REMARK  16 active torsions:
REMARK  status: ('A' for Active; 'I' for Inactive)
REMARK    1  A    between atoms: C_1  and  C_2
REMARK    2  A    between atoms: C_2  and  C_3
REMARK    3  A    between atoms: C_3  and  C_4
REMARK    4  A    between atoms: C_4  and  C_5
REMARK    5  A    between atoms: C_5  and  C_6
REMARK    6  A    between atoms: C_6  and  C_8
REMARK    7  A    between atoms: C_11  and  O_12
REMARK    8  A    between atoms: O_12  and  C_13
REMARK    9  A    between atoms: C_13  and  C_14
REMARK   10  A    between atoms: C_18  and  N_19
REMARK   11  A    between atoms: C_20  and  C_22
REMARK   12  A    between atoms: C_22  and  C_23
REMARK   13  A    between atoms: C_23  and  O_25
REMARK   14  A    between atoms: O_25  and  C_26
REMARK   15  A    between atoms: C_29  and  O_30
REMARK   16  A    between atoms: O_30  and  C_31
REMARK                            x       y       z     vdW  Elec       q    Type
REMARK                         _______ _______ _______ _____ _____    ______ ____
ROOT
ATOM      1  O   UNL     1       2.561   7.037  19.797  0.00  0.00    +0.000 OA
ENDROOT
BRANCH   1   5
ATOM      2  C   UNL     1       0.035  10.390  19.712  0.00  0.00    +0.000 A 
ATOM      3  C   UNL     1       0.879  10.100  18.621  0.00  0.00    +0.000 A 
ATOM      4  C   UNL     1       1.688   8.971  18.592  0.00  0.00    +0.000 A 
ATOM      5  C   UNL     1       1.746   8.134  19.695  0.00  0.00    +0.000 A 
ATOM      6  C   UNL     1       0.933   8.418  20.793  0.00  0.00    +0.000 A 
ATOM      7  C   UNL     1       0.065   9.537  20.828  0.00  0.00    +0.000 A 
BRANCH   2   8
ATOM      8  C   UNL     1      -0.795  11.623  19.528  0.00  0.00    +0.000 C 
ATOM      9  O   UNL     1      -0.969  12.413  20.451  0.00  0.00    +0.000 OA
BRANCH   8  10
ATOM     10  C   UNL     1      -1.321  11.963  18.129  0.00  0.00    +0.000 C 
BRANCH  10  11
ATOM     11  C   UNL     1      -2.462  11.075  17.628  0.00  0.00    +0.000 C 
BRANCH  11  12
ATOM     12  C   UNL     1      -3.799  11.519  18.211  0.00  0.00    +0.000 C 
BRANCH  12  14
ATOM     13  C   UNL     1      -5.864  12.501  17.210  0.00  0.00    +0.000 C 
ATOM     14  C   UNL     1      -4.955  11.284  17.246  0.00  0.00    +0.000 C 
ENDBRANCH  12  14
ENDBRANCH  11  12
ENDBRANCH  10  11
ENDBRANCH   8  10
ENDBRANCH   2   8
BRANCH   7  15
ATOM     15  O   UNL     1      -0.611   9.553  22.014  0.00  0.00    +0.000 OA
ATOM     16  C   UNL     1       0.048   9.533  23.264  0.00  0.00    +0.000 C 
ENDBRANCH   7  15
ENDBRANCH   1   5
BRANCH   1  17
ATOM     17  C   UNL     1       1.957   5.913  20.442  0.00  0.00    +0.000 C 
BRANCH  17  18
ATOM     18  C   UNL     1       2.064   4.678  19.588  0.00  0.00    +0.000 A 
ATOM     19  C   UNL     1       1.059   3.705  19.650  0.00  0.00    +0.000 A 
ATOM     20  C   UNL     1       1.172   2.533  18.909  0.00  0.00    +0.000 A 
ATOM     21  C   UNL     1       2.280   2.331  18.087  0.00  0.00    +0.000 A 
ATOM     22  C   UNL     1       3.281   3.299  17.991  0.00  0.00    +0.000 A 
ATOM     23  C   UNL     1       3.174   4.469  18.756  0.00  0.00    +0.000 A 
BRANCH  22  24
ATOM     24  N   UNL     1       4.414   3.162  17.167  0.00  0.00    +0.000 N 
ATOM     25  C   UNL     1       4.992   4.139  16.384  0.00  0.00    +0.000 C 
ATOM     26  O   UNL     1       4.583   5.293  16.256  0.00  0.00    +0.000 OA
ATOM     27  H   UNL     1       4.923   2.283  17.267  0.00  0.00    +0.000 HD
BRANCH  25  28
ATOM     28  C   UNL     1       6.205   3.713  15.585  0.00  0.00    +0.000 C 
BRANCH  28  29
ATOM     29  C   UNL     1       6.969   4.818  14.930  0.00  0.00    +0.000 C 
ATOM     30  O   UNL     1       7.596   5.675  15.536  0.00  0.00    +0.000 OA
BRANCH  29  31
ATOM     31  O   UNL     1       6.904   4.719  13.573  0.00  0.00    +0.000 OA
ATOM     32  C   UNL     1       8.009   5.316  12.901  0.00  0.00    +0.000 C 
ENDBRANCH  29  31
ENDBRANCH  28  29
ENDBRANCH  25  28
ENDBRANCH  22  24
ENDBRANCH  17  18
ENDBRANCH   1  17
TORSDOF 13
ENDMDL
MODEL 4
REMARK VINA RESULT:      -7.1      3.782      6.911
REMARK  Name = 
REMARK  16 active torsions:
REMARK  status: ('A' for Active; 'I' for Inactive)
REMARK    1  A    between atoms: C_1  and  C_2
REMARK    2  A    between atoms: C_2  and  C_3
REMARK    3  A    between atoms: C_3  and  C_4
REMARK    4  A    between atoms: C_4  and  C_5
REMARK    5  A    between atoms: C_5  and  C_6
REMARK    6  A    between atoms: C_6  and  C_8
REMARK    7  A    between atoms: C_11  and  O_12
REMARK    8  A    between atoms: O_12  and  C_13
REMARK    9  A    between atoms: C_13  and  C_14
REMARK   10  A    between atoms: C_18  and  N_19
REMARK   11  A    between atoms: C_20  and  C_22
REMARK   12  A    between atoms: C_22  and  C_23
REMARK   13  A    between atoms: C_23  and  O_25
REMARK   14  A    between atoms: O_25  and  C_26
REMARK   15  A    between atoms: C_29  and  O_30
REMARK   16  A    between atoms: O_30  and  C_31
REMARK                            x       y       z     vdW  Elec       q    Type
REMARK                         _______ _______ _______ _____ _____    ______ ____
ROOT
ATOM      1  O   UNL     1       2.713   8.974  17.801  0.00  0.00    +0.000 OA
ENDROOT
BRANCH   1   5
ATOM      2  C   UNL     1       3.991   5.021  18.412  0.00  0.00    +0.000 A 
ATOM      3  C   UNL     1       3.194   5.674  19.373  0.00  0.00    +0.000 A 
ATOM      4  C   UNL     1       2.709   6.961  19.180  0.00  0.00    +0.000 A 
ATOM      5  C   UNL     1       3.077   7.676  18.052  0.00  0.00    +0.000 A 
ATOM      6  C   UNL     1       3.885   7.053  17.099  0.00  0.00    +0.000 A 
ATOM      7  C   UNL     1       4.354   5.725  17.251  0.00  0.00    +0.000 A 
BRANCH   2   8
ATOM      8  C   UNL     1       4.369   3.620  18.783  0.00  0.00    +0.000 C 
ATOM      9  O   UNL     1       5.195   3.398  19.663  0.00  0.00    +0.000 OA
BRANCH   8  10
ATOM     10  C   UNL     1       3.609   2.452  18.144  0.00  0.00    +0.000 C 
BRANCH  10  11
ATOM     11  C   UNL     1       2.151   2.743  17.781  0.00  0.00    +0.000 C 
BRANCH  11  12
ATOM     12  C   UNL     1       1.201   2.160  18.822  0.00  0.00    +0.000 C 
BRANCH  12  14
ATOM     13  C   UNL     1       1.410   2.855  21.209  0.00  0.00    +0.000 C 
ATOM     14  C   UNL     1       0.786   3.191  19.865  0.00  0.00    +0.000 C 
ENDBRANCH  12  14
ENDBRANCH  11  12
ENDBRANCH  10  11
ENDBRANCH   8  10
ENDBRANCH   2   8
BRANCH   7  15
ATOM     15  O   UNL     1       5.105   5.379  16.164  0.00  0.00    +0.000 OA
ATOM     16  C   UNL     1       6.510   5.523  16.137  0.00  0.00    +0.000 C 
ENDBRANCH   7  15
ENDBRANCH   1   5
BRANCH   1  17
ATOM     17  C   UNL     1       1.308   9.221  17.904  0.00  0.00    +0.000 C 
BRANCH  17  18
ATOM     18  C   UNL     1       1.009  10.175  19.029  0.00  0.00    +0.000 A 
ATOM     19  C   UNL     1       0.204   9.757  20.095  0.00  0.00    +0.000 A 
ATOM     20  C   UNL     1      -0.127  10.645  21.113  0.00  0.00    +0.000 A 
ATOM     21  C   UNL     1       0.357  11.952  21.083  0.00  0.00    +0.000 A 
ATOM     22  C   UNL     1       1.181  12.383  20.043  0.00  0.00    +0.000 A 
ATOM     23  C   UNL     1       1.495  11.491  19.007  0.00  0.00    +0.000 A 
BRANCH  22  24
ATOM     24  N   UNL     1       1.714  13.684  19.965  0.00  0.00    +0.000 N 
ATOM     25  C   UNL     1       2.746  14.203  20.718  0.00  0.00    +0.000 C 
ATOM     26  O   UNL     1       3.352  13.611  21.612  0.00  0.00    +0.000 OA
ATOM     27  H   UNL     1       1.379  14.247  19.183  0.00  0.00    +0.000 HD
BRANCH  25  28
ATOM     28  C   UNL     1       3.113  15.643  20.433  0.00  0.00    +0.000 C 
BRANCH  28  29
ATOM     29  C   UNL     1       4.225  15.846  19.454  0.00  0.00    +0.000 C 
ATOM     30  O   UNL     1       4.966  16.817  19.447  0.00  0.00    +0.000 OA
BRANCH  29  31
ATOM     31  O   UNL     1       4.322  14.789  18.601  0.00  0.00    +0.000 OA
ATOM     32  C   UNL     1       5.540  14.757  17.864  0.00  0.00    +0.000 C 
ENDBRANCH  29  31
ENDBRANCH  28  29
ENDBRANCH  25  28
ENDBRANCH  22  24
ENDBRANCH  17  18
ENDBRANCH   1  17
TORSDOF 13
ENDMDL
MODEL 5
REMARK VINA RESULT:      -7.1      5.097      8.231
REMARK  Name = 
REMARK  16 active torsions:
REMARK  status: ('A' for Active; 'I' for Inactive)
REMARK    1  A    between atoms: C_1  and  C_2
REMARK    2  A    between atoms: C_2  and  C_3
REMARK    3  A    between atoms: C_3  and  C_4
REMARK    4  A    between atoms: C_4  and  C_5
REMARK    5  A    between atoms: C_5  and  C_6
REMARK    6  A    between atoms: C_6  and  C_8
REMARK    7  A    between atoms: C_11  and  O_12
REMARK    8  A    between atoms: O_12  and  C_13
REMARK    9  A    between atoms: C_13  and  C_14
REMARK   10  A    between atoms: C_18  and  N_19
REMARK   11  A    between atoms: C_20  and  C_22
REMARK   12  A    between atoms: C_22  and  C_23
REMARK   13  A    between atoms: C_23  and  O_25
REMARK   14  A    between atoms: O_25  and  C_26
REMARK   15  A    between atoms: C_29  and  O_30
REMARK   16  A    between atoms: O_30  and  C_31
REMARK                            x       y       z     vdW  Elec       q    Type
REMARK                         _______ _______ _______ _____ _____    ______ ____
ROOT
ATOM      1  O   UNL     1       8.643   7.994  18.328  0.00  0.00    +0.000 OA
ENDROOT
BRANCH   1   5
ATOM      2  C   UNL     1       5.540   5.207  17.835  0.00  0.00    +0.000 A 
ATOM      3  C   UNL     1       6.768   4.820  18.407  0.00  0.00    +0.000 A 
ATOM      4  C   UNL     1       7.797   5.725  18.634  0.00  0.00    +0.000 A 
ATOM      5  C   UNL     1       7.664   7.040  18.216  0.00  0.00    +0.000 A 
ATOM      6  C   UNL     1       6.463   7.437  17.627  0.00  0.00    +0.000 A 
ATOM      7  C   UNL     1       5.382   6.543  17.428  0.00  0.00    +0.000 A 
BRANCH   2   8
ATOM      8  C   UNL     1       4.542   4.096  17.722  0.00  0.00    +0.000 C 
ATOM      9  O   UNL     1       4.018   3.821  16.647  0.00  0.00    +0.000 OA
BRANCH   8  10
ATOM     10  C   UNL     1       4.278   3.208  18.944  0.00  0.00    +0.000 C 
BRANCH  10  11
ATOM     11  C   UNL     1       2.848   2.679  19.068  0.00  0.00    +0.000 C 
BRANCH  11  12
ATOM     12  C   UNL     1       1.870   3.810  19.371  0.00  0.00    +0.000 C 
BRANCH  12  14
ATOM     13  C   UNL     1       1.631   2.684  21.585  0.00  0.00    +0.000 C 
ATOM     14  C   UNL     1       0.903   3.449  20.492  0.00  0.00    +0.000 C 
ENDBRANCH  12  14
ENDBRANCH  11  12
ENDBRANCH  10  11
ENDBRANCH   8  10
ENDBRANCH   2   8
BRANCH   7  15
ATOM     15  O   UNL     1       4.340   7.209  16.849  0.00  0.00    +0.000 OA
ATOM     16  C   UNL     1       3.202   7.620  17.580  0.00  0.00    +0.000 C 
ENDBRANCH   7  15
ENDBRANCH   1   5
BRANCH   1  17
ATOM     17  C   UNL     1       8.195   9.328  18.073  0.00  0.00    +0.000 C 
BRANCH  17  18
ATOM     18  C   UNL     1       9.125  10.337  18.692  0.00  0.00    +0.000 A 
ATOM     19  C   UNL     1      10.193  10.844  17.943  0.00  0.00    +0.000 A 
ATOM     20  C   UNL     1      11.093  11.734  18.519  0.00  0.00    +0.000 A 
ATOM     21  C   UNL     1      10.925  12.137  19.843  0.00  0.00    +0.000 A 
ATOM     22  C   UNL     1       9.853  11.664  20.601  0.00  0.00    +0.000 A 
ATOM     23  C   UNL     1       8.960  10.750  20.022  0.00  0.00    +0.000 A 
BRANCH  22  24
ATOM     24  N   UNL     1       9.619  12.046  21.936  0.00  0.00    +0.000 N 
ATOM     25  C   UNL     1       8.816  13.077  22.374  0.00  0.00    +0.000 C 
ATOM     26  O   UNL     1       8.193  13.857  21.654  0.00  0.00    +0.000 OA
ATOM     27  H   UNL     1       9.987  11.408  22.643  0.00  0.00    +0.000 HD
BRANCH  25  28
ATOM     28  C   UNL     1       8.753  13.274  23.873  0.00  0.00    +0.000 C 
BRANCH  28  29
ATOM     29  C   UNL     1       8.008  12.225  24.633  0.00  0.00    +0.000 C 
ATOM     30  O   UNL     1       7.712  11.128  24.183  0.00  0.00    +0.000 OA
BRANCH  29  31
ATOM     31  O   UNL     1       7.739  12.641  25.902  0.00  0.00    +0.000 OA
ATOM     32  C   UNL     1       6.875  11.766  26.621  0.00  0.00    +0.000 C 
ENDBRANCH  29  31
ENDBRANCH  28  29
ENDBRANCH  25  28
ENDBRANCH  22  24
ENDBRANCH  17  18
ENDBRANCH   1  17
TORSDOF 13
ENDMDL
MODEL 6
REMARK VINA RESULT:      -7.1      4.987      8.160
REMARK  Name = 
REMARK  16 active torsions:
REMARK  status: ('A' for Active; 'I' for Inactive)
REMARK    1  A    between atoms: C_1  and  C_2
REMARK    2  A    between atoms: C_2  and  C_3
REMARK    3  A    between atoms: C_3  and  C_4
REMARK    4  A    between atoms: C_4  and  C_5
REMARK    5  A    between atoms: C_5  and  C_6
REMARK    6  A    between atoms: C_6  and  C_8
REMARK    7  A    between atoms: C_11  and  O_12
REMARK    8  A    between atoms: O_12  and  C_13
REMARK    9  A    between atoms: C_13  and  C_14
REMARK   10  A    between atoms: C_18  and  N_19
REMARK   11  A    between atoms: C_20  and  C_22
REMARK   12  A    between atoms: C_22  and  C_23
REMARK   13  A    between atoms: C_23  and  O_25
REMARK   14  A    between atoms: O_25  and  C_26
REMARK   15  A    between atoms: C_29  and  O_30
REMARK   16  A    between atoms: O_30  and  C_31
REMARK                            x       y       z     vdW  Elec       q    Type
REMARK                         _______ _______ _______ _____ _____    ______ ____
ROOT
ATOM      1  O   UNL     1       8.678   7.811  18.435  0.00  0.00    +0.000 OA
ENDROOT
BRANCH   1   5
ATOM      2  C   UNL     1       5.598   4.978  18.090  0.00  0.00    +0.000 A 
ATOM      3  C   UNL     1       6.329   5.101  19.288  0.00  0.00    +0.000 A 
ATOM      4  C   UNL     1       7.318   6.062  19.457  0.00  0.00    +0.000 A 
ATOM      5  C   UNL     1       7.671   6.881  18.397  0.00  0.00    +0.000 A 
ATOM      6  C   UNL     1       6.973   6.759  17.195  0.00  0.00    +0.000 A 
ATOM      7  C   UNL     1       5.930   5.818  17.014  0.00  0.00    +0.000 A 
BRANCH   2   8
ATOM      8  C   UNL     1       4.541   3.917  18.126  0.00  0.00    +0.000 C 
ATOM      9  O   UNL     1       4.750   2.832  18.659  0.00  0.00    +0.000 OA
BRANCH   8  10
ATOM     10  C   UNL     1       3.137   4.250  17.607  0.00  0.00    +0.000 C 
BRANCH  10  11
ATOM     11  C   UNL     1       2.378   5.306  18.412  0.00  0.00    +0.000 C 
BRANCH  11  12
ATOM     12  C   UNL     1       2.117   4.827  19.837  0.00  0.00    +0.000 C 
BRANCH  12  14
ATOM     13  C   UNL     1       1.204   2.933  21.181  0.00  0.00    +0.000 C 
ATOM     14  C   UNL     1       1.071   3.720  19.888  0.00  0.00    +0.000 C 
ENDBRANCH  12  14
ENDBRANCH  11  12
ENDBRANCH  10  11
ENDBRANCH   8  10
ENDBRANCH   2   8
BRANCH   7  15
ATOM     15  O   UNL     1       5.424   5.935  15.751  0.00  0.00    +0.000 OA
ATOM     16  C   UNL     1       5.712   5.002  14.729  0.00  0.00    +0.000 C 
ENDBRANCH   7  15
ENDBRANCH   1   5
BRANCH   1  17
ATOM     17  C   UNL     1       8.280   9.126  18.037  0.00  0.00    +0.000 C 
BRANCH  17  18
ATOM     18  C   UNL     1       9.140  10.173  18.694  0.00  0.00    +0.000 A 
ATOM     19  C   UNL     1      10.190  10.757  17.976  0.00  0.00    +0.000 A 
ATOM     20  C   UNL     1      11.027  11.683  18.588  0.00  0.00    +0.000 A 
ATOM     21  C   UNL     1      10.812  12.047  19.916  0.00  0.00    +0.000 A 
ATOM     22  C   UNL     1       9.756  11.497  20.643  0.00  0.00    +0.000 A 
ATOM     23  C   UNL     1       8.927  10.546  20.029  0.00  0.00    +0.000 A 
BRANCH  22  24
ATOM     24  N   UNL     1       9.477  11.836  21.981  0.00  0.00    +0.000 N 
ATOM     25  C   UNL     1       8.856  12.980  22.434  0.00  0.00    +0.000 C 
ATOM     26  O   UNL     1       8.470  13.914  21.730  0.00  0.00    +0.000 OA
ATOM     27  H   UNL     1       9.642  11.094  22.663  0.00  0.00    +0.000 HD
BRANCH  25  28
ATOM     28  C   UNL     1       8.692  13.094  23.934  0.00  0.00    +0.000 C 
BRANCH  28  29
ATOM     29  C   UNL     1       7.607  12.256  24.531  0.00  0.00    +0.000 C 
ATOM     30  O   UNL     1       7.323  11.128  24.158  0.00  0.00    +0.000 OA
BRANCH  29  31
ATOM     31  O   UNL     1       7.006  12.905  25.567  0.00  0.00    +0.000 OA
ATOM     32  C   UNL     1       7.340  12.374  26.846  0.00  0.00    +0.000 C 
ENDBRANCH  29  31
ENDBRANCH  28  29
ENDBRANCH  25  28
ENDBRANCH  22  24
ENDBRANCH  17  18
ENDBRANCH   1  17
TORSDOF 13
ENDMDL
MODEL 7
REMARK VINA RESULT:      -7.1      4.382      8.570
REMARK  Name = 
REMARK  16 active torsions:
REMARK  status: ('A' for Active; 'I' for Inactive)
REMARK    1  A    between atoms: C_1  and  C_2
REMARK    2  A    between atoms: C_2  and  C_3
REMARK    3  A    between atoms: C_3  and  C_4
REMARK    4  A    between atoms: C_4  and  C_5
REMARK    5  A    between atoms: C_5  and  C_6
REMARK    6  A    between atoms: C_6  and  C_8
REMARK    7  A    between atoms: C_11  and  O_12
REMARK    8  A    between atoms: O_12  and  C_13
REMARK    9  A    between atoms: C_13  and  C_14
REMARK   10  A    between atoms: C_18  and  N_19
REMARK   11  A    between atoms: C_20  and  C_22
REMARK   12  A    between atoms: C_22  and  C_23
REMARK   13  A    between atoms: C_23  and  O_25
REMARK   14  A    between atoms: O_25  and  C_26
REMARK   15  A    between atoms: C_29  and  O_30
REMARK   16  A    between atoms: O_30  and  C_31
REMARK                            x       y       z     vdW  Elec       q    Type
REMARK                         _______ _______ _______ _____ _____    ______ ____
ROOT
ATOM      1  O   UNL     1       7.547   8.394  17.430  0.00  0.00    +0.000 OA
ENDROOT
BRANCH   1   5
ATOM      2  C   UNL     1       9.552  11.671  19.125  0.00  0.00    +0.000 A 
ATOM      3  C   UNL     1       9.679  10.384  19.686  0.00  0.00    +0.000 A 
ATOM      4  C   UNL     1       9.073   9.268  19.121  0.00  0.00    +0.000 A 
ATOM      5  C   UNL     1       8.246   9.415  18.020  0.00  0.00    +0.000 A 
ATOM      6  C   UNL     1       8.091  10.686  17.464  0.00  0.00    +0.000 A 
ATOM      7  C   UNL     1       8.735  11.831  17.993  0.00  0.00    +0.000 A 
BRANCH   2   8
ATOM      8  C   UNL     1      10.323  12.730  19.851  0.00  0.00    +0.000 C 
ATOM      9  O   UNL     1      11.298  13.269  19.337  0.00  0.00    +0.000 OA
BRANCH   8  10
ATOM     10  C   UNL     1       9.798  13.239  21.199  0.00  0.00    +0.000 C 
BRANCH  10  11
ATOM     11  C   UNL     1       8.348  13.726  21.191  0.00  0.00    +0.000 C 
BRANCH  11  12
ATOM     12  C   UNL     1       7.659  13.420  22.517  0.00  0.00    +0.000 C 
BRANCH  12  14
ATOM     13  C   UNL     1       8.138  11.688  24.248  0.00  0.00    +0.000 C 
ATOM     14  C   UNL     1       7.650  11.929  22.829  0.00  0.00    +0.000 C 
ENDBRANCH  12  14
ENDBRANCH  11  12
ENDBRANCH  10  11
ENDBRANCH   8  10
ENDBRANCH   2   8
BRANCH   7  15
ATOM     15  O   UNL     1       8.413  12.925  17.242  0.00  0.00    +0.000 OA
ATOM     16  C   UNL     1       7.277  13.722  17.510  0.00  0.00    +0.000 C 
ENDBRANCH   7  15
ENDBRANCH   1   5
BRANCH   1  17
ATOM     17  C   UNL     1       7.614   7.151  18.136  0.00  0.00    +0.000 C 
BRANCH  17  18
ATOM     18  C   UNL     1       6.761   6.105  17.469  0.00  0.00    +0.000 A 
ATOM     19  C   UNL     1       7.009   5.758  16.136  0.00  0.00    +0.000 A 
ATOM     20  C   UNL     1       6.194   4.834  15.489  0.00  0.00    +0.000 A 
ATOM     21  C   UNL     1       5.137   4.238  16.174  0.00  0.00    +0.000 A 
ATOM     22  C   UNL     1       4.887   4.550  17.510  0.00  0.00    +0.000 A 
ATOM     23  C   UNL     1       5.697   5.498  18.152  0.00  0.00    +0.000 A 
BRANCH  22  24
ATOM     24  N   UNL     1       3.846   3.970  18.260  0.00  0.00    +0.000 N 
ATOM     25  C   UNL     1       3.974   3.083  19.308  0.00  0.00    +0.000 C 
ATOM     26  O   UNL     1       5.034   2.628  19.738  0.00  0.00    +0.000 OA
ATOM     27  H   UNL     1       2.915   4.350  18.083  0.00  0.00    +0.000 HD
BRANCH  25  28
ATOM     28  C   UNL     1       2.680   2.607  19.932  0.00  0.00    +0.000 C 
BRANCH  28  29
ATOM     29  C   UNL     1       2.075   3.524  20.946  0.00  0.00    +0.000 C 
ATOM     30  O   UNL     1       2.238   3.420  22.152  0.00  0.00    +0.000 OA
BRANCH  29  31
ATOM     31  O   UNL     1       1.352   4.508  20.342  0.00  0.00    +0.000 OA
ATOM     32  C   UNL     1       1.789   5.824  20.670  0.00  0.00    +0.000 C 
ENDBRANCH  29  31
ENDBRANCH  28  29
ENDBRANCH  25  28
ENDBRANCH  22  24
ENDBRANCH  17  18
ENDBRANCH   1  17
TORSDOF 13
ENDMDL
MODEL 8
REMARK VINA RESULT:      -7.0      3.587      6.920
REMARK  Name = 
REMARK  16 active torsions:
REMARK  status: ('A' for Active; 'I' for Inactive)
REMARK    1  A    between atoms: C_1  and  C_2
REMARK    2  A    between atoms: C_2  and  C_3
REMARK    3  A    between atoms: C_3  and  C_4
REMARK    4  A    between atoms: C_4  and  C_5
REMARK    5  A    between atoms: C_5  and  C_6
REMARK    6  A    between atoms: C_6  and  C_8
REMARK    7  A    between atoms: C_11  and  O_12
REMARK    8  A    between atoms: O_12  and  C_13
REMARK    9  A    between atoms: C_13  and  C_14
REMARK   10  A    between atoms: C_18  and  N_19
REMARK   11  A    between atoms: C_20  and  C_22
REMARK   12  A    between atoms: C_22  and  C_23
REMARK   13  A    between atoms: C_23  and  O_25
REMARK   14  A    between atoms: O_25  and  C_26
REMARK   15  A    between atoms: C_29  and  O_30
REMARK   16  A    between atoms: O_30  and  C_31
REMARK                            x       y       z     vdW  Elec       q    Type
REMARK                         _______ _______ _______ _____ _____    ______ ____
ROOT
ATOM      1  O   UNL     1       1.691   9.373  18.206  0.00  0.00    +0.000 OA
ENDROOT
BRANCH   1   5
ATOM      2  C   UNL     1       3.995   5.884  18.588  0.00  0.00    +0.000 A 
ATOM      3  C   UNL     1       2.993   6.188  19.530  0.00  0.00    +0.000 A 
ATOM      4  C   UNL     1       2.175   7.305  19.406  0.00  0.00    +0.000 A 
ATOM      5  C   UNL     1       2.391   8.207  18.377  0.00  0.00    +0.000 A 
ATOM      6  C   UNL     1       3.395   7.934  17.447  0.00  0.00    +0.000 A 
ATOM      7  C   UNL     1       4.210   6.778  17.526  0.00  0.00    +0.000 A 
BRANCH   2   8
ATOM      8  C   UNL     1       4.731   4.610  18.871  0.00  0.00    +0.000 C 
ATOM      9  O   UNL     1       5.847   4.622  19.382  0.00  0.00    +0.000 OA
BRANCH   8  10
ATOM     10  C   UNL     1       4.018   3.273  18.639  0.00  0.00    +0.000 C 
BRANCH  10  11
ATOM     11  C   UNL     1       3.036   3.253  17.466  0.00  0.00    +0.000 C 
BRANCH  11  12
ATOM     12  C   UNL     1       1.609   3.511  17.940  0.00  0.00    +0.000 C 
BRANCH  12  14
ATOM     13  C   UNL     1       0.820   3.263  20.295  0.00  0.00    +0.000 C 
ATOM     14  C   UNL     1       1.173   2.523  19.015  0.00  0.00    +0.000 C 
ENDBRANCH  12  14
ENDBRANCH  11  12
ENDBRANCH  10  11
ENDBRANCH   8  10
ENDBRANCH   2   8
BRANCH   7  15
ATOM     15  O   UNL     1       5.089   6.767  16.480  0.00  0.00    +0.000 OA
ATOM     16  C   UNL     1       5.334   5.610  15.707  0.00  0.00    +0.000 C 
ENDBRANCH   7  15
ENDBRANCH   1   5
BRANCH   1  17
ATOM     17  C   UNL     1       0.840   9.716  19.304  0.00  0.00    +0.000 C 
BRANCH  17  18
ATOM     18  C   UNL     1      -0.453  10.313  18.818  0.00  0.00    +0.000 A 
ATOM     19  C   UNL     1      -1.029   9.845  17.632  0.00  0.00    +0.000 A 
ATOM     20  C   UNL     1      -2.194  10.426  17.141  0.00  0.00    +0.000 A 
ATOM     21  C   UNL     1      -2.802  11.468  17.841  0.00  0.00    +0.000 A 
ATOM     22  C   UNL     1      -2.259  11.933  19.039  0.00  0.00    +0.000 A 
ATOM     23  C   UNL     1      -1.072  11.359  19.518  0.00  0.00    +0.000 A 
BRANCH  22  24
ATOM     24  N   UNL     1      -2.834  12.969  19.799  0.00  0.00    +0.000 N 
ATOM     25  C   UNL     1      -4.109  13.003  20.323  0.00  0.00    +0.000 C 
ATOM     26  O   UNL     1      -4.969  12.134  20.178  0.00  0.00    +0.000 OA
ATOM     27  H   UNL     1      -2.190  13.706  20.092  0.00  0.00    +0.000 HD
BRANCH  25  28
ATOM     28  C   UNL     1      -4.473  14.253  21.096  0.00  0.00    +0.000 C 
BRANCH  28  29
ATOM     29  C   UNL     1      -4.037  14.277  22.526  0.00  0.00    +0.000 C 
ATOM     30  O   UNL     1      -4.798  14.203  23.479  0.00  0.00    +0.000 OA
BRANCH  29  31
ATOM     31  O   UNL     1      -2.681  14.356  22.621  0.00  0.00    +0.000 OA
ATOM     32  C   UNL     1      -2.152  15.624  22.245  0.00  0.00    +0.000 C 
ENDBRANCH  29  31
ENDBRANCH  28  29
ENDBRANCH  25  28
ENDBRANCH  22  24
ENDBRANCH  17  18
ENDBRANCH   1  17
TORSDOF 13
ENDMDL
MODEL 9
REMARK VINA RESULT:      -7.0      2.685      9.256
REMARK  Name = 
REMARK  16 active torsions:
REMARK  status: ('A' for Active; 'I' for Inactive)
REMARK    1  A    between atoms: C_1  and  C_2
REMARK    2  A    between atoms: C_2  and  C_3
REMARK    3  A    between atoms: C_3  and  C_4
REMARK    4  A    between atoms: C_4  and  C_5
REMARK    5  A    between atoms: C_5  and  C_6
REMARK    6  A    between atoms: C_6  and  C_8
REMARK    7  A    between atoms: C_11  and  O_12
REMARK    8  A    between atoms: O_12  and  C_13
REMARK    9  A    between atoms: C_13  and  C_14
REMARK   10  A    between atoms: C_18  and  N_19
REMARK   11  A    between atoms: C_20  and  C_22
REMARK   12  A    between atoms: C_22  and  C_23
REMARK   13  A    between atoms: C_23  and  O_25
REMARK   14  A    between atoms: O_25  and  C_26
REMARK   15  A    between atoms: C_29  and  O_30
REMARK   16  A    between atoms: O_30  and  C_31
REMARK                            x       y       z     vdW  Elec       q    Type
REMARK                         _______ _______ _______ _____ _____    ______ ____
ROOT
ATOM      1  O   UNL     1       2.282   6.407  20.616  0.00  0.00    +0.000 OA
ENDROOT
BRANCH   1   5
ATOM      2  C   UNL     1       0.988  10.279  19.634  0.00  0.00    +0.000 A 
ATOM      3  C   UNL     1       1.474   9.410  18.636  0.00  0.00    +0.000 A 
ATOM      4  C   UNL     1       1.860   8.105  18.916  0.00  0.00    +0.000 A 
ATOM      5  C   UNL     1       1.855   7.649  20.224  0.00  0.00    +0.000 A 
ATOM      6  C   UNL     1       1.398   8.503  21.229  0.00  0.00    +0.000 A 
ATOM      7  C   UNL     1       0.955   9.822  20.962  0.00  0.00    +0.000 A 
BRANCH   2   8
ATOM      8  C   UNL     1       0.575  11.624  19.122  0.00  0.00    +0.000 C 
ATOM      9  O   UNL     1      -0.462  11.768  18.481  0.00  0.00    +0.000 OA
BRANCH   8  10
ATOM     10  C   UNL     1       1.395  12.856  19.525  0.00  0.00    +0.000 C 
BRANCH  10  11
ATOM     11  C   UNL     1       1.955  13.674  18.359  0.00  0.00    +0.000 C 
BRANCH  11  12
ATOM     12  C   UNL     1       2.702  14.905  18.863  0.00  0.00    +0.000 C 
BRANCH  12  14
ATOM     13  C   UNL     1       2.953  16.816  17.278  0.00  0.00    +0.000 C 
ATOM     14  C   UNL     1       2.079  16.202  18.359  0.00  0.00    +0.000 C 
ENDBRANCH  12  14
ENDBRANCH  11  12
ENDBRANCH  10  11
ENDBRANCH   8  10
ENDBRANCH   2   8
BRANCH   7  15
ATOM     15  O   UNL     1       0.556  10.413  22.127  0.00  0.00    +0.000 OA
ATOM     16  C   UNL     1      -0.781  10.811  22.355  0.00  0.00    +0.000 C 
ENDBRANCH   7  15
ENDBRANCH   1   5
BRANCH   1  17
ATOM     17  C   UNL     1       1.311   5.370  20.447  0.00  0.00    +0.000 C 
BRANCH  17  18
ATOM     18  C   UNL     1       1.833   4.282  19.547  0.00  0.00    +0.000 A 
ATOM     19  C   UNL     1       1.052   3.145  19.311  0.00  0.00    +0.000 A 
ATOM     20  C   UNL     1       1.545   2.106  18.528  0.00  0.00    +0.000 A 
ATOM     21  C   UNL     1       2.814   2.203  17.960  0.00  0.00    +0.000 A 
ATOM     22  C   UNL     1       3.600   3.338  18.161  0.00  0.00    +0.000 A 
ATOM     23  C   UNL     1       3.108   4.374  18.969  0.00  0.00    +0.000 A 
BRANCH  22  24
ATOM     24  N   UNL     1       4.882   3.503  17.601  0.00  0.00    +0.000 N 
ATOM     25  C   UNL     1       5.483   4.691  17.244  0.00  0.00    +0.000 C 
ATOM     26  O   UNL     1       4.974   5.809  17.330  0.00  0.00    +0.000 OA
ATOM     27  H   UNL     1       5.461   2.662  17.581  0.00  0.00    +0.000 HD
BRANCH  25  28
ATOM     28  C   UNL     1       6.871   4.576  16.650  0.00  0.00    +0.000 C 
BRANCH  28  29
ATOM     29  C   UNL     1       6.948   4.683  15.161  0.00  0.00    +0.000 C 
ATOM     30  O   UNL     1       7.745   5.389  14.562  0.00  0.00    +0.000 OA
BRANCH  29  31
ATOM     31  O   UNL     1       6.040   3.861  14.566  0.00  0.00    +0.000 OA
ATOM     32  C   UNL     1       6.228   3.720  13.161  0.00  0.00    +0.000 C 
ENDBRANCH  29  31
ENDBRANCH  28  29
ENDBRANCH  25  28
ENDBRANCH  22  24
ENDBRANCH  17  18
ENDBRANCH   1  17
TORSDOF 13
ENDMDL
