MODEL 1
REMARK VINA RESULT:      -7.1      0.000      0.000
REMARK  Name = 
REMARK  9 active torsions:
REMARK  status: ('A' for Active; 'I' for Inactive)
REMARK    1  A    between atoms: C_1  and  O_2
REMARK    2  A    between atoms: O_2  and  C_3
REMARK    3  A    between atoms: C_5  and  O_6
REMARK    4  A    between atoms: O_6  and  C_7
REMARK    5  A    between atoms: C_8  and  O_9
REMARK    6  A    between atoms: O_9  and  C_10
REMARK    7  A    between atoms: C_12  and  C_13
REMARK    8  A    between atoms: N_14  and  N_15
REMARK    9  A    between atoms: N_18  and  O_19
REMARK                            x       y       z     vdW  Elec       q    Type
REMARK                         _______ _______ _______ _____ _____    ______ ____
ROOT
ATOM      1  C   UNL     1       5.336   4.299  18.328  0.00  0.00    +0.000 A 
ATOM      2  C   UNL     1       4.753   3.865  19.525  0.00  0.00    +0.000 A 
ATOM      3  C   UNL     1       3.388   3.571  19.634  0.00  0.00    +0.000 A 
ATOM      4  C   UNL     1       2.563   3.809  18.535  0.00  0.00    +0.000 A 
ATOM      5  C   UNL     1       3.144   4.182  17.310  0.00  0.00    +0.000 A 
ATOM      6  C   UNL     1       4.533   4.389  17.187  0.00  0.00    +0.000 A 
ENDROOT
BRANCH   1   8
ATOM      7  C   UNL     1       7.290   5.580  18.804  0.00  0.00    +0.000 C 
ATOM      8  O   UNL     1       6.701   4.359  18.378  0.00  0.00    +0.000 OA
ENDBRANCH   1   8
BRANCH   3   9
ATOM      9  O   UNL     1       3.085   2.980  20.827  0.00  0.00    +0.000 OA
ATOM     10  C   UNL     1       2.242   3.636  21.760  0.00  0.00    +0.000 C 
ENDBRANCH   3   9
BRANCH   4  11
ATOM     11  O   UNL     1       1.219   3.572  18.623  0.00  0.00    +0.000 OA
ATOM     12  C   UNL     1       0.845   2.195  18.654  0.00  0.00    +0.000 C 
ENDBRANCH   4  11
BRANCH   6  13
ATOM     13  C   UNL     1       5.096   4.529  15.824  0.00  0.00    +0.000 C 
ATOM     14  N   UNL     1       5.789   3.584  15.262  0.00  0.00    +0.000 NA
BRANCH  14  15
ATOM     15  N   UNL     1       6.301   4.017  14.029  0.00  0.00    +0.000 NA
ATOM     16  C   UNL     1       7.192   4.958  14.138  0.00  0.00    +0.000 C 
ATOM     17  N   UNL     1       7.616   5.492  15.328  0.00  0.00    +0.000 N 
ATOM     18  N   UNL     1       7.775   5.533  13.039  0.00  0.00    +0.000 N 
ATOM     19  H   UNL     1       7.308   4.873  16.074  0.00  0.00    +0.000 HD
ATOM     20  H   UNL     1       8.621   5.615  15.322  0.00  0.00    +0.000 HD
ATOM     21  H   UNL     1       7.665   4.972  12.198  0.00  0.00    +0.000 HD
BRANCH  18  22
ATOM     22  O   UNL     1       9.060   6.048  13.240  0.00  0.00    +0.000 OA
ATOM     23  H   UNL     1       9.116   6.734  12.545  0.00  0.00    +0.000 HD
ENDBRANCH  18  22
ENDBRANCH  14  15
ENDBRANCH   6  13
TORSDOF 6
ENDMDL
MODEL 2
REMARK VINA RESULT:      -7.1      1.057      1.062
REMARK  Name = 
REMARK  9 active torsions:
REMARK  status: ('A' for Active; 'I' for Inactive)
REMARK    1  A    between atoms: C_1  and  O_2
REMARK    2  A    between atoms: O_2  and  C_3
REMARK    3  A    between atoms: C_5  and  O_6
REMARK    4  A    between atoms: O_6  and  C_7
REMARK    5  A    between atoms: C_8  and  O_9
REMARK    6  A    between atoms: O_9  and  C_10
REMARK    7  A    between atoms: C_12  and  C_13
REMARK    8  A    between atoms: N_14  and  N_15
REMARK    9  A    between atoms: N_18  and  O_19
REMARK                            x       y       z     vdW  Elec       q    Type
REMARK                         _______ _______ _______ _____ _____    ______ ____
ROOT
ATOM      1  C   UNL     1       4.340   5.479  18.488  0.00  0.00    +0.000 A 
ATOM      2  C   UNL     1       3.689   5.370  19.724  0.00  0.00    +0.000 A 
ATOM      3  C   UNL     1       2.494   4.658  19.886  0.00  0.00    +0.000 A 
ATOM      4  C   UNL     1       1.881   4.116  18.756  0.00  0.00    +0.000 A 
ATOM      5  C   UNL     1       2.554   4.163  17.523  0.00  0.00    +0.000 A 
ATOM      6  C   UNL     1       3.801   4.805  17.388  0.00  0.00    +0.000 A 
ENDROOT
BRANCH   1   8
ATOM      7  C   UNL     1       6.592   5.338  19.257  0.00  0.00    +0.000 C 
ATOM      8  O   UNL     1       5.575   6.057  18.573  0.00  0.00    +0.000 OA
ENDBRANCH   1   8
BRANCH   3   9
ATOM      9  O   UNL     1       2.154   4.521  21.201  0.00  0.00    +0.000 OA
ATOM     10  C   UNL     1       2.215   3.252  21.831  0.00  0.00    +0.000 C 
ENDBRANCH   3   9
BRANCH   4  11
ATOM     11  O   UNL     1       0.691   3.452  18.875  0.00  0.00    +0.000 OA
ATOM     12  C   UNL     1       0.771   2.033  18.738  0.00  0.00    +0.000 C 
ENDBRANCH   4  11
BRANCH   6  13
ATOM     13  C   UNL     1       4.559   4.593  16.133  0.00  0.00    +0.000 C 
ATOM     14  N   UNL     1       5.650   3.887  16.095  0.00  0.00    +0.000 NA
BRANCH  14  15
ATOM     15  N   UNL     1       6.228   3.945  14.817  0.00  0.00    +0.000 NA
ATOM     16  C   UNL     1       7.018   4.965  14.650  0.00  0.00    +0.000 C 
ATOM     17  N   UNL     1       7.286   5.905  15.612  0.00  0.00    +0.000 N 
ATOM     18  N   UNL     1       7.643   5.208  13.455  0.00  0.00    +0.000 N 
ATOM     19  H   UNL     1       6.970   5.536  16.505  0.00  0.00    +0.000 HD
ATOM     20  H   UNL     1       8.273   6.133  15.619  0.00  0.00    +0.000 HD
ATOM     21  H   UNL     1       7.658   4.392  12.847  0.00  0.00    +0.000 HD
BRANCH  18  22
ATOM     22  O   UNL     1       8.853   5.903  13.539  0.00  0.00    +0.000 OA
ATOM     23  H   UNL     1       9.323   5.410  14.242  0.00  0.00    +0.000 HD
ENDBRANCH  18  22
ENDBRANCH  14  15
ENDBRANCH   6  13
TORSDOF 6
ENDMDL
MODEL 3
REMARK VINA RESULT:      -7.1      1.992      2.487
REMARK  Name = 
REMARK  9 active torsions:
REMARK  status: ('A' for Active; 'I' for Inactive)
REMARK    1  A    between atoms: C_1  and  O_2
REMARK    2  A    between atoms: O_2  and  C_3
REMARK    3  A    between atoms: C_5  and  O_6
REMARK    4  A    between atoms: O_6  and  C_7
REMARK    5  A    between atoms: C_8  and  O_9
REMARK    6  A    between atoms: O_9  and  C_10
REMARK    7  A    between atoms: C_12  and  C_13
REMARK    8  A    between atoms: N_14  and  N_15
REMARK    9  A    between atoms: N_18  and  O_19
REMARK                            x       y       z     vdW  Elec       q    Type
REMARK                         _______ _______ _______ _____ _____    ______ ____
ROOT
ATOM      1  C   UNL     1       2.976   6.190  18.289  0.00  0.00    +0.000 A 
ATOM      2  C   UNL     1       2.174   5.676  19.316  0.00  0.00    +0.000 A 
ATOM      3  C   UNL     1       2.001   4.300  19.519  0.00  0.00    +0.000 A 
ATOM      4  C   UNL     1       2.573   3.413  18.606  0.00  0.00    +0.000 A 
ATOM      5  C   UNL     1       3.431   3.913  17.611  0.00  0.00    +0.000 A 
ATOM      6  C   UNL     1       3.671   5.294  17.471  0.00  0.00    +0.000 A 
ENDROOT
BRANCH   1   8
ATOM      7  C   UNL     1       2.113   8.377  17.893  0.00  0.00    +0.000 C 
ATOM      8  O   UNL     1       3.160   7.542  18.368  0.00  0.00    +0.000 OA
ENDBRANCH   1   8
BRANCH   3   9
ATOM      9  O   UNL     1       1.347   4.034  20.687  0.00  0.00    +0.000 OA
ATOM     10  C   UNL     1       2.016   3.378  21.752  0.00  0.00    +0.000 C 
ENDBRANCH   3   9
BRANCH   4  11
ATOM     11  O   UNL     1       2.387   2.066  18.752  0.00  0.00    +0.000 OA
ATOM     12  C   UNL     1       3.561   1.270  18.597  0.00  0.00    +0.000 C 
ENDBRANCH   4  11
BRANCH   6  13
ATOM     13  C   UNL     1       4.771   5.721  16.576  0.00  0.00    +0.000 C 
ATOM     14  N   UNL     1       5.785   4.951  16.311  0.00  0.00    +0.000 NA
BRANCH  14  15
ATOM     15  N   UNL     1       6.734   5.638  15.539  0.00  0.00    +0.000 NA
ATOM     16  C   UNL     1       7.049   5.025  14.435  0.00  0.00    +0.000 C 
ATOM     17  N   UNL     1       6.516   3.826  14.034  0.00  0.00    +0.000 N 
ATOM     18  N   UNL     1       7.988   5.525  13.571  0.00  0.00    +0.000 N 
ATOM     19  H   UNL     1       5.693   3.645  14.603  0.00  0.00    +0.000 HD
ATOM     20  H   UNL     1       6.301   3.848  13.045  0.00  0.00    +0.000 HD
ATOM     21  H   UNL     1       8.178   6.512  13.728  0.00  0.00    +0.000 HD
BRANCH  18  22
ATOM     22  O   UNL     1       7.826   5.162  12.231  0.00  0.00    +0.000 OA
ATOM     23  H   UNL     1       7.004   5.633  11.989  0.00  0.00    +0.000 HD
ENDBRANCH  18  22
ENDBRANCH  14  15
ENDBRANCH   6  13
TORSDOF 6
ENDMDL
MODEL 4
REMARK VINA RESULT:      -7.0      1.923      2.550
REMARK  Name = 
REMARK  9 active torsions:
REMARK  status: ('A' for Active; 'I' for Inactive)
REMARK    1  A    between atoms: C_1  and  O_2
REMARK    2  A    between atoms: O_2  and  C_3
REMARK    3  A    between atoms: C_5  and  O_6
REMARK    4  A    between atoms: O_6  and  C_7
REMARK    5  A    between atoms: C_8  and  O_9
REMARK    6  A    between atoms: O_9  and  C_10
REMARK    7  A    between atoms: C_12  and  C_13
REMARK    8  A    between atoms: N_14  and  N_15
REMARK    9  A    between atoms: N_18  and  O_19
REMARK                            x       y       z     vdW  Elec       q    Type
REMARK                         _______ _______ _______ _____ _____    ______ ____
ROOT
ATOM      1  C   UNL     1       3.774   3.375  18.105  0.00  0.00    +0.000 A 
ATOM      2  C   UNL     1       2.913   3.525  19.199  0.00  0.00    +0.000 A 
ATOM      3  C   UNL     1       2.466   4.777  19.640  0.00  0.00    +0.000 A 
ATOM      4  C   UNL     1       2.974   5.922  19.025  0.00  0.00    +0.000 A 
ATOM      5  C   UNL     1       3.787   5.785  17.887  0.00  0.00    +0.000 A 
ATOM      6  C   UNL     1       4.158   4.517  17.396  0.00  0.00    +0.000 A 
ENDROOT
BRANCH   1   8
ATOM      7  C   UNL     1       3.785   1.071  18.717  0.00  0.00    +0.000 C 
ATOM      8  O   UNL     1       3.947   2.074  17.724  0.00  0.00    +0.000 OA
ENDBRANCH   1   8
BRANCH   3   9
ATOM      9  O   UNL     1       1.487   4.669  20.585  0.00  0.00    +0.000 OA
ATOM     10  C   UNL     1       1.282   3.444  21.270  0.00  0.00    +0.000 C 
ENDBRANCH   3   9
BRANCH   4  11
ATOM     11  O   UNL     1       2.591   7.160  19.461  0.00  0.00    +0.000 OA
ATOM     12  C   UNL     1       2.259   8.091  18.431  0.00  0.00    +0.000 C 
ENDBRANCH   4  11
BRANCH   6  13
ATOM     13  C   UNL     1       4.796   4.449  16.061  0.00  0.00    +0.000 C 
ATOM     14  N   UNL     1       5.911   3.810  15.859  0.00  0.00    +0.000 NA
BRANCH  14  15
ATOM     15  N   UNL     1       6.355   4.002  14.542  0.00  0.00    +0.000 NA
ATOM     16  C   UNL     1       7.181   4.998  14.411  0.00  0.00    +0.000 C 
ATOM     17  N   UNL     1       7.602   5.799  15.443  0.00  0.00    +0.000 N 
ATOM     18  N   UNL     1       7.691   5.361  13.191  0.00  0.00    +0.000 N 
ATOM     19  H   UNL     1       7.360   5.335  16.314  0.00  0.00    +0.000 HD
ATOM     20  H   UNL     1       8.596   5.979  15.367  0.00  0.00    +0.000 HD
ATOM     21  H   UNL     1       7.595   4.628  12.493  0.00  0.00    +0.000 HD
BRANCH  18  22
ATOM     22  O   UNL     1       8.941   5.985  13.224  0.00  0.00    +0.000 OA
ATOM     23  H   UNL     1       9.496   5.310  13.663  0.00  0.00    +0.000 HD
ENDBRANCH  18  22
ENDBRANCH  14  15
ENDBRANCH   6  13
TORSDOF 6
ENDMDL
MODEL 5
REMARK VINA RESULT:      -6.6      4.670      7.181
REMARK  Name = 
REMARK  9 active torsions:
REMARK  status: ('A' for Active; 'I' for Inactive)
REMARK    1  A    between atoms: C_1  and  O_2
REMARK    2  A    between atoms: O_2  and  C_3
REMARK    3  A    between atoms: C_5  and  O_6
REMARK    4  A    between atoms: O_6  and  C_7
REMARK    5  A    between atoms: C_8  and  O_9
REMARK    6  A    between atoms: O_9  and  C_10
REMARK    7  A    between atoms: C_12  and  C_13
REMARK    8  A    between atoms: N_14  and  N_15
REMARK    9  A    between atoms: N_18  and  O_19
REMARK                            x       y       z     vdW  Elec       q    Type
REMARK                         _______ _______ _______ _____ _____    ______ ____
ROOT
ATOM      1  C   UNL     1       3.376   4.464  17.579  0.00  0.00    +0.000 A 
ATOM      2  C   UNL     1       4.283   3.954  16.642  0.00  0.00    +0.000 A 
ATOM      3  C   UNL     1       5.452   4.635  16.278  0.00  0.00    +0.000 A 
ATOM      4  C   UNL     1       5.671   5.911  16.797  0.00  0.00    +0.000 A 
ATOM      5  C   UNL     1       4.802   6.407  17.786  0.00  0.00    +0.000 A 
ATOM      6  C   UNL     1       3.677   5.673  18.211  0.00  0.00    +0.000 A 
ENDROOT
BRANCH   1   8
ATOM      7  C   UNL     1       2.714   2.191  17.859  0.00  0.00    +0.000 C 
ATOM      8  O   UNL     1       2.399   3.575  17.929  0.00  0.00    +0.000 OA
ENDBRANCH   1   8
BRANCH   3   9
ATOM      9  O   UNL     1       6.275   3.865  15.508  0.00  0.00    +0.000 OA
ATOM     10  C   UNL     1       6.240   3.966  14.094  0.00  0.00    +0.000 C 
ENDBRANCH   3   9
BRANCH   4  11
ATOM     11  O   UNL     1       6.781   6.620  16.428  0.00  0.00    +0.000 OA
ATOM     12  C   UNL     1       7.459   7.284  17.494  0.00  0.00    +0.000 C 
ENDBRANCH   4  11
BRANCH   6  13
ATOM     13  C   UNL     1       2.962   6.139  19.422  0.00  0.00    +0.000 C 
ATOM     14  N   UNL     1       2.210   7.199  19.417  0.00  0.00    +0.000 NA
BRANCH  14  15
ATOM     15  N   UNL     1       1.750   7.483  20.711  0.00  0.00    +0.000 NA
ATOM     16  C   UNL     1       1.161   8.639  20.813  0.00  0.00    +0.000 C 
ATOM     17  N   UNL     1       0.985   9.514  19.772  0.00  0.00    +0.000 N 
ATOM     18  N   UNL     1       0.681   9.104  22.010  0.00  0.00    +0.000 N 
ATOM     19  H   UNL     1       1.163   9.010  18.908  0.00  0.00    +0.000 HD
ATOM     20  H   UNL     1       0.054   9.912  19.799  0.00  0.00    +0.000 HD
ATOM     21  H   UNL     1       0.573   8.367  22.702  0.00  0.00    +0.000 HD
BRANCH  18  22
ATOM     22  O   UNL     1      -0.395   9.992  21.922  0.00  0.00    +0.000 OA
ATOM     23  H   UNL     1      -0.613  10.143  22.863  0.00  0.00    +0.000 HD
ENDBRANCH  18  22
ENDBRANCH  14  15
ENDBRANCH   6  13
TORSDOF 6
ENDMDL
MODEL 6
REMARK VINA RESULT:      -6.5      4.908      5.782
REMARK  Name = 
REMARK  9 active torsions:
REMARK  status: ('A' for Active; 'I' for Inactive)
REMARK    1  A    between atoms: C_1  and  O_2
REMARK    2  A    between atoms: O_2  and  C_3
REMARK    3  A    between atoms: C_5  and  O_6
REMARK    4  A    between atoms: O_6  and  C_7
REMARK    5  A    between atoms: C_8  and  O_9
REMARK    6  A    between atoms: O_9  and  C_10
REMARK    7  A    between atoms: C_12  and  C_13
REMARK    8  A    between atoms: N_14  and  N_15
REMARK    9  A    between atoms: N_18  and  O_19
REMARK                            x       y       z     vdW  Elec       q    Type
REMARK                         _______ _______ _______ _____ _____    ______ ____
ROOT
ATOM      1  C   UNL     1       4.073   5.546  17.325  0.00  0.00    +0.000 A 
ATOM      2  C   UNL     1       3.909   4.155  17.341  0.00  0.00    +0.000 A 
ATOM      3  C   UNL     1       2.876   3.527  18.049  0.00  0.00    +0.000 A 
ATOM      4  C   UNL     1       2.038   4.310  18.844  0.00  0.00    +0.000 A 
ATOM      5  C   UNL     1       2.152   5.710  18.786  0.00  0.00    +0.000 A 
ATOM      6  C   UNL     1       3.138   6.337  17.999  0.00  0.00    +0.000 A 
ENDROOT
BRANCH   1   8
ATOM      7  C   UNL     1       5.539   5.016  15.521  0.00  0.00    +0.000 C 
ATOM      8  O   UNL     1       5.022   5.971  16.438  0.00  0.00    +0.000 OA
ENDBRANCH   1   8
BRANCH   3   9
ATOM      9  O   UNL     1       2.793   2.195  17.760  0.00  0.00    +0.000 OA
ATOM     10  C   UNL     1       3.627   1.262  18.426  0.00  0.00    +0.000 C 
ENDBRANCH   3   9
BRANCH   4  11
ATOM     11  O   UNL     1       1.047   3.722  19.580  0.00  0.00    +0.000 OA
ATOM     12  C   UNL     1       1.433   3.297  20.887  0.00  0.00    +0.000 C 
ENDBRANCH   4  11
BRANCH   6  13
ATOM     13  C   UNL     1       3.035   7.800  17.791  0.00  0.00    +0.000 C 
ATOM     14  N   UNL     1       1.947   8.461  18.057  0.00  0.00    +0.000 NA
BRANCH  14  15
ATOM     15  N   UNL     1       2.077   9.800  17.660  0.00  0.00    +0.000 NA
ATOM     16  C   UNL     1       1.495  10.641  18.465  0.00  0.00    +0.000 C 
ATOM     17  N   UNL     1       0.818  10.283  19.604  0.00  0.00    +0.000 N 
ATOM     18  N   UNL     1       1.484  11.989  18.220  0.00  0.00    +0.000 N 
ATOM     19  H   UNL     1       1.062   9.320  19.821  0.00  0.00    +0.000 HD
ATOM     20  H   UNL     1       1.044  10.915  20.362  0.00  0.00    +0.000 HD
ATOM     21  H   UNL     1       2.190  12.271  17.545  0.00  0.00    +0.000 HD
BRANCH  18  22
ATOM     22  O   UNL     1       1.390  12.805  19.351  0.00  0.00    +0.000 OA
ATOM     23  H   UNL     1       1.888  12.290  20.017  0.00  0.00    +0.000 HD
ENDBRANCH  18  22
ENDBRANCH  14  15
ENDBRANCH   6  13
TORSDOF 6
ENDMDL
MODEL 7
REMARK VINA RESULT:      -6.5      4.696      6.330
REMARK  Name = 
REMARK  9 active torsions:
REMARK  status: ('A' for Active; 'I' for Inactive)
REMARK    1  A    between atoms: C_1  and  O_2
REMARK    2  A    between atoms: O_2  and  C_3
REMARK    3  A    between atoms: C_5  and  O_6
REMARK    4  A    between atoms: O_6  and  C_7
REMARK    5  A    between atoms: C_8  and  O_9
REMARK    6  A    between atoms: O_9  and  C_10
REMARK    7  A    between atoms: C_12  and  C_13
REMARK    8  A    between atoms: N_14  and  N_15
REMARK    9  A    between atoms: N_18  and  O_19
REMARK                            x       y       z     vdW  Elec       q    Type
REMARK                         _______ _______ _______ _____ _____    ______ ____
ROOT
ATOM      1  C   UNL     1       3.091   5.015  17.936  0.00  0.00    +0.000 A 
ATOM      2  C   UNL     1       3.680   3.917  18.576  0.00  0.00    +0.000 A 
ATOM      3  C   UNL     1       4.979   3.958  19.099  0.00  0.00    +0.000 A 
ATOM      4  C   UNL     1       5.747   5.103  18.891  0.00  0.00    +0.000 A 
ATOM      5  C   UNL     1       5.148   6.234  18.309  0.00  0.00    +0.000 A 
ATOM      6  C   UNL     1       3.810   6.212  17.866  0.00  0.00    +0.000 A 
ENDROOT
BRANCH   1   8
ATOM      7  C   UNL     1       1.135   3.676  18.184  0.00  0.00    +0.000 C 
ATOM      8  O   UNL     1       1.765   4.836  17.659  0.00  0.00    +0.000 OA
ENDBRANCH   1   8
BRANCH   3   9
ATOM      9  O   UNL     1       5.265   2.852  19.846  0.00  0.00    +0.000 OA
ATOM     10  C   UNL     1       4.221   2.057  20.382  0.00  0.00    +0.000 C 
ENDBRANCH   3   9
BRANCH   4  11
ATOM     11  O   UNL     1       7.034   5.158  19.352  0.00  0.00    +0.000 OA
ATOM     12  C   UNL     1       7.837   6.196  18.790  0.00  0.00    +0.000 C 
ENDBRANCH   4  11
BRANCH   6  13
ATOM     13  C   UNL     1       3.178   7.501  17.502  0.00  0.00    +0.000 C 
ATOM     14  N   UNL     1       2.466   8.186  18.347  0.00  0.00    +0.000 NA
BRANCH  14  15
ATOM     15  N   UNL     1       1.889   9.298  17.716  0.00  0.00    +0.000 NA
ATOM     16  C   UNL     1       1.089   9.976  18.486  0.00  0.00    +0.000 C 
ATOM     17  N   UNL     1       0.819   9.663  19.794  0.00  0.00    +0.000 N 
ATOM     18  N   UNL     1       0.404  11.073  18.032  0.00  0.00    +0.000 N 
ATOM     19  H   UNL     1       1.518   8.992  20.103  0.00  0.00    +0.000 HD
ATOM     20  H   UNL     1       0.813  10.500  20.364  0.00  0.00    +0.000 HD
ATOM     21  H   UNL     1       0.796  11.452  17.174  0.00  0.00    +0.000 HD
BRANCH  18  22
ATOM     22  O   UNL     1       0.082  12.026  19.004  0.00  0.00    +0.000 OA
ATOM     23  H   UNL     1       0.120  12.859  18.493  0.00  0.00    +0.000 HD
ENDBRANCH  18  22
ENDBRANCH  14  15
ENDBRANCH   6  13
TORSDOF 6
ENDMDL
MODEL 8
REMARK VINA RESULT:      -6.5      5.012      6.620
REMARK  Name = 
REMARK  9 active torsions:
REMARK  status: ('A' for Active; 'I' for Inactive)
REMARK    1  A    between atoms: C_1  and  O_2
REMARK    2  A    between atoms: O_2  and  C_3
REMARK    3  A    between atoms: C_5  and  O_6
REMARK    4  A    between atoms: O_6  and  C_7
REMARK    5  A    between atoms: C_8  and  O_9
REMARK    6  A    between atoms: O_9  and  C_10
REMARK    7  A    between atoms: C_12  and  C_13
REMARK    8  A    between atoms: N_14  and  N_15
REMARK    9  A    between atoms: N_18  and  O_19
REMARK                            x       y       z     vdW  Elec       q    Type
REMARK                         _______ _______ _______ _____ _____    ______ ____
ROOT
ATOM      1  C   UNL     1       3.567   5.688  19.246  0.00  0.00    +0.000 A 
ATOM      2  C   UNL     1       4.830   5.087  19.304  0.00  0.00    +0.000 A 
ATOM      3  C   UNL     1       5.827   5.336  18.352  0.00  0.00    +0.000 A 
ATOM      4  C   UNL     1       5.516   6.138  17.253  0.00  0.00    +0.000 A 
ATOM      5  C   UNL     1       4.275   6.797  17.216  0.00  0.00    +0.000 A 
ATOM      6  C   UNL     1       3.311   6.611  18.227  0.00  0.00    +0.000 A 
ENDROOT
BRANCH   1   8
ATOM      7  C   UNL     1       2.431   4.117  20.633  0.00  0.00    +0.000 C 
ATOM      8  O   UNL     1       2.804   5.460  20.357  0.00  0.00    +0.000 OA
ENDBRANCH   1   8
BRANCH   3   9
ATOM      9  O   UNL     1       7.029   4.803  18.717  0.00  0.00    +0.000 OA
ATOM     10  C   UNL     1       8.015   5.613  19.336  0.00  0.00    +0.000 C 
ENDBRANCH   3   9
BRANCH   4  11
ATOM     11  O   UNL     1       6.453   6.365  16.284  0.00  0.00    +0.000 OA
ATOM     12  C   UNL     1       6.677   5.276  15.388  0.00  0.00    +0.000 C 
ENDBRANCH   4  11
BRANCH   6  13
ATOM     13  C   UNL     1       2.145   7.524  18.253  0.00  0.00    +0.000 C 
ATOM     14  N   UNL     1       2.241   8.777  17.921  0.00  0.00    +0.000 NA
BRANCH  14  15
ATOM     15  N   UNL     1       1.025   9.439  18.146  0.00  0.00    +0.000 NA
ATOM     16  C   UNL     1       1.133  10.736  18.165  0.00  0.00    +0.000 C 
ATOM     17  N   UNL     1       2.309  11.419  17.980  0.00  0.00    +0.000 N 
ATOM     18  N   UNL     1       0.058  11.549  18.409  0.00  0.00    +0.000 N 
ATOM     19  H   UNL     1       2.989  10.769  17.595  0.00  0.00    +0.000 HD
ATOM     20  H   UNL     1       2.161  12.220  17.378  0.00  0.00    +0.000 HD
ATOM     21  H   UNL     1      -0.831  11.072  18.283  0.00  0.00    +0.000 HD
BRANCH  18  22
ATOM     22  O   UNL     1       0.128  12.825  17.843  0.00  0.00    +0.000 OA
ATOM     23  H   UNL     1      -0.270  12.680  16.961  0.00  0.00    +0.000 HD
ENDBRANCH  18  22
ENDBRANCH  14  15
ENDBRANCH   6  13
TORSDOF 6
ENDMDL
MODEL 9
REMARK VINA RESULT:      -6.5      2.231      2.868
REMARK  Name = 
REMARK  9 active torsions:
REMARK  status: ('A' for Active; 'I' for Inactive)
REMARK    1  A    between atoms: C_1  and  O_2
REMARK    2  A    between atoms: O_2  and  C_3
REMARK    3  A    between atoms: C_5  and  O_6
REMARK    4  A    between atoms: O_6  and  C_7
REMARK    5  A    between atoms: C_8  and  O_9
REMARK    6  A    between atoms: O_9  and  C_10
REMARK    7  A    between atoms: C_12  and  C_13
REMARK    8  A    between atoms: N_14  and  N_15
REMARK    9  A    between atoms: N_18  and  O_19
REMARK                            x       y       z     vdW  Elec       q    Type
REMARK                         _______ _______ _______ _____ _____    ______ ____
ROOT
ATOM      1  C   UNL     1       3.887   4.134  18.038  0.00  0.00    +0.000 A 
ATOM      2  C   UNL     1       2.837   3.992  18.953  0.00  0.00    +0.000 A 
ATOM      3  C   UNL     1       2.213   5.090  19.559  0.00  0.00    +0.000 A 
ATOM      4  C   UNL     1       2.719   6.366  19.314  0.00  0.00    +0.000 A 
ATOM      5  C   UNL     1       3.729   6.528  18.349  0.00  0.00    +0.000 A 
ATOM      6  C   UNL     1       4.290   5.424  17.678  0.00  0.00    +0.000 A 
ENDROOT
BRANCH   1   8
ATOM      7  C   UNL     1       3.670   1.762  17.931  0.00  0.00    +0.000 C 
ATOM      8  O   UNL     1       4.238   2.963  17.427  0.00  0.00    +0.000 OA
ENDBRANCH   1   8
BRANCH   3   9
ATOM      9  O   UNL     1       1.095   4.724  20.254  0.00  0.00    +0.000 OA
ATOM     10  C   UNL     1       0.960   3.405  20.755  0.00  0.00    +0.000 C 
ENDBRANCH   3   9
BRANCH   4  11
ATOM     11  O   UNL     1       2.159   7.454  19.923  0.00  0.00    +0.000 OA
ATOM     12  C   UNL     1       1.804   8.525  19.049  0.00  0.00    +0.000 C 
ENDBRANCH   4  11
BRANCH   6  13
ATOM     13  C   UNL     1       5.157   5.690  16.507  0.00  0.00    +0.000 C 
ATOM     14  N   UNL     1       6.372   5.233  16.427  0.00  0.00    +0.000 NA
BRANCH  14  15
ATOM     15  N   UNL     1       7.008   5.727  15.279  0.00  0.00    +0.000 NA
ATOM     16  C   UNL     1       7.051   4.872  14.299  0.00  0.00    +0.000 C 
ATOM     17  N   UNL     1       6.527   3.605  14.351  0.00  0.00    +0.000 N 
ATOM     18  N   UNL     1       7.668   5.163  13.110  0.00  0.00    +0.000 N 
ATOM     19  H   UNL     1       5.913   3.555  15.159  0.00  0.00    +0.000 HD
ATOM     20  H   UNL     1       6.044   3.387  13.488  0.00  0.00    +0.000 HD
ATOM     21  H   UNL     1       7.814   6.161  12.979  0.00  0.00    +0.000 HD
BRANCH  18  22
ATOM     22  O   UNL     1       7.169   4.488  11.992  0.00  0.00    +0.000 OA
ATOM     23  H   UNL     1       7.768   3.717  11.935  0.00  0.00    +0.000 HD
ENDBRANCH  18  22
ENDBRANCH  14  15
ENDBRANCH   6  13
TORSDOF 6
ENDMDL
