MODEL 1
REMARK VINA RESULT:      -9.0      0.000      0.000
REMARK  Name = 
REMARK  9 active torsions:
REMARK  status: ('A' for Active; 'I' for Inactive)
REMARK    1  A    between atoms: C_1  and  C_2
REMARK    2  A    between atoms: C_2  and  S_3
REMARK    3  A    between atoms: S_3  and  C_6
REMARK    4  A    between atoms: C_9  and  O_10
REMARK    5  A    between atoms: O_10  and  C_11
REMARK    6  A    between atoms: C_12  and  C_13
REMARK    7  A    between atoms: C_16  and  C_17
REMARK    8  A    between atoms: C_17  and  N_18
REMARK    9  A    between atoms: C_24  and  C_25
REMARK                            x       y       z     vdW  Elec       q    Type
REMARK                         _______ _______ _______ _____ _____    ______ ____
ROOT
ATOM      1  C   UNL     1       1.258   9.454  19.375  0.00  0.00    +0.000 A 
ATOM      2  C   UNL     1       1.248   8.696  20.542  0.00  0.00    +0.000 A 
ATOM      3  C   UNL     1       1.895   7.468  20.291  0.00  0.00    +0.000 A 
ATOM      4  C   UNL     1       2.291   7.488  18.973  0.00  0.00    +0.000 A 
ATOM      5  N   UNL     1       1.993   8.731  18.464  0.00  0.00    +0.000 N 
ATOM      6  H   UNL     1       2.219   9.020  17.519  0.00  0.00    +0.000 HD
ENDROOT
BRANCH   1  11
ATOM      7  C   UNL     1      -1.767  11.280  18.213  0.00  0.00    +0.000 A 
ATOM      8  C   UNL     1      -1.390  12.611  18.155  0.00  0.00    +0.000 A 
ATOM      9  C   UNL     1      -0.079  12.943  18.535  0.00  0.00    +0.000 A 
ATOM     10  C   UNL     1       0.854  11.976  18.963  0.00  0.00    +0.000 A 
ATOM     11  C   UNL     1       0.452  10.634  19.051  0.00  0.00    +0.000 A 
ATOM     12  C   UNL     1      -0.878  10.321  18.675  0.00  0.00    +0.000 A 
BRANCH   7  13
ATOM     13  S   UNL     1      -3.377  10.749  17.670  0.00  0.00    +0.000 S 
ATOM     14  O   UNL     1      -4.359  11.581  18.341  0.00  0.00    +0.000 OA
ATOM     15  O   UNL     1      -3.395   9.303  17.795  0.00  0.00    +0.000 OA
BRANCH  13  17
ATOM     16  C   UNL     1      -2.880  10.026  15.073  0.00  0.00    +0.000 C 
ATOM     17  C   UNL     1      -3.408  11.164  15.925  0.00  0.00    +0.000 C 
ENDBRANCH  13  17
ENDBRANCH   7  13
BRANCH  10  18
ATOM     18  O   UNL     1       2.121  12.489  19.093  0.00  0.00    +0.000 OA
ATOM     19  C   UNL     1       2.284  13.815  19.575  0.00  0.00    +0.000 C 
ENDBRANCH  10  18
ENDBRANCH   1  11
BRANCH   4  20
ATOM     20  C   UNL     1       2.865   6.404  18.113  0.00  0.00    +0.000 C 
BRANCH  20  21
ATOM     21  N   UNL     1       2.804   5.081  18.749  0.00  0.00    +0.000 NA
ATOM     22  C   UNL     1       1.536   4.400  18.449  0.00  0.00    +0.000 C 
ATOM     23  C   UNL     1       1.044   3.432  19.542  0.00  0.00    +0.000 C 
ATOM     24  C   UNL     1       1.717   2.077  19.502  0.00  0.00    +0.000 C 
ATOM     25  C   UNL     1       3.201   2.155  19.813  0.00  0.00    +0.000 C 
ATOM     26  C   UNL     1       3.983   2.756  18.654  0.00  0.00    +0.000 C 
ATOM     27  C   UNL     1       4.064   4.303  18.622  0.00  0.00    +0.000 C 
BRANCH  27  28
ATOM     28  C   UNL     1       5.033   4.665  17.470  0.00  0.00    +0.000 A 
ATOM     29  C   UNL     1       4.876   4.141  16.174  0.00  0.00    +0.000 A 
ATOM     30  C   UNL     1       5.868   4.326  15.202  0.00  0.00    +0.000 A 
ATOM     31  C   UNL     1       7.018   5.047  15.496  0.00  0.00    +0.000 A 
ATOM     32  C   UNL     1       7.170   5.621  16.756  0.00  0.00    +0.000 A 
ATOM     33  C   UNL     1       6.178   5.434  17.731  0.00  0.00    +0.000 A 
ENDBRANCH  27  28
ENDBRANCH  20  21
ENDBRANCH   4  20
TORSDOF 7
ENDMDL
MODEL 2
REMARK VINA RESULT:      -8.9      0.895      1.131
REMARK  Name = 
REMARK  9 active torsions:
REMARK  status: ('A' for Active; 'I' for Inactive)
REMARK    1  A    between atoms: C_1  and  C_2
REMARK    2  A    between atoms: C_2  and  S_3
REMARK    3  A    between atoms: S_3  and  C_6
REMARK    4  A    between atoms: C_9  and  O_10
REMARK    5  A    between atoms: O_10  and  C_11
REMARK    6  A    between atoms: C_12  and  C_13
REMARK    7  A    between atoms: C_16  and  C_17
REMARK    8  A    between atoms: C_17  and  N_18
REMARK    9  A    between atoms: C_24  and  C_25
REMARK                            x       y       z     vdW  Elec       q    Type
REMARK                         _______ _______ _______ _____ _____    ______ ____
ROOT
ATOM      1  C   UNL     1       1.329   9.276  19.333  0.00  0.00    +0.000 A 
ATOM      2  C   UNL     1       1.329   8.496  20.485  0.00  0.00    +0.000 A 
ATOM      3  C   UNL     1       2.047   7.308  20.228  0.00  0.00    +0.000 A 
ATOM      4  C   UNL     1       2.475   7.376  18.922  0.00  0.00    +0.000 A 
ATOM      5  N   UNL     1       2.124   8.612  18.428  0.00  0.00    +0.000 N 
ATOM      6  H   UNL     1       2.359   8.932  17.496  0.00  0.00    +0.000 HD
ENDROOT
BRANCH   1  11
ATOM      7  C   UNL     1      -1.619  10.991  17.847  0.00  0.00    +0.000 A 
ATOM      8  C   UNL     1      -1.386  12.343  18.031  0.00  0.00    +0.000 A 
ATOM      9  C   UNL     1      -0.210  12.725  18.696  0.00  0.00    +0.000 A 
ATOM     10  C   UNL     1       0.732  11.788  19.172  0.00  0.00    +0.000 A 
ATOM     11  C   UNL     1       0.469  10.418  19.011  0.00  0.00    +0.000 A 
ATOM     12  C   UNL     1      -0.729  10.053  18.348  0.00  0.00    +0.000 A 
BRANCH   7  13
ATOM     13  S   UNL     1      -3.037  10.409  16.940  0.00  0.00    +0.000 S 
ATOM     14  O   UNL     1      -3.501   9.197  17.590  0.00  0.00    +0.000 OA
ATOM     15  O   UNL     1      -2.661  10.423  15.539  0.00  0.00    +0.000 OA
BRANCH  13  17
ATOM     16  C   UNL     1      -5.235  11.299  18.315  0.00  0.00    +0.000 C 
ATOM     17  C   UNL     1      -4.275  11.680  17.205  0.00  0.00    +0.000 C 
ENDBRANCH  13  17
ENDBRANCH   7  13
BRANCH  10  18
ATOM     18  O   UNL     1       1.890  12.382  19.608  0.00  0.00    +0.000 OA
ATOM     19  C   UNL     1       2.412  13.491  18.892  0.00  0.00    +0.000 C 
ENDBRANCH  10  18
ENDBRANCH   1  11
BRANCH   4  20
ATOM     20  C   UNL     1       3.128   6.341  18.057  0.00  0.00    +0.000 C 
BRANCH  20  21
ATOM     21  N   UNL     1       2.848   4.970  18.502  0.00  0.00    +0.000 NA
ATOM     22  C   UNL     1       1.513   4.528  18.074  0.00  0.00    +0.000 C 
ATOM     23  C   UNL     1       0.835   3.507  19.008  0.00  0.00    +0.000 C 
ATOM     24  C   UNL     1       1.311   2.085  18.801  0.00  0.00    +0.000 C 
ATOM     25  C   UNL     1       2.774   1.902  19.163  0.00  0.00    +0.000 C 
ATOM     26  C   UNL     1       3.689   2.530  18.121  0.00  0.00    +0.000 C 
ATOM     27  C   UNL     1       3.990   4.038  18.306  0.00  0.00    +0.000 C 
BRANCH  27  28
ATOM     28  C   UNL     1       5.056   4.404  17.244  0.00  0.00    +0.000 A 
ATOM     29  C   UNL     1       4.809   4.268  15.866  0.00  0.00    +0.000 A 
ATOM     30  C   UNL     1       5.845   4.417  14.934  0.00  0.00    +0.000 A 
ATOM     31  C   UNL     1       7.133   4.721  15.355  0.00  0.00    +0.000 A 
ATOM     32  C   UNL     1       7.389   4.913  16.710  0.00  0.00    +0.000 A 
ATOM     33  C   UNL     1       6.353   4.761  17.644  0.00  0.00    +0.000 A 
ENDBRANCH  27  28
ENDBRANCH  20  21
ENDBRANCH   4  20
TORSDOF 7
ENDMDL
MODEL 3
REMARK VINA RESULT:      -8.8      0.633      1.061
REMARK  Name = 
REMARK  9 active torsions:
REMARK  status: ('A' for Active; 'I' for Inactive)
REMARK    1  A    between atoms: C_1  and  C_2
REMARK    2  A    between atoms: C_2  and  S_3
REMARK    3  A    between atoms: S_3  and  C_6
REMARK    4  A    between atoms: C_9  and  O_10
REMARK    5  A    between atoms: O_10  and  C_11
REMARK    6  A    between atoms: C_12  and  C_13
REMARK    7  A    between atoms: C_16  and  C_17
REMARK    8  A    between atoms: C_17  and  N_18
REMARK    9  A    between atoms: C_24  and  C_25
REMARK                            x       y       z     vdW  Elec       q    Type
REMARK                         _______ _______ _______ _____ _____    ______ ____
ROOT
ATOM      1  C   UNL     1       1.108   9.545  19.647  0.00  0.00    +0.000 A 
ATOM      2  C   UNL     1       1.064   8.870  20.862  0.00  0.00    +0.000 A 
ATOM      3  C   UNL     1       1.724   7.631  20.717  0.00  0.00    +0.000 A 
ATOM      4  C   UNL     1       2.161   7.562  19.413  0.00  0.00    +0.000 A 
ATOM      5  N   UNL     1       1.874   8.766  18.811  0.00  0.00    +0.000 N 
ATOM      6  H   UNL     1       2.128   8.991  17.856  0.00  0.00    +0.000 HD
ENDROOT
BRANCH   1  11
ATOM      7  C   UNL     1      -1.870  11.266  18.231  0.00  0.00    +0.000 A 
ATOM      8  C   UNL     1      -1.505  12.597  18.121  0.00  0.00    +0.000 A 
ATOM      9  C   UNL     1      -0.220  12.966  18.551  0.00  0.00    +0.000 A 
ATOM     10  C   UNL     1       0.700  12.036  19.079  0.00  0.00    +0.000 A 
ATOM     11  C   UNL     1       0.307  10.695  19.218  0.00  0.00    +0.000 A 
ATOM     12  C   UNL     1      -0.997  10.345  18.790  0.00  0.00    +0.000 A 
BRANCH   7  13
ATOM     13  S   UNL     1      -3.444  10.685  17.634  0.00  0.00    +0.000 S 
ATOM     14  O   UNL     1      -4.475  11.463  18.295  0.00  0.00    +0.000 OA
ATOM     15  O   UNL     1      -3.408   9.237  17.728  0.00  0.00    +0.000 OA
BRANCH  13  17
ATOM     16  C   UNL     1      -2.858  10.036  15.036  0.00  0.00    +0.000 C 
ATOM     17  C   UNL     1      -3.446  11.137  15.898  0.00  0.00    +0.000 C 
ENDBRANCH  13  17
ENDBRANCH   7  13
BRANCH  10  18
ATOM     18  O   UNL     1       1.952  12.573  19.247  0.00  0.00    +0.000 OA
ATOM     19  C   UNL     1       2.704  12.947  18.103  0.00  0.00    +0.000 C 
ENDBRANCH  10  18
ENDBRANCH   1  11
BRANCH   4  20
ATOM     20  C   UNL     1       2.766   6.425  18.648  0.00  0.00    +0.000 C 
BRANCH  20  21
ATOM     21  N   UNL     1       2.767   5.167  19.406  0.00  0.00    +0.000 NA
ATOM     22  C   UNL     1       1.549   4.385  19.150  0.00  0.00    +0.000 C 
ATOM     23  C   UNL     1       1.088   3.496  20.321  0.00  0.00    +0.000 C 
ATOM     24  C   UNL     1       1.841   2.186  20.422  0.00  0.00    +0.000 C 
ATOM     25  C   UNL     1       3.310   2.384  20.752  0.00  0.00    +0.000 C 
ATOM     26  C   UNL     1       4.083   2.919  19.555  0.00  0.00    +0.000 C 
ATOM     27  C   UNL     1       4.073   4.458  19.377  0.00  0.00    +0.000 C 
BRANCH  27  28
ATOM     28  C   UNL     1       5.047   4.769  18.214  0.00  0.00    +0.000 A 
ATOM     29  C   UNL     1       6.164   5.607  18.383  0.00  0.00    +0.000 A 
ATOM     30  C   UNL     1       6.917   6.029  17.280  0.00  0.00    +0.000 A 
ATOM     31  C   UNL     1       6.583   5.612  15.998  0.00  0.00    +0.000 A 
ATOM     32  C   UNL     1       5.514   4.740  15.812  0.00  0.00    +0.000 A 
ATOM     33  C   UNL     1       4.758   4.319  16.917  0.00  0.00    +0.000 A 
ENDBRANCH  27  28
ENDBRANCH  20  21
ENDBRANCH   4  20
TORSDOF 7
ENDMDL
MODEL 4
REMARK VINA RESULT:      -8.7      2.635      4.847
REMARK  Name = 
REMARK  9 active torsions:
REMARK  status: ('A' for Active; 'I' for Inactive)
REMARK    1  A    between atoms: C_1  and  C_2
REMARK    2  A    between atoms: C_2  and  S_3
REMARK    3  A    between atoms: S_3  and  C_6
REMARK    4  A    between atoms: C_9  and  O_10
REMARK    5  A    between atoms: O_10  and  C_11
REMARK    6  A    between atoms: C_12  and  C_13
REMARK    7  A    between atoms: C_16  and  C_17
REMARK    8  A    between atoms: C_17  and  N_18
REMARK    9  A    between atoms: C_24  and  C_25
REMARK                            x       y       z     vdW  Elec       q    Type
REMARK                         _______ _______ _______ _____ _____    ______ ____
ROOT
ATOM      1  C   UNL     1       1.138   9.633  19.199  0.00  0.00    +0.000 A 
ATOM      2  C   UNL     1       1.556   9.651  17.872  0.00  0.00    +0.000 A 
ATOM      3  C   UNL     1       2.323   8.493  17.622  0.00  0.00    +0.000 A 
ATOM      4  C   UNL     1       2.367   7.783  18.800  0.00  0.00    +0.000 A 
ATOM      5  N   UNL     1       1.563   8.429  19.711  0.00  0.00    +0.000 N 
ATOM      6  H   UNL     1       1.390   8.088  20.649  0.00  0.00    +0.000 HD
ENDROOT
BRANCH   1  11
ATOM      7  C   UNL     1       0.684  13.189  20.193  0.00  0.00    +0.000 A 
ATOM      8  C   UNL     1      -0.054  13.150  21.364  0.00  0.00    +0.000 A 
ATOM      9  C   UNL     1      -0.447  11.894  21.853  0.00  0.00    +0.000 A 
ATOM     10  C   UNL     1      -0.115  10.687  21.202  0.00  0.00    +0.000 A 
ATOM     11  C   UNL     1       0.604  10.740  19.997  0.00  0.00    +0.000 A 
ATOM     12  C   UNL     1       0.981  12.017  19.513  0.00  0.00    +0.000 A 
BRANCH   7  13
ATOM     13  S   UNL     1       1.303  14.725  19.539  0.00  0.00    +0.000 S 
ATOM     14  O   UNL     1       1.954  15.431  20.628  0.00  0.00    +0.000 OA
ATOM     15  O   UNL     1       0.212  15.323  18.793  0.00  0.00    +0.000 OA
BRANCH  13  17
ATOM     16  C   UNL     1       3.262  15.423  17.754  0.00  0.00    +0.000 C 
ATOM     17  C   UNL     1       2.573  14.224  18.376  0.00  0.00    +0.000 C 
ENDBRANCH  13  17
ENDBRANCH   7  13
BRANCH  10  18
ATOM     18  O   UNL     1      -0.427   9.581  21.953  0.00  0.00    +0.000 OA
ATOM     19  C   UNL     1      -0.030   9.535  23.315  0.00  0.00    +0.000 C 
ENDBRANCH  10  18
ENDBRANCH   1  11
BRANCH   4  20
ATOM     20  C   UNL     1       3.167   6.574  19.178  0.00  0.00    +0.000 C 
BRANCH  20  21
ATOM     21  N   UNL     1       3.863   5.972  18.033  0.00  0.00    +0.000 NA
ATOM     22  C   UNL     1       5.310   6.224  18.091  0.00  0.00    +0.000 C 
ATOM     23  C   UNL     1       6.010   6.308  16.721  0.00  0.00    +0.000 C 
ATOM     24  C   UNL     1       6.327   4.956  16.117  0.00  0.00    +0.000 C 
ATOM     25  C   UNL     1       5.077   4.168  15.769  0.00  0.00    +0.000 C 
ATOM     26  C   UNL     1       4.393   3.628  17.017  0.00  0.00    +0.000 C 
ATOM     27  C   UNL     1       3.404   4.593  17.717  0.00  0.00    +0.000 C 
BRANCH  27  28
ATOM     28  C   UNL     1       2.720   3.777  18.842  0.00  0.00    +0.000 A 
ATOM     29  C   UNL     1       1.320   3.658  18.928  0.00  0.00    +0.000 A 
ATOM     30  C   UNL     1       0.718   3.082  20.054  0.00  0.00    +0.000 A 
ATOM     31  C   UNL     1       1.495   2.601  21.100  0.00  0.00    +0.000 A 
ATOM     32  C   UNL     1       2.883   2.660  21.013  0.00  0.00    +0.000 A 
ATOM     33  C   UNL     1       3.487   3.239  19.886  0.00  0.00    +0.000 A 
ENDBRANCH  27  28
ENDBRANCH  20  21
ENDBRANCH   4  20
TORSDOF 7
ENDMDL
MODEL 5
REMARK VINA RESULT:      -8.6      2.568      4.870
REMARK  Name = 
REMARK  9 active torsions:
REMARK  status: ('A' for Active; 'I' for Inactive)
REMARK    1  A    between atoms: C_1  and  C_2
REMARK    2  A    between atoms: C_2  and  S_3
REMARK    3  A    between atoms: S_3  and  C_6
REMARK    4  A    between atoms: C_9  and  O_10
REMARK    5  A    between atoms: O_10  and  C_11
REMARK    6  A    between atoms: C_12  and  C_13
REMARK    7  A    between atoms: C_16  and  C_17
REMARK    8  A    between atoms: C_17  and  N_18
REMARK    9  A    between atoms: C_24  and  C_25
REMARK                            x       y       z     vdW  Elec       q    Type
REMARK                         _______ _______ _______ _____ _____    ______ ____
ROOT
ATOM      1  C   UNL     1       1.226   9.384  19.143  0.00  0.00    +0.000 A 
ATOM      2  C   UNL     1       1.555   9.349  17.792  0.00  0.00    +0.000 A 
ATOM      3  C   UNL     1       2.404   8.245  17.561  0.00  0.00    +0.000 A 
ATOM      4  C   UNL     1       2.586   7.622  18.774  0.00  0.00    +0.000 A 
ATOM      5  N   UNL     1       1.788   8.258  19.697  0.00  0.00    +0.000 N 
ATOM      6  H   UNL     1       1.707   7.967  20.665  0.00  0.00    +0.000 HD
ENDROOT
BRANCH   1  11
ATOM      7  C   UNL     1       0.614  12.949  20.015  0.00  0.00    +0.000 A 
ATOM      8  C   UNL     1      -0.110  12.917  21.194  0.00  0.00    +0.000 A 
ATOM      9  C   UNL     1      -0.440  11.662  21.733  0.00  0.00    +0.000 A 
ATOM     10  C   UNL     1      -0.057  10.450  21.121  0.00  0.00    +0.000 A 
ATOM     11  C   UNL     1       0.647  10.493  19.908  0.00  0.00    +0.000 A 
ATOM     12  C   UNL     1       0.959  11.768  19.375  0.00  0.00    +0.000 A 
BRANCH   7  13
ATOM     13  S   UNL     1       1.154  14.488  19.300  0.00  0.00    +0.000 S 
ATOM     14  O   UNL     1      -0.032  15.265  18.994  0.00  0.00    +0.000 OA
ATOM     15  O   UNL     1       2.123  14.146  18.276  0.00  0.00    +0.000 OA
BRANCH  13  17
ATOM     16  C   UNL     1       3.231  14.521  21.088  0.00  0.00    +0.000 C 
ATOM     17  C   UNL     1       2.017  15.311  20.640  0.00  0.00    +0.000 C 
ENDBRANCH  13  17
ENDBRANCH   7  13
BRANCH  10  18
ATOM     18  O   UNL     1      -0.310   9.358  21.915  0.00  0.00    +0.000 OA
ATOM     19  C   UNL     1      -0.219   9.492  23.325  0.00  0.00    +0.000 C 
ENDBRANCH  10  18
ENDBRANCH   1  11
BRANCH   4  20
ATOM     20  C   UNL     1       3.513   6.513  19.169  0.00  0.00    +0.000 C 
BRANCH  20  21
ATOM     21  N   UNL     1       4.161   5.876  18.015  0.00  0.00    +0.000 NA
ATOM     22  C   UNL     1       5.625   5.988  18.091  0.00  0.00    +0.000 C 
ATOM     23  C   UNL     1       6.345   6.039  16.731  0.00  0.00    +0.000 C 
ATOM     24  C   UNL     1       6.539   4.678  16.095  0.00  0.00    +0.000 C 
ATOM     25  C   UNL     1       5.223   4.021  15.716  0.00  0.00    +0.000 C 
ATOM     26  C   UNL     1       4.478   3.518  16.945  0.00  0.00    +0.000 C 
ATOM     27  C   UNL     1       3.577   4.556  17.661  0.00  0.00    +0.000 C 
BRANCH  27  28
ATOM     28  C   UNL     1       2.806   3.781  18.758  0.00  0.00    +0.000 A 
ATOM     29  C   UNL     1       1.401   3.711  18.770  0.00  0.00    +0.000 A 
ATOM     30  C   UNL     1       0.721   3.174  19.871  0.00  0.00    +0.000 A 
ATOM     31  C   UNL     1       1.424   2.683  20.964  0.00  0.00    +0.000 A 
ATOM     32  C   UNL     1       2.816   2.693  20.950  0.00  0.00    +0.000 A 
ATOM     33  C   UNL     1       3.499   3.233  19.849  0.00  0.00    +0.000 A 
ENDBRANCH  27  28
ENDBRANCH  20  21
ENDBRANCH   4  20
TORSDOF 7
ENDMDL
MODEL 6
REMARK VINA RESULT:      -8.6      2.446      3.454
REMARK  Name = 
REMARK  9 active torsions:
REMARK  status: ('A' for Active; 'I' for Inactive)
REMARK    1  A    between atoms: C_1  and  C_2
REMARK    2  A    between atoms: C_2  and  S_3
REMARK    3  A    between atoms: S_3  and  C_6
REMARK    4  A    between atoms: C_9  and  O_10
REMARK    5  A    between atoms: O_10  and  C_11
REMARK    6  A    between atoms: C_12  and  C_13
REMARK    7  A    between atoms: C_16  and  C_17
REMARK    8  A    between atoms: C_17  and  N_18
REMARK    9  A    between atoms: C_24  and  C_25
REMARK                            x       y       z     vdW  Elec       q    Type
REMARK                         _______ _______ _______ _____ _____    ______ ____
ROOT
ATOM      1  C   UNL     1       0.720   9.373  20.043  0.00  0.00    +0.000 A 
ATOM      2  C   UNL     1       0.808   8.568  21.174  0.00  0.00    +0.000 A 
ATOM      3  C   UNL     1       1.664   7.482  20.892  0.00  0.00    +0.000 A 
ATOM      4  C   UNL     1       2.086   7.634  19.591  0.00  0.00    +0.000 A 
ATOM      5  N   UNL     1       1.592   8.832  19.127  0.00  0.00    +0.000 N 
ATOM      6  H   UNL     1       1.790   9.202  18.205  0.00  0.00    +0.000 HD
ENDROOT
BRANCH   1  11
ATOM      7  C   UNL     1      -1.540  12.226  20.811  0.00  0.00    +0.000 A 
ATOM      8  C   UNL     1      -2.271  12.434  19.654  0.00  0.00    +0.000 A 
ATOM      9  C   UNL     1      -2.003  11.613  18.547  0.00  0.00    +0.000 A 
ATOM     10  C   UNL     1      -1.029  10.593  18.578  0.00  0.00    +0.000 A 
ATOM     11  C   UNL     1      -0.269  10.412  19.744  0.00  0.00    +0.000 A 
ATOM     12  C   UNL     1      -0.547  11.259  20.846  0.00  0.00    +0.000 A 
BRANCH   7  13
ATOM     13  S   UNL     1      -1.866  13.157  22.294  0.00  0.00    +0.000 S 
ATOM     14  O   UNL     1      -1.709  14.563  21.968  0.00  0.00    +0.000 OA
ATOM     15  O   UNL     1      -1.092  12.531  23.349  0.00  0.00    +0.000 OA
BRANCH  13  17
ATOM     16  C   UNL     1      -3.846  12.512  24.076  0.00  0.00    +0.000 C 
ATOM     17  C   UNL     1      -3.605  12.862  22.620  0.00  0.00    +0.000 C 
ENDBRANCH  13  17
ENDBRANCH   7  13
BRANCH  10  18
ATOM     18  O   UNL     1      -1.072   9.791  17.464  0.00  0.00    +0.000 OA
ATOM     19  C   UNL     1      -2.218   9.831  16.626  0.00  0.00    +0.000 C 
ENDBRANCH  10  18
ENDBRANCH   1  11
BRANCH   4  20
ATOM     20  C   UNL     1       2.861   6.708  18.704  0.00  0.00    +0.000 C 
BRANCH  20  21
ATOM     21  N   UNL     1       2.774   5.306  19.133  0.00  0.00    +0.000 NA
ATOM     22  C   UNL     1       1.743   4.576  18.380  0.00  0.00    +0.000 C 
ATOM     23  C   UNL     1       1.071   3.423  19.149  0.00  0.00    +0.000 C 
ATOM     24  C   UNL     1       1.885   2.146  19.162  0.00  0.00    +0.000 C 
ATOM     25  C   UNL     1       3.190   2.297  19.924  0.00  0.00    +0.000 C 
ATOM     26  C   UNL     1       4.201   3.122  19.140  0.00  0.00    +0.000 C 
ATOM     27  C   UNL     1       4.100   4.658  19.313  0.00  0.00    +0.000 C 
BRANCH  27  28
ATOM     28  C   UNL     1       5.315   5.262  18.567  0.00  0.00    +0.000 A 
ATOM     29  C   UNL     1       6.545   5.488  19.210  0.00  0.00    +0.000 A 
ATOM     30  C   UNL     1       7.564   6.210  18.575  0.00  0.00    +0.000 A 
ATOM     31  C   UNL     1       7.383   6.700  17.288  0.00  0.00    +0.000 A 
ATOM     32  C   UNL     1       6.194   6.442  16.612  0.00  0.00    +0.000 A 
ATOM     33  C   UNL     1       5.172   5.721  17.249  0.00  0.00    +0.000 A 
ENDBRANCH  27  28
ENDBRANCH  20  21
ENDBRANCH   4  20
TORSDOF 7
ENDMDL
MODEL 7
REMARK VINA RESULT:      -8.6      2.668      4.942
REMARK  Name = 
REMARK  9 active torsions:
REMARK  status: ('A' for Active; 'I' for Inactive)
REMARK    1  A    between atoms: C_1  and  C_2
REMARK    2  A    between atoms: C_2  and  S_3
REMARK    3  A    between atoms: S_3  and  C_6
REMARK    4  A    between atoms: C_9  and  O_10
REMARK    5  A    between atoms: O_10  and  C_11
REMARK    6  A    between atoms: C_12  and  C_13
REMARK    7  A    between atoms: C_16  and  C_17
REMARK    8  A    between atoms: C_17  and  N_18
REMARK    9  A    between atoms: C_24  and  C_25
REMARK                            x       y       z     vdW  Elec       q    Type
REMARK                         _______ _______ _______ _____ _____    ______ ____
ROOT
ATOM      1  C   UNL     1       1.120   9.789  19.319  0.00  0.00    +0.000 A 
ATOM      2  C   UNL     1       1.472   9.768  17.973  0.00  0.00    +0.000 A 
ATOM      3  C   UNL     1       2.166   8.568  17.705  0.00  0.00    +0.000 A 
ATOM      4  C   UNL     1       2.232   7.873  18.891  0.00  0.00    +0.000 A 
ATOM      5  N   UNL     1       1.508   8.572  19.829  0.00  0.00    +0.000 N 
ATOM      6  H   UNL     1       1.365   8.254  20.781  0.00  0.00    +0.000 HD
ENDROOT
BRANCH   1  11
ATOM      7  C   UNL     1       1.066  13.344  20.416  0.00  0.00    +0.000 A 
ATOM      8  C   UNL     1       0.255  13.368  21.537  0.00  0.00    +0.000 A 
ATOM      9  C   UNL     1      -0.330  12.161  21.955  0.00  0.00    +0.000 A 
ATOM     10  C   UNL     1      -0.115  10.940  21.280  0.00  0.00    +0.000 A 
ATOM     11  C   UNL     1       0.682  10.933  20.124  0.00  0.00    +0.000 A 
ATOM     12  C   UNL     1       1.253  12.163  19.713  0.00  0.00    +0.000 A 
BRANCH   7  13
ATOM     13  S   UNL     1       1.921  14.803  19.859  0.00  0.00    +0.000 S 
ATOM     14  O   UNL     1       2.304  14.582  18.477  0.00  0.00    +0.000 OA
ATOM     15  O   UNL     1       2.905  15.116  20.879  0.00  0.00    +0.000 OA
BRANCH  13  17
ATOM     16  C   UNL     1      -0.294  15.939  18.713  0.00  0.00    +0.000 C 
ATOM     17  C   UNL     1       0.662  16.081  19.881  0.00  0.00    +0.000 C 
ENDBRANCH  13  17
ENDBRANCH   7  13
BRANCH  10  18
ATOM     18  O   UNL     1      -0.616   9.863  21.969  0.00  0.00    +0.000 OA
ATOM     19  C   UNL     1      -0.004   9.478  23.190  0.00  0.00    +0.000 C 
ENDBRANCH  10  18
ENDBRANCH   1  11
BRANCH   4  20
ATOM     20  C   UNL     1       2.987   6.630  19.250  0.00  0.00    +0.000 C 
BRANCH  20  21
ATOM     21  N   UNL     1       3.662   6.022  18.095  0.00  0.00    +0.000 NA
ATOM     22  C   UNL     1       5.100   6.327  18.092  0.00  0.00    +0.000 C 
ATOM     23  C   UNL     1       5.747   6.398  16.696  0.00  0.00    +0.000 C 
ATOM     24  C   UNL     1       6.090   5.043  16.115  0.00  0.00    +0.000 C 
ATOM     25  C   UNL     1       4.857   4.202  15.834  0.00  0.00    +0.000 C 
ATOM     26  C   UNL     1       4.239   3.672  17.121  0.00  0.00    +0.000 C 
ATOM     27  C   UNL     1       3.242   4.620  17.832  0.00  0.00    +0.000 C 
BRANCH  27  28
ATOM     28  C   UNL     1       2.630   3.811  19.002  0.00  0.00    +0.000 A 
ATOM     29  C   UNL     1       1.241   3.760  19.223  0.00  0.00    +0.000 A 
ATOM     30  C   UNL     1       0.723   3.187  20.392  0.00  0.00    +0.000 A 
ATOM     31  C   UNL     1       1.572   2.641  21.346  0.00  0.00    +0.000 A 
ATOM     32  C   UNL     1       2.946   2.633  21.123  0.00  0.00    +0.000 A 
ATOM     33  C   UNL     1       3.466   3.209  19.954  0.00  0.00    +0.000 A 
ENDBRANCH  27  28
ENDBRANCH  20  21
ENDBRANCH   4  20
TORSDOF 7
ENDMDL
MODEL 8
REMARK VINA RESULT:      -8.6      2.290      3.237
REMARK  Name = 
REMARK  9 active torsions:
REMARK  status: ('A' for Active; 'I' for Inactive)
REMARK    1  A    between atoms: C_1  and  C_2
REMARK    2  A    between atoms: C_2  and  S_3
REMARK    3  A    between atoms: S_3  and  C_6
REMARK    4  A    between atoms: C_9  and  O_10
REMARK    5  A    between atoms: O_10  and  C_11
REMARK    6  A    between atoms: C_12  and  C_13
REMARK    7  A    between atoms: C_16  and  C_17
REMARK    8  A    between atoms: C_17  and  N_18
REMARK    9  A    between atoms: C_24  and  C_25
REMARK                            x       y       z     vdW  Elec       q    Type
REMARK                         _______ _______ _______ _____ _____    ______ ____
ROOT
ATOM      1  C   UNL     1       0.838   9.447  19.861  0.00  0.00    +0.000 A 
ATOM      2  C   UNL     1       1.067   8.736  21.035  0.00  0.00    +0.000 A 
ATOM      3  C   UNL     1       1.849   7.601  20.732  0.00  0.00    +0.000 A 
ATOM      4  C   UNL     1       2.086   7.630  19.377  0.00  0.00    +0.000 A 
ATOM      5  N   UNL     1       1.560   8.802  18.884  0.00  0.00    +0.000 N 
ATOM      6  H   UNL     1       1.634   9.088  17.914  0.00  0.00    +0.000 HD
ENDROOT
BRANCH   1  11
ATOM      7  C   UNL     1      -1.350  12.325  20.739  0.00  0.00    +0.000 A 
ATOM      8  C   UNL     1      -2.147  12.530  19.626  0.00  0.00    +0.000 A 
ATOM      9  C   UNL     1      -1.951  11.699  18.511  0.00  0.00    +0.000 A 
ATOM     10  C   UNL     1      -0.985  10.671  18.492  0.00  0.00    +0.000 A 
ATOM     11  C   UNL     1      -0.159  10.492  19.614  0.00  0.00    +0.000 A 
ATOM     12  C   UNL     1      -0.364  11.350  20.723  0.00  0.00    +0.000 A 
BRANCH   7  13
ATOM     13  S   UNL     1      -1.580  13.269  22.231  0.00  0.00    +0.000 S 
ATOM     14  O   UNL     1      -1.153  14.629  21.955  0.00  0.00    +0.000 OA
ATOM     15  O   UNL     1      -0.989  12.491  23.304  0.00  0.00    +0.000 OA
BRANCH  13  17
ATOM     16  C   UNL     1      -3.763  12.551  23.724  0.00  0.00    +0.000 C 
ATOM     17  C   UNL     1      -3.358  13.291  22.464  0.00  0.00    +0.000 C 
ENDBRANCH  13  17
ENDBRANCH   7  13
BRANCH  10  18
ATOM     18  O   UNL     1      -1.100   9.861  17.390  0.00  0.00    +0.000 OA
ATOM     19  C   UNL     1      -2.293   9.905  16.620  0.00  0.00    +0.000 C 
ENDBRANCH  10  18
ENDBRANCH   1  11
BRANCH   4  20
ATOM     20  C   UNL     1       2.707   6.607  18.475  0.00  0.00    +0.000 C 
BRANCH  20  21
ATOM     21  N   UNL     1       2.724   5.263  19.067  0.00  0.00    +0.000 NA
ATOM     22  C   UNL     1       1.508   4.511  18.726  0.00  0.00    +0.000 C 
ATOM     23  C   UNL     1       1.065   3.477  19.779  0.00  0.00    +0.000 C 
ATOM     24  C   UNL     1       1.827   2.171  19.706  0.00  0.00    +0.000 C 
ATOM     25  C   UNL     1       3.298   2.336  20.044  0.00  0.00    +0.000 C 
ATOM     26  C   UNL     1       4.055   3.025  18.917  0.00  0.00    +0.000 C 
ATOM     27  C   UNL     1       4.034   4.574  18.936  0.00  0.00    +0.000 C 
BRANCH  27  28
ATOM     28  C   UNL     1       4.993   5.037  17.812  0.00  0.00    +0.000 A 
ATOM     29  C   UNL     1       4.818   4.639  16.474  0.00  0.00    +0.000 A 
ATOM     30  C   UNL     1       5.800   4.907  15.512  0.00  0.00    +0.000 A 
ATOM     31  C   UNL     1       6.959   5.590  15.859  0.00  0.00    +0.000 A 
ATOM     32  C   UNL     1       7.129   6.041  17.166  0.00  0.00    +0.000 A 
ATOM     33  C   UNL     1       6.147   5.770  18.131  0.00  0.00    +0.000 A 
ENDBRANCH  27  28
ENDBRANCH  20  21
ENDBRANCH   4  20
TORSDOF 7
ENDMDL
MODEL 9
REMARK VINA RESULT:      -8.6      2.510      3.525
REMARK  Name = 
REMARK  9 active torsions:
REMARK  status: ('A' for Active; 'I' for Inactive)
REMARK    1  A    between atoms: C_1  and  C_2
REMARK    2  A    between atoms: C_2  and  S_3
REMARK    3  A    between atoms: S_3  and  C_6
REMARK    4  A    between atoms: C_9  and  O_10
REMARK    5  A    between atoms: O_10  and  C_11
REMARK    6  A    between atoms: C_12  and  C_13
REMARK    7  A    between atoms: C_16  and  C_17
REMARK    8  A    between atoms: C_17  and  N_18
REMARK    9  A    between atoms: C_24  and  C_25
REMARK                            x       y       z     vdW  Elec       q    Type
REMARK                         _______ _______ _______ _____ _____    ______ ____
ROOT
ATOM      1  C   UNL     1       1.493   8.840  19.200  0.00  0.00    +0.000 A 
ATOM      2  C   UNL     1       1.926   8.707  17.885  0.00  0.00    +0.000 A 
ATOM      3  C   UNL     1       2.778   7.585  17.799  0.00  0.00    +0.000 A 
ATOM      4  C   UNL     1       2.856   7.047  19.063  0.00  0.00    +0.000 A 
ATOM      5  N   UNL     1       1.996   7.751  19.874  0.00  0.00    +0.000 N 
ATOM      6  H   UNL     1       1.835   7.530  20.849  0.00  0.00    +0.000 HD
ENDROOT
BRANCH   1  11
ATOM      7  C   UNL     1       0.757  12.454  19.685  0.00  0.00    +0.000 A 
ATOM      8  C   UNL     1       0.018  12.523  20.853  0.00  0.00    +0.000 A 
ATOM      9  C   UNL     1      -0.279  11.322  21.518  0.00  0.00    +0.000 A 
ATOM     10  C   UNL     1       0.150  10.065  21.041  0.00  0.00    +0.000 A 
ATOM     11  C   UNL     1       0.869  10.003  19.837  0.00  0.00    +0.000 A 
ATOM     12  C   UNL     1       1.148  11.225  19.176  0.00  0.00    +0.000 A 
BRANCH   7  13
ATOM     13  S   UNL     1       1.258  13.926  18.817  0.00  0.00    +0.000 S 
ATOM     14  O   UNL     1       0.052  14.631  18.423  0.00  0.00    +0.000 OA
ATOM     15  O   UNL     1       2.247  13.510  17.840  0.00  0.00    +0.000 OA
BRANCH  13  17
ATOM     16  C   UNL     1       1.486  16.301  20.166  0.00  0.00    +0.000 C 
ATOM     17  C   UNL     1       2.083  14.911  20.069  0.00  0.00    +0.000 C 
ENDBRANCH  13  17
ENDBRANCH   7  13
BRANCH  10  18
ATOM     18  O   UNL     1      -0.079   9.055  21.943  0.00  0.00    +0.000 OA
ATOM     19  C   UNL     1      -0.019   9.340  23.332  0.00  0.00    +0.000 C 
ENDBRANCH  10  18
ENDBRANCH   1  11
BRANCH   4  20
ATOM     20  C   UNL     1       3.736   5.962  19.606  0.00  0.00    +0.000 C 
BRANCH  20  21
ATOM     21  N   UNL     1       3.144   4.626  19.464  0.00  0.00    +0.000 NA
ATOM     22  C   UNL     1       1.700   4.704  19.198  0.00  0.00    +0.000 C 
ATOM     23  C   UNL     1       0.876   3.512  19.724  0.00  0.00    +0.000 C 
ATOM     24  C   UNL     1       0.920   2.298  18.821  0.00  0.00    +0.000 C 
ATOM     25  C   UNL     1       2.309   1.690  18.731  0.00  0.00    +0.000 C 
ATOM     26  C   UNL     1       3.240   2.549  17.888  0.00  0.00    +0.000 C 
ATOM     27  C   UNL     1       3.960   3.700  18.635  0.00  0.00    +0.000 C 
BRANCH  27  28
ATOM     28  C   UNL     1       4.962   4.315  17.627  0.00  0.00    +0.000 A 
ATOM     29  C   UNL     1       4.590   4.629  16.307  0.00  0.00    +0.000 A 
ATOM     30  C   UNL     1       5.554   5.000  15.360  0.00  0.00    +0.000 A 
ATOM     31  C   UNL     1       6.894   5.082  15.714  0.00  0.00    +0.000 A 
ATOM     32  C   UNL     1       7.278   4.828  17.028  0.00  0.00    +0.000 A 
ATOM     33  C   UNL     1       6.314   4.454  17.976  0.00  0.00    +0.000 A 
ENDBRANCH  27  28
ENDBRANCH  20  21
ENDBRANCH   4  20
TORSDOF 7
ENDMDL
