MODEL 1
REMARK VINA RESULT:      -7.6      0.000      0.000
REMARK  Name = 
REMARK  1 active torsions:
REMARK  status: ('A' for Active; 'I' for Inactive)
REMARK    1  A    between atoms: C_1  and  C_2
REMARK                            x       y       z     vdW  Elec       q    Type
REMARK                         _______ _______ _______ _____ _____    ______ ____
ROOT
ATOM      1  C   UNL     1      -2.622  12.000  20.222  0.00  0.00    +0.000 C 
ATOM      2  C   UNL     1      -1.072  11.968  20.870  0.00  0.00    +0.000 C 
ATOM      3  C   UNL     1      -1.467  13.673  21.419  0.00  0.00    +0.000 C 
ATOM      4  C   UNL     1      -0.675  15.054  21.363  0.00  0.00    +0.000 C 
ATOM      5  C   UNL     1       0.764  14.803  21.624  0.00  0.00    +0.000 C 
ATOM      6  O   UNL     1       1.532  15.652  22.052  0.00  0.00    +0.000 OA
ATOM      7  C   UNL     1       1.144  13.586  21.001  0.00  0.00    +0.000 A 
ATOM      8  C   UNL     1       2.397  13.128  20.649  0.00  0.00    +0.000 A 
ATOM      9  O   UNL     1       2.233  12.191  19.665  0.00  0.00    +0.000 OA
ATOM     10  C   UNL     1       0.880  12.198  19.356  0.00  0.00    +0.000 A 
ATOM     11  C   UNL     1       0.256  12.617  20.453  0.00  0.00    +0.000 A 
ATOM     12  C   UNL     1       0.127  11.177  18.776  0.00  0.00    +0.000 C 
ATOM     13  O   UNL     1      -0.810  11.190  17.990  0.00  0.00    +0.000 OA
ATOM     14  C   UNL     1       0.240  10.117  19.746  0.00  0.00    +0.000 A 
ATOM     15  C   UNL     1       1.270   9.338  19.010  0.00  0.00    +0.000 A 
ATOM     16  C   UNL     1       1.904   8.209  19.394  0.00  0.00    +0.000 A 
ATOM     17  C   UNL     1       1.402   7.697  20.516  0.00  0.00    +0.000 A 
ATOM     18  C   UNL     1       0.244   8.743  21.251  0.00  0.00    +0.000 A 
ATOM     19  C   UNL     1      -0.377  10.218  21.105  0.00  0.00    +0.000 A 
ATOM     20  C   UNL     1       2.070   6.093  20.495  0.00  0.00    +0.000 C 
ATOM     21  O   UNL     1       1.573   5.140  21.083  0.00  0.00    +0.000 OA
ATOM     22  C   UNL     1       3.460   5.779  19.444  0.00  0.00    +0.000 C 
ATOM     23  C   UNL     1       3.741   6.734  18.551  0.00  0.00    +0.000 C 
ATOM     24  C   UNL     1       2.578   7.521  18.315  0.00  0.00    +0.000 C 
ATOM     25  O   UNL     1       2.004   7.477  17.227  0.00  0.00    +0.000 OA
ATOM     26  S   UNL     1       4.918   6.586  17.281  0.00  0.00    +0.000 S 
ATOM     27  O   UNL     1       6.237   6.971  17.768  0.00  0.00    +0.000 OA
ATOM     28  O   UNL     1       4.459   7.196  16.046  0.00  0.00    +0.000 OA
ATOM     29  C   UNL     1       4.979   4.847  16.984  0.00  0.00    +0.000 C 
ATOM     30  C   UNL     1       5.266   4.230  18.337  0.00  0.00    +0.000 C 
ATOM     31  N   UNL     1       4.177   4.534  19.338  0.00  0.00    +0.000 N 
ATOM     32  H   UNL     1       3.800   3.724  19.830  0.00  0.00    +0.000 HD
ENDROOT
TORSDOF 0
ENDMDL
MODEL 2
REMARK VINA RESULT:      -7.4      2.119      4.033
REMARK  Name = 
REMARK  1 active torsions:
REMARK  status: ('A' for Active; 'I' for Inactive)
REMARK    1  A    between atoms: C_1  and  C_2
REMARK                            x       y       z     vdW  Elec       q    Type
REMARK                         _______ _______ _______ _____ _____    ______ ____
ROOT
ATOM      1  C   UNL     1       1.755  12.801  20.486  0.00  0.00    +0.000 C 
ATOM      2  C   UNL     1       0.856  11.881  19.405  0.00  0.00    +0.000 C 
ATOM      3  C   UNL     1      -0.304  13.301  19.449  0.00  0.00    +0.000 C 
ATOM      4  C   UNL     1      -1.886  13.421  19.602  0.00  0.00    +0.000 C 
ATOM      5  C   UNL     1      -2.533  12.314  18.855  0.00  0.00    +0.000 C 
ATOM      6  O   UNL     1      -3.681  12.360  18.437  0.00  0.00    +0.000 OA
ATOM      7  C   UNL     1      -1.757  11.135  19.004  0.00  0.00    +0.000 A 
ATOM      8  C   UNL     1      -2.114   9.814  18.825  0.00  0.00    +0.000 A 
ATOM      9  O   UNL     1      -1.237   9.048  19.544  0.00  0.00    +0.000 OA
ATOM     10  C   UNL     1      -0.441   9.941  20.248  0.00  0.00    +0.000 A 
ATOM     11  C   UNL     1      -0.440  11.067  19.539  0.00  0.00    +0.000 A 
ATOM     12  C   UNL     1       0.841   9.732  20.756  0.00  0.00    +0.000 C 
ATOM     13  O   UNL     1       1.398  10.128  21.771  0.00  0.00    +0.000 OA
ATOM     14  C   UNL     1       1.609   9.469  19.567  0.00  0.00    +0.000 A 
ATOM     15  C   UNL     1       1.652   7.992  19.728  0.00  0.00    +0.000 A 
ATOM     16  C   UNL     1       2.185   7.070  18.897  0.00  0.00    +0.000 A 
ATOM     17  C   UNL     1       2.868   7.619  17.895  0.00  0.00    +0.000 A 
ATOM     18  C   UNL     1       2.684   9.334  17.840  0.00  0.00    +0.000 A 
ATOM     19  C   UNL     1       1.859  10.524  18.536  0.00  0.00    +0.000 A 
ATOM     20  C   UNL     1       3.774   6.258  17.307  0.00  0.00    +0.000 C 
ATOM     21  O   UNL     1       4.824   6.357  16.682  0.00  0.00    +0.000 OA
ATOM     22  C   UNL     1       3.237   4.634  17.762  0.00  0.00    +0.000 C 
ATOM     23  C   UNL     1       2.319   4.577  18.733  0.00  0.00    +0.000 C 
ATOM     24  C   UNL     1       2.370   5.772  19.507  0.00  0.00    +0.000 C 
ATOM     25  O   UNL     1       2.768   5.745  20.672  0.00  0.00    +0.000 OA
ATOM     26  S   UNL     1       1.776   3.113  19.498  0.00  0.00    +0.000 S 
ATOM     27  O   UNL     1       0.680   2.525  18.740  0.00  0.00    +0.000 OA
ATOM     28  O   UNL     1       1.581   3.291  20.926  0.00  0.00    +0.000 OA
ATOM     29  C   UNL     1       3.155   2.026  19.316  0.00  0.00    +0.000 C 
ATOM     30  C   UNL     1       3.455   2.020  17.832  0.00  0.00    +0.000 C 
ATOM     31  N   UNL     1       3.825   3.394  17.327  0.00  0.00    +0.000 N 
ATOM     32  H   UNL     1       4.691   3.441  16.789  0.00  0.00    +0.000 HD
ENDROOT
TORSDOF 0
ENDMDL
MODEL 3
REMARK VINA RESULT:      -7.4      5.590      8.730
REMARK  Name = 
REMARK  1 active torsions:
REMARK  status: ('A' for Active; 'I' for Inactive)
REMARK    1  A    between atoms: C_1  and  C_2
REMARK                            x       y       z     vdW  Elec       q    Type
REMARK                         _______ _______ _______ _____ _____    ______ ____
ROOT
ATOM      1  C   UNL     1       2.343  11.730  18.502  0.00  0.00    +0.000 C 
ATOM      2  C   UNL     1       1.345  13.077  18.401  0.00  0.00    +0.000 C 
ATOM      3  C   UNL     1       2.841  13.905  17.737  0.00  0.00    +0.000 C 
ATOM      4  C   UNL     1       3.546  15.302  18.038  0.00  0.00    +0.000 C 
ATOM      5  C   UNL     1       2.505  16.334  18.267  0.00  0.00    +0.000 C 
ATOM      6  O   UNL     1       2.694  17.532  18.108  0.00  0.00    +0.000 OA
ATOM      7  C   UNL     1       1.429  15.759  18.991  0.00  0.00    +0.000 A 
ATOM      8  C   UNL     1       0.443  16.366  19.739  0.00  0.00    +0.000 A 
ATOM      9  O   UNL     1      -0.037  15.439  20.623  0.00  0.00    +0.000 OA
ATOM     10  C   UNL     1       0.766  14.317  20.470  0.00  0.00    +0.000 A 
ATOM     11  C   UNL     1       1.232  14.368  19.225  0.00  0.00    +0.000 A 
ATOM     12  C   UNL     1       0.459  12.992  20.779  0.00  0.00    +0.000 C 
ATOM     13  O   UNL     1       1.136  12.070  21.213  0.00  0.00    +0.000 OA
ATOM     14  C   UNL     1      -0.658  12.721  19.910  0.00  0.00    +0.000 A 
ATOM     15  C   UNL     1      -1.709  12.870  20.949  0.00  0.00    +0.000 A 
ATOM     16  C   UNL     1      -3.050  12.806  20.805  0.00  0.00    +0.000 A 
ATOM     17  C   UNL     1      -3.415  12.417  19.585  0.00  0.00    +0.000 A 
ATOM     18  C   UNL     1      -2.076  12.324  18.501  0.00  0.00    +0.000 A 
ATOM     19  C   UNL     1      -0.507  12.661  18.422  0.00  0.00    +0.000 A 
ATOM     20  C   UNL     1      -5.082  11.997  19.839  0.00  0.00    +0.000 C 
ATOM     21  O   UNL     1      -5.704  11.217  19.128  0.00  0.00    +0.000 OA
ATOM     22  C   UNL     1      -5.888  12.611  21.290  0.00  0.00    +0.000 C 
ATOM     23  C   UNL     1      -5.087  13.147  22.218  0.00  0.00    +0.000 C 
ATOM     24  C   UNL     1      -3.765  12.643  22.051  0.00  0.00    +0.000 C 
ATOM     25  O   UNL     1      -3.274  11.889  22.891  0.00  0.00    +0.000 OA
ATOM     26  S   UNL     1      -5.598  13.635  23.806  0.00  0.00    +0.000 S 
ATOM     27  O   UNL     1      -6.099  15.002  23.775  0.00  0.00    +0.000 OA
ATOM     28  O   UNL     1      -4.607  13.308  24.816  0.00  0.00    +0.000 OA
ATOM     29  C   UNL     1      -6.990  12.596  24.121  0.00  0.00    +0.000 C 
ATOM     30  C   UNL     1      -7.917  12.815  22.943  0.00  0.00    +0.000 C 
ATOM     31  N   UNL     1      -7.272  12.415  21.638  0.00  0.00    +0.000 N 
ATOM     32  H   UNL     1      -7.824  11.784  21.056  0.00  0.00    +0.000 HD
ENDROOT
TORSDOF 0
ENDMDL
MODEL 4
REMARK VINA RESULT:      -7.2      5.563      8.093
REMARK  Name = 
REMARK  1 active torsions:
REMARK  status: ('A' for Active; 'I' for Inactive)
REMARK    1  A    between atoms: C_1  and  C_2
REMARK                            x       y       z     vdW  Elec       q    Type
REMARK                         _______ _______ _______ _____ _____    ______ ____
ROOT
ATOM      1  C   UNL     1       1.096  16.371  22.106  0.00  0.00    +0.000 C 
ATOM      2  C   UNL     1       1.459  15.842  20.553  0.00  0.00    +0.000 C 
ATOM      3  C   UNL     1      -0.325  15.421  20.480  0.00  0.00    +0.000 C 
ATOM      4  C   UNL     1      -1.130  14.136  19.992  0.00  0.00    +0.000 C 
ATOM      5  C   UNL     1      -0.469  13.576  18.787  0.00  0.00    +0.000 C 
ATOM      6  O   UNL     1      -1.046  12.884  17.959  0.00  0.00    +0.000 OA
ATOM      7  C   UNL     1       0.938  13.687  18.932  0.00  0.00    +0.000 A 
ATOM      8  C   UNL     1       1.949  13.005  18.288  0.00  0.00    +0.000 A 
ATOM      9  O   UNL     1       3.063  13.071  19.079  0.00  0.00    +0.000 OA
ATOM     10  C   UNL     1       2.658  13.691  20.253  0.00  0.00    +0.000 A 
ATOM     11  C   UNL     1       1.615  14.450  19.925  0.00  0.00    +0.000 A 
ATOM     12  C   UNL     1       3.444  14.386  21.172  0.00  0.00    +0.000 C 
ATOM     13  O   UNL     1       3.394  14.483  22.391  0.00  0.00    +0.000 OA
ATOM     14  C   UNL     1       3.959  15.475  20.382  0.00  0.00    +0.000 A 
ATOM     15  C   UNL     1       5.305  14.888  20.159  0.00  0.00    +0.000 A 
ATOM     16  C   UNL     1       6.322  15.374  19.415  0.00  0.00    +0.000 A 
ATOM     17  C   UNL     1       6.083  16.603  18.963  0.00  0.00    +0.000 A 
ATOM     18  C   UNL     1       4.466  17.114  19.283  0.00  0.00    +0.000 A 
ATOM     19  C   UNL     1       3.072  16.560  19.858  0.00  0.00    +0.000 A 
ATOM     20  C   UNL     1       7.672  17.107  18.472  0.00  0.00    +0.000 C 
ATOM     21  O   UNL     1       8.018  18.280  18.384  0.00  0.00    +0.000 OA
ATOM     22  C   UNL     1       8.907  15.863  18.228  0.00  0.00    +0.000 C 
ATOM     23  C   UNL     1       8.600  14.643  18.683  0.00  0.00    +0.000 C 
ATOM     24  C   UNL     1       7.597  14.749  19.689  0.00  0.00    +0.000 C 
ATOM     25  O   UNL     1       7.861  14.491  20.863  0.00  0.00    +0.000 OA
ATOM     26  S   UNL     1       9.707  13.304  18.749  0.00  0.00    +0.000 S 
ATOM     27  O   UNL     1       9.703  12.584  17.482  0.00  0.00    +0.000 OA
ATOM     28  O   UNL     1       9.537  12.523  19.961  0.00  0.00    +0.000 OA
ATOM     29  C   UNL     1      11.284  14.087  18.878  0.00  0.00    +0.000 C 
ATOM     30  C   UNL     1      11.343  15.041  17.703  0.00  0.00    +0.000 C 
ATOM     31  N   UNL     1      10.254  16.085  17.770  0.00  0.00    +0.000 N 
ATOM     32  H   UNL     1      10.570  17.050  17.670  0.00  0.00    +0.000 HD
ENDROOT
TORSDOF 0
ENDMDL
MODEL 5
REMARK VINA RESULT:      -6.8      6.966     10.669
REMARK  Name = 
REMARK  1 active torsions:
REMARK  status: ('A' for Active; 'I' for Inactive)
REMARK    1  A    between atoms: C_1  and  C_2
REMARK                            x       y       z     vdW  Elec       q    Type
REMARK                         _______ _______ _______ _____ _____    ______ ____
ROOT
ATOM      1  C   UNL     1      11.517  16.013  20.524  0.00  0.00    +0.000 C 
ATOM      2  C   UNL     1      10.457  14.740  20.246  0.00  0.00    +0.000 C 
ATOM      3  C   UNL     1      11.948  13.883  19.608  0.00  0.00    +0.000 C 
ATOM      4  C   UNL     1      12.243  13.022  18.300  0.00  0.00    +0.000 C 
ATOM      5  C   UNL     1      11.056  12.188  17.987  0.00  0.00    +0.000 C 
ATOM      6  O   UNL     1      11.109  11.155  17.335  0.00  0.00    +0.000 OA
ATOM      7  C   UNL     1       9.879  12.931  18.261  0.00  0.00    +0.000 A 
ATOM      8  C   UNL     1       8.591  12.746  17.803  0.00  0.00    +0.000 A 
ATOM      9  O   UNL     1       7.936  13.942  17.915  0.00  0.00    +0.000 OA
ATOM     10  C   UNL     1       8.893  14.861  18.325  0.00  0.00    +0.000 A 
ATOM     11  C   UNL     1       9.818  14.161  18.975  0.00  0.00    +0.000 A 
ATOM     12  C   UNL     1       8.691  16.068  18.995  0.00  0.00    +0.000 C 
ATOM     13  O   UNL     1       9.260  17.150  18.931  0.00  0.00    +0.000 OA
ATOM     14  C   UNL     1       8.090  15.640  20.233  0.00  0.00    +0.000 A 
ATOM     15  C   UNL     1       6.694  15.985  19.859  0.00  0.00    +0.000 A 
ATOM     16  C   UNL     1       5.560  15.780  20.563  0.00  0.00    +0.000 A 
ATOM     17  C   UNL     1       5.797  15.341  21.798  0.00  0.00    +0.000 A 
ATOM     18  C   UNL     1       7.461  14.963  22.049  0.00  0.00    +0.000 A 
ATOM     19  C   UNL     1       8.850  14.849  21.250  0.00  0.00    +0.000 A 
ATOM     20  C   UNL     1       4.260  15.611  22.563  0.00  0.00    +0.000 C 
ATOM     21  O   UNL     1       4.115  15.749  23.772  0.00  0.00    +0.000 OA
ATOM     22  C   UNL     1       2.842  15.851  21.531  0.00  0.00    +0.000 C 
ATOM     23  C   UNL     1       3.095  16.058  20.234  0.00  0.00    +0.000 C 
ATOM     24  C   UNL     1       4.428  16.539  20.081  0.00  0.00    +0.000 C 
ATOM     25  O   UNL     1       4.636  17.696  19.715  0.00  0.00    +0.000 OA
ATOM     26  S   UNL     1       1.905  16.516  19.054  0.00  0.00    +0.000 S 
ATOM     27  O   UNL     1       1.258  15.332  18.504  0.00  0.00    +0.000 OA
ATOM     28  O   UNL     1       2.426  17.491  18.111  0.00  0.00    +0.000 OA
ATOM     29  C   UNL     1       0.684  17.356  20.013  0.00  0.00    +0.000 C 
ATOM     30  C   UNL     1       0.306  16.379  21.107  0.00  0.00    +0.000 C 
ATOM     31  N   UNL     1       1.486  16.031  21.983  0.00  0.00    +0.000 N 
ATOM     32  H   UNL     1       1.328  16.132  22.986  0.00  0.00    +0.000 HD
ENDROOT
TORSDOF 0
ENDMDL
MODEL 6
REMARK VINA RESULT:      -6.5      8.106      9.979
REMARK  Name = 
REMARK  1 active torsions:
REMARK  status: ('A' for Active; 'I' for Inactive)
REMARK    1  A    between atoms: C_1  and  C_2
REMARK                            x       y       z     vdW  Elec       q    Type
REMARK                         _______ _______ _______ _____ _____    ______ ____
ROOT
ATOM      1  C   UNL     1       8.640  15.297  27.607  0.00  0.00    +0.000 C 
ATOM      2  C   UNL     1       7.820  15.847  26.247  0.00  0.00    +0.000 C 
ATOM      3  C   UNL     1       6.540  16.361  27.455  0.00  0.00    +0.000 C 
ATOM      4  C   UNL     1       4.955  16.209  27.506  0.00  0.00    +0.000 C 
ATOM      5  C   UNL     1       4.404  16.387  26.139  0.00  0.00    +0.000 C 
ATOM      6  O   UNL     1       3.255  16.738  25.913  0.00  0.00    +0.000 OA
ATOM      7  C   UNL     1       5.281  15.784  25.201  0.00  0.00    +0.000 A 
ATOM      8  C   UNL     1       5.042  15.370  23.907  0.00  0.00    +0.000 A 
ATOM      9  O   UNL     1       5.985  14.430  23.592  0.00  0.00    +0.000 OA
ATOM     10  C   UNL     1       6.703  14.207  24.759  0.00  0.00    +0.000 A 
ATOM     11  C   UNL     1       6.602  15.326  25.470  0.00  0.00    +0.000 A 
ATOM     12  C   UNL     1       8.000  13.710  24.886  0.00  0.00    +0.000 C 
ATOM     13  O   UNL     1       8.525  12.984  25.719  0.00  0.00    +0.000 OA
ATOM     14  C   UNL     1       8.784  14.706  24.201  0.00  0.00    +0.000 A 
ATOM     15  C   UNL     1       8.957  13.935  22.943  0.00  0.00    +0.000 A 
ATOM     16  C   UNL     1       9.564  14.317  21.799  0.00  0.00    +0.000 A 
ATOM     17  C   UNL     1      10.193  15.485  21.919  0.00  0.00    +0.000 A 
ATOM     18  C   UNL     1       9.858  16.255  23.426  0.00  0.00    +0.000 A 
ATOM     19  C   UNL     1       8.935  16.097  24.731  0.00  0.00    +0.000 A 
ATOM     20  C   UNL     1      11.212  15.476  20.512  0.00  0.00    +0.000 C 
ATOM     21  O   UNL     1      12.247  16.127  20.415  0.00  0.00    +0.000 OA
ATOM     22  C   UNL     1      10.821  14.352  19.201  0.00  0.00    +0.000 C 
ATOM     23  C   UNL     1       9.916  13.411  19.493  0.00  0.00    +0.000 C 
ATOM     24  C   UNL     1       9.866  13.222  20.904  0.00  0.00    +0.000 C 
ATOM     25  O   UNL     1      10.270  12.173  21.408  0.00  0.00    +0.000 OA
ATOM     26  S   UNL     1       9.508  12.076  18.458  0.00  0.00    +0.000 S 
ATOM     27  O   UNL     1       8.465  12.466  17.519  0.00  0.00    +0.000 OA
ATOM     28  O   UNL     1       9.304  10.852  19.213  0.00  0.00    +0.000 OA
ATOM     29  C   UNL     1      10.976  11.835  17.508  0.00  0.00    +0.000 C 
ATOM     30  C   UNL     1      11.269  13.188  16.892  0.00  0.00    +0.000 C 
ATOM     31  N   UNL     1      11.515  14.243  17.943  0.00  0.00    +0.000 N 
ATOM     32  H   UNL     1      12.371  14.785  17.824  0.00  0.00    +0.000 HD
ENDROOT
TORSDOF 0
ENDMDL
MODEL 7
REMARK VINA RESULT:      -6.4      6.876     10.336
REMARK  Name = 
REMARK  1 active torsions:
REMARK  status: ('A' for Active; 'I' for Inactive)
REMARK    1  A    between atoms: C_1  and  C_2
REMARK                            x       y       z     vdW  Elec       q    Type
REMARK                         _______ _______ _______ _____ _____    ______ ____
ROOT
ATOM      1  C   UNL     1      10.172  17.421  20.216  0.00  0.00    +0.000 C 
ATOM      2  C   UNL     1       9.342  15.972  20.033  0.00  0.00    +0.000 C 
ATOM      3  C   UNL     1      10.946  15.349  19.397  0.00  0.00    +0.000 C 
ATOM      4  C   UNL     1      11.360  14.482  18.126  0.00  0.00    +0.000 C 
ATOM      5  C   UNL     1      10.329  13.441  17.890  0.00  0.00    +0.000 C 
ATOM      6  O   UNL     1      10.545  12.398  17.289  0.00  0.00    +0.000 OA
ATOM      7  C   UNL     1       9.046  13.985  18.160  0.00  0.00    +0.000 A 
ATOM      8  C   UNL     1       7.801  13.558  17.748  0.00  0.00    +0.000 A 
ATOM      9  O   UNL     1       6.952  14.629  17.818  0.00  0.00    +0.000 OA
ATOM     10  C   UNL     1       7.743  15.719  18.154  0.00  0.00    +0.000 A 
ATOM     11  C   UNL     1       8.788  15.224  18.812  0.00  0.00    +0.000 A 
ATOM     12  C   UNL     1       7.350  16.908  18.768  0.00  0.00    +0.000 C 
ATOM     13  O   UNL     1       7.722  18.066  18.633  0.00  0.00    +0.000 OA
ATOM     14  C   UNL     1       6.856  16.452  20.042  0.00  0.00    +0.000 A 
ATOM     15  C   UNL     1       5.414  16.532  19.692  0.00  0.00    +0.000 A 
ATOM     16  C   UNL     1       4.346  16.174  20.437  0.00  0.00    +0.000 A 
ATOM     17  C   UNL     1       4.679  15.851  21.685  0.00  0.00    +0.000 A 
ATOM     18  C   UNL     1       6.388  15.777  21.907  0.00  0.00    +0.000 A 
ATOM     19  C   UNL     1       7.760  15.859  21.076  0.00  0.00    +0.000 A 
ATOM     20  C   UNL     1       3.134  15.895  22.479  0.00  0.00    +0.000 C 
ATOM     21  O   UNL     1       2.991  16.072  23.683  0.00  0.00    +0.000 OA
ATOM     22  C   UNL     1       1.676  15.832  21.477  0.00  0.00    +0.000 C 
ATOM     23  C   UNL     1       1.864  16.009  20.164  0.00  0.00    +0.000 C 
ATOM     24  C   UNL     1       3.091  16.701  19.949  0.00  0.00    +0.000 C 
ATOM     25  O   UNL     1       3.089  17.855  19.519  0.00  0.00    +0.000 OA
ATOM     26  S   UNL     1       0.590  16.191  18.996  0.00  0.00    +0.000 S 
ATOM     27  O   UNL     1       0.147  14.886  18.526  0.00  0.00    +0.000 OA
ATOM     28  O   UNL     1       0.917  17.188  17.992  0.00  0.00    +0.000 OA
ATOM     29  C   UNL     1      -0.738  16.861  19.947  0.00  0.00    +0.000 C 
ATOM     30  C   UNL     1      -0.921  15.895  21.099  0.00  0.00    +0.000 C 
ATOM     31  N   UNL     1       0.318  15.802  21.957  0.00  0.00    +0.000 N 
ATOM     32  H   UNL     1       0.165  15.929  22.957  0.00  0.00    +0.000 HD
ENDROOT
TORSDOF 0
ENDMDL
MODEL 8
REMARK VINA RESULT:      -6.4      6.324      9.300
REMARK  Name = 
REMARK  1 active torsions:
REMARK  status: ('A' for Active; 'I' for Inactive)
REMARK    1  A    between atoms: C_1  and  C_2
REMARK                            x       y       z     vdW  Elec       q    Type
REMARK                         _______ _______ _______ _____ _____    ______ ____
ROOT
ATOM      1  C   UNL     1       1.779  18.264  20.405  0.00  0.00    +0.000 C 
ATOM      2  C   UNL     1       1.638  16.592  20.496  0.00  0.00    +0.000 C 
ATOM      3  C   UNL     1       3.202  16.594  19.538  0.00  0.00    +0.000 C 
ATOM      4  C   UNL     1       3.703  15.797  18.253  0.00  0.00    +0.000 C 
ATOM      5  C   UNL     1       3.198  14.402  18.317  0.00  0.00    +0.000 C 
ATOM      6  O   UNL     1       3.727  13.464  17.738  0.00  0.00    +0.000 OA
ATOM      7  C   UNL     1       1.882  14.407  18.849  0.00  0.00    +0.000 A 
ATOM      8  C   UNL     1       0.891  13.452  18.761  0.00  0.00    +0.000 A 
ATOM      9  O   UNL     1      -0.307  14.079  18.970  0.00  0.00    +0.000 OA
ATOM     10  C   UNL     1      -0.017  15.434  19.055  0.00  0.00    +0.000 A 
ATOM     11  C   UNL     1       1.242  15.512  19.478  0.00  0.00    +0.000 A 
ATOM     12  C   UNL     1      -0.762  16.433  19.681  0.00  0.00    +0.000 C 
ATOM     13  O   UNL     1      -0.959  17.609  19.403  0.00  0.00    +0.000 OA
ATOM     14  C   UNL     1      -0.761  16.007  21.057  0.00  0.00    +0.000 A 
ATOM     15  C   UNL     1      -2.134  15.437  21.048  0.00  0.00    +0.000 A 
ATOM     16  C   UNL     1      -2.781  14.787  22.039  0.00  0.00    +0.000 A 
ATOM     17  C   UNL     1      -2.114  14.815  23.191  0.00  0.00    +0.000 A 
ATOM     18  C   UNL     1      -0.532  15.481  23.013  0.00  0.00    +0.000 A 
ATOM     19  C   UNL     1       0.487  15.995  21.882  0.00  0.00    +0.000 A 
ATOM     20  C   UNL     1      -3.346  14.338  24.318  0.00  0.00    +0.000 C 
ATOM     21  O   UNL     1      -3.323  14.616  25.512  0.00  0.00    +0.000 OA
ATOM     22  C   UNL     1      -4.794  13.538  23.687  0.00  0.00    +0.000 C 
ATOM     23  C   UNL     1      -4.950  13.582  22.360  0.00  0.00    +0.000 C 
ATOM     24  C   UNL     1      -4.208  14.676  21.830  0.00  0.00    +0.000 C 
ATOM     25  O   UNL     1      -4.788  15.651  21.352  0.00  0.00    +0.000 OA
ATOM     26  S   UNL     1      -6.373  13.053  21.512  0.00  0.00    +0.000 S 
ATOM     27  O   UNL     1      -6.288  11.627  21.227  0.00  0.00    +0.000 OA
ATOM     28  O   UNL     1      -6.703  13.937  20.409  0.00  0.00    +0.000 OA
ATOM     29  C   UNL     1      -7.655  13.252  22.709  0.00  0.00    +0.000 C 
ATOM     30  C   UNL     1      -7.182  12.476  23.921  0.00  0.00    +0.000 C 
ATOM     31  N   UNL     1      -5.888  13.025  24.471  0.00  0.00    +0.000 N 
ATOM     32  H   UNL     1      -5.891  13.224  25.472  0.00  0.00    +0.000 HD
ENDROOT
TORSDOF 0
ENDMDL
MODEL 9
REMARK VINA RESULT:      -6.4      6.473      8.187
REMARK  Name = 
REMARK  1 active torsions:
REMARK  status: ('A' for Active; 'I' for Inactive)
REMARK    1  A    between atoms: C_1  and  C_2
REMARK                            x       y       z     vdW  Elec       q    Type
REMARK                         _______ _______ _______ _____ _____    ______ ____
ROOT
ATOM      1  C   UNL     1       3.180  17.075  23.566  0.00  0.00    +0.000 C 
ATOM      2  C   UNL     1       3.414  16.851  21.917  0.00  0.00    +0.000 C 
ATOM      3  C   UNL     1       1.626  17.241  21.799  0.00  0.00    +0.000 C 
ATOM      4  C   UNL     1       0.407  16.572  21.021  0.00  0.00    +0.000 C 
ATOM      5  C   UNL     1       0.872  16.111  19.689  0.00  0.00    +0.000 C 
ATOM      6  O   UNL     1       0.130  15.951  18.731  0.00  0.00    +0.000 OA
ATOM      7  C   UNL     1       2.186  15.588  19.810  0.00  0.00    +0.000 A 
ATOM      8  C   UNL     1       2.877  14.734  18.976  0.00  0.00    +0.000 A 
ATOM      9  O   UNL     1       3.855  14.131  19.719  0.00  0.00    +0.000 OA
ATOM     10  C   UNL     1       3.649  14.548  21.027  0.00  0.00    +0.000 A 
ATOM     11  C   UNL     1       3.036  15.726  20.944  0.00  0.00    +0.000 A 
ATOM     12  C   UNL     1       4.577  14.599  22.067  0.00  0.00    +0.000 C 
ATOM     13  O   UNL     1       4.476  14.400  23.270  0.00  0.00    +0.000 OA
ATOM     14  C   UNL     1       5.551  15.537  21.571  0.00  0.00    +0.000 A 
ATOM     15  C   UNL     1       6.554  14.521  21.156  0.00  0.00    +0.000 A 
ATOM     16  C   UNL     1       7.734  14.711  20.529  0.00  0.00    +0.000 A 
ATOM     17  C   UNL     1       8.055  15.999  20.422  0.00  0.00    +0.000 A 
ATOM     18  C   UNL     1       6.768  17.036  20.919  0.00  0.00    +0.000 A 
ATOM     19  C   UNL     1       5.229  16.985  21.377  0.00  0.00    +0.000 A 
ATOM     20  C   UNL     1       9.743  15.905  20.024  0.00  0.00    +0.000 C 
ATOM     21  O   UNL     1      10.544  16.809  20.232  0.00  0.00    +0.000 OA
ATOM     22  C   UNL     1      10.377  14.366  19.422  0.00  0.00    +0.000 C 
ATOM     23  C   UNL     1       9.564  13.311  19.554  0.00  0.00    +0.000 C 
ATOM     24  C   UNL     1       8.617  13.568  20.587  0.00  0.00    +0.000 C 
ATOM     25  O   UNL     1       8.661  12.939  21.644  0.00  0.00    +0.000 OA
ATOM     26  S   UNL     1      10.019  11.665  19.232  0.00  0.00    +0.000 S 
ATOM     27  O   UNL     1       9.819  11.354  17.822  0.00  0.00    +0.000 OA
ATOM     28  O   UNL     1       9.451  10.748  20.204  0.00  0.00    +0.000 OA
ATOM     29  C   UNL     1      11.762  11.664  19.505  0.00  0.00    +0.000 C 
ATOM     30  C   UNL     1      12.298  12.768  18.618  0.00  0.00    +0.000 C 
ATOM     31  N   UNL     1      11.729  14.116  18.991  0.00  0.00    +0.000 N 
ATOM     32  H   UNL     1      12.418  14.855  19.135  0.00  0.00    +0.000 HD
ENDROOT
TORSDOF 0
ENDMDL
