MODEL 1
REMARK VINA RESULT:      -7.1      0.000      0.000
REMARK  Name = 
REMARK  8 active torsions:
REMARK  status: ('A' for Active; 'I' for Inactive)
REMARK    1  A    between atoms: C_1  and  O_2
REMARK    2  A    between atoms: O_2  and  C_3
REMARK    3  A    between atoms: C_5  and  C_6
REMARK    4  A    between atoms: C_6  and  C_8
REMARK    5  A    between atoms: C_18  and  O_19
REMARK    6  A    between atoms: O_19  and  C_20
REMARK    7  A    between atoms: C_21  and  O_22
REMARK    8  A    between atoms: O_22  and  C_23
REMARK                            x       y       z     vdW  Elec       q    Type
REMARK                         _______ _______ _______ _____ _____    ______ ____
ROOT
ATOM      1  C   UNL     1       4.831   4.821  18.711  0.00  0.00    +0.000 A 
ATOM      2  C   UNL     1       4.381   6.128  18.427  0.00  0.00    +0.000 A 
ATOM      3  C   UNL     1       3.042   6.387  18.099  0.00  0.00    +0.000 A 
ATOM      4  C   UNL     1       2.203   5.308  17.902  0.00  0.00    +0.000 A 
ATOM      5  C   UNL     1       2.638   3.995  18.095  0.00  0.00    +0.000 A 
ATOM      6  C   UNL     1       3.963   3.723  18.528  0.00  0.00    +0.000 A 
ENDROOT
BRANCH   1   8
ATOM      7  C   UNL     1       7.022   5.708  18.874  0.00  0.00    +0.000 C 
ATOM      8  O   UNL     1       6.096   4.662  19.238  0.00  0.00    +0.000 OA
ENDBRANCH   1   8
BRANCH   3   9
ATOM      9  C   UNL     1       2.561   7.786  18.026  0.00  0.00    +0.000 C 
ATOM     10  O   UNL     1       2.829   8.446  17.023  0.00  0.00    +0.000 OA
BRANCH   9  11
ATOM     11  C   UNL     1       1.773   8.420  19.127  0.00  0.00    +0.000 A 
ATOM     12  C   UNL     1       1.799   7.780  20.380  0.00  0.00    +0.000 A 
ATOM     13  C   UNL     1       1.112   8.285  21.493  0.00  0.00    +0.000 A 
ATOM     14  C   UNL     1       0.409   9.461  21.276  0.00  0.00    +0.000 A 
ATOM     15  O   UNL     1      -0.318  10.177  22.181  0.00  0.00    +0.000 OA
ATOM     16  C   UNL     1      -0.793  11.225  21.469  0.00  0.00    +0.000 A 
ATOM     17  N   UNL     1      -0.450  11.242  20.191  0.00  0.00    +0.000 NA
ATOM     18  C   UNL     1       0.328  10.120  20.057  0.00  0.00    +0.000 A 
ATOM     19  C   UNL     1       1.004   9.587  18.945  0.00  0.00    +0.000 A 
ENDBRANCH   9  11
ENDBRANCH   3   9
BRANCH   5  20
ATOM     20  O   UNL     1       1.609   3.104  17.899  0.00  0.00    +0.000 OA
ATOM     21  C   UNL     1       0.738   2.771  18.970  0.00  0.00    +0.000 C 
ENDBRANCH   5  20
BRANCH   6  22
ATOM     22  O   UNL     1       4.200   2.412  18.803  0.00  0.00    +0.000 OA
ATOM     23  C   UNL     1       4.315   1.886  20.105  0.00  0.00    +0.000 C 
ENDBRANCH   6  22
TORSDOF 5
ENDMDL
MODEL 2
REMARK VINA RESULT:      -7.0      0.928      1.381
REMARK  Name = 
REMARK  8 active torsions:
REMARK  status: ('A' for Active; 'I' for Inactive)
REMARK    1  A    between atoms: C_1  and  O_2
REMARK    2  A    between atoms: O_2  and  C_3
REMARK    3  A    between atoms: C_5  and  C_6
REMARK    4  A    between atoms: C_6  and  C_8
REMARK    5  A    between atoms: C_18  and  O_19
REMARK    6  A    between atoms: O_19  and  C_20
REMARK    7  A    between atoms: C_21  and  O_22
REMARK    8  A    between atoms: O_22  and  C_23
REMARK                            x       y       z     vdW  Elec       q    Type
REMARK                         _______ _______ _______ _____ _____    ______ ____
ROOT
ATOM      1  C   UNL     1       4.884   4.702  18.725  0.00  0.00    +0.000 A 
ATOM      2  C   UNL     1       4.493   5.996  18.324  0.00  0.00    +0.000 A 
ATOM      3  C   UNL     1       3.153   6.305  18.049  0.00  0.00    +0.000 A 
ATOM      4  C   UNL     1       2.241   5.268  18.023  0.00  0.00    +0.000 A 
ATOM      5  C   UNL     1       2.611   3.958  18.336  0.00  0.00    +0.000 A 
ATOM      6  C   UNL     1       3.944   3.649  18.718  0.00  0.00    +0.000 A 
ENDROOT
BRANCH   1   8
ATOM      7  C   UNL     1       7.072   5.600  18.874  0.00  0.00    +0.000 C 
ATOM      8  O   UNL     1       6.169   4.519  19.192  0.00  0.00    +0.000 OA
ENDBRANCH   1   8
BRANCH   3   9
ATOM      9  C   UNL     1       2.750   7.716  17.847  0.00  0.00    +0.000 C 
ATOM     10  O   UNL     1       3.169   8.309  16.854  0.00  0.00    +0.000 OA
BRANCH   9  11
ATOM     11  C   UNL     1       1.864   8.440  18.810  0.00  0.00    +0.000 A 
ATOM     12  C   UNL     1       1.058   9.468  18.287  0.00  0.00    +0.000 A 
ATOM     13  C   UNL     1       0.177  10.208  19.087  0.00  0.00    +0.000 A 
ATOM     14  C   UNL     1       0.150   9.856  20.428  0.00  0.00    +0.000 A 
ATOM     15  O   UNL     1      -0.627  10.388  21.415  0.00  0.00    +0.000 OA
ATOM     16  C   UNL     1      -0.271   9.699  22.524  0.00  0.00    +0.000 A 
ATOM     17  N   UNL     1       0.668   8.785  22.344  0.00  0.00    +0.000 NA
ATOM     18  C   UNL     1       0.940   8.870  21.002  0.00  0.00    +0.000 A 
ATOM     19  C   UNL     1       1.836   8.152  20.189  0.00  0.00    +0.000 A 
ENDBRANCH   9  11
ENDBRANCH   3   9
BRANCH   5  20
ATOM     20  O   UNL     1       1.521   3.120  18.301  0.00  0.00    +0.000 OA
ATOM     21  C   UNL     1       0.761   2.888  19.478  0.00  0.00    +0.000 C 
ENDBRANCH   5  20
BRANCH   6  22
ATOM     22  O   UNL     1       4.122   2.362  19.123  0.00  0.00    +0.000 OA
ATOM     23  C   UNL     1       4.434   1.987  20.445  0.00  0.00    +0.000 C 
ENDBRANCH   6  22
TORSDOF 5
ENDMDL
MODEL 3
REMARK VINA RESULT:      -6.9      1.315      3.053
REMARK  Name = 
REMARK  8 active torsions:
REMARK  status: ('A' for Active; 'I' for Inactive)
REMARK    1  A    between atoms: C_1  and  O_2
REMARK    2  A    between atoms: O_2  and  C_3
REMARK    3  A    between atoms: C_5  and  C_6
REMARK    4  A    between atoms: C_6  and  C_8
REMARK    5  A    between atoms: C_18  and  O_19
REMARK    6  A    between atoms: O_19  and  C_20
REMARK    7  A    between atoms: C_21  and  O_22
REMARK    8  A    between atoms: O_22  and  C_23
REMARK                            x       y       z     vdW  Elec       q    Type
REMARK                         _______ _______ _______ _____ _____    ______ ____
ROOT
ATOM      1  C   UNL     1       2.259   3.941  19.791  0.00  0.00    +0.000 A 
ATOM      2  C   UNL     1       1.968   5.305  19.583  0.00  0.00    +0.000 A 
ATOM      3  C   UNL     1       2.936   6.194  19.094  0.00  0.00    +0.000 A 
ATOM      4  C   UNL     1       4.234   5.737  18.972  0.00  0.00    +0.000 A 
ATOM      5  C   UNL     1       4.573   4.410  19.249  0.00  0.00    +0.000 A 
ATOM      6  C   UNL     1       3.582   3.473  19.646  0.00  0.00    +0.000 A 
ENDROOT
BRANCH   1   8
ATOM      7  C   UNL     1       0.569   2.551  18.882  0.00  0.00    +0.000 C 
ATOM      8  O   UNL     1       1.215   3.080  20.060  0.00  0.00    +0.000 OA
ENDBRANCH   1   8
BRANCH   3   9
ATOM      9  C   UNL     1       2.538   7.560  18.680  0.00  0.00    +0.000 C 
ATOM     10  O   UNL     1       2.959   7.992  17.608  0.00  0.00    +0.000 OA
BRANCH   9  11
ATOM     11  C   UNL     1       1.654   8.425  19.520  0.00  0.00    +0.000 A 
ATOM     12  C   UNL     1       0.961   9.458  18.863  0.00  0.00    +0.000 A 
ATOM     13  C   UNL     1       0.092  10.325  19.541  0.00  0.00    +0.000 A 
ATOM     14  C   UNL     1      -0.040  10.093  20.902  0.00  0.00    +0.000 A 
ATOM     15  O   UNL     1      -0.831  10.762  21.789  0.00  0.00    +0.000 OA
ATOM     16  C   UNL     1      -0.594  10.149  22.972  0.00  0.00    +0.000 A 
ATOM     17  N   UNL     1       0.282   9.158  22.928  0.00  0.00    +0.000 NA
ATOM     18  C   UNL     1       0.638   9.107  21.604  0.00  0.00    +0.000 A 
ATOM     19  C   UNL     1       1.524   8.260  20.913  0.00  0.00    +0.000 A 
ENDBRANCH   9  11
ENDBRANCH   3   9
BRANCH   5  20
ATOM     20  O   UNL     1       5.905   4.183  18.995  0.00  0.00    +0.000 OA
ATOM     21  C   UNL     1       6.544   4.826  17.901  0.00  0.00    +0.000 C 
ENDBRANCH   5  20
BRANCH   6  22
ATOM     22  O   UNL     1       4.037   2.195  19.748  0.00  0.00    +0.000 OA
ATOM     23  C   UNL     1       3.912   1.229  18.729  0.00  0.00    +0.000 C 
ENDBRANCH   6  22
TORSDOF 5
ENDMDL
MODEL 4
REMARK VINA RESULT:      -6.9      2.120      2.757
REMARK  Name = 
REMARK  8 active torsions:
REMARK  status: ('A' for Active; 'I' for Inactive)
REMARK    1  A    between atoms: C_1  and  O_2
REMARK    2  A    between atoms: O_2  and  C_3
REMARK    3  A    between atoms: C_5  and  C_6
REMARK    4  A    between atoms: C_6  and  C_8
REMARK    5  A    between atoms: C_18  and  O_19
REMARK    6  A    between atoms: O_19  and  C_20
REMARK    7  A    between atoms: C_21  and  O_22
REMARK    8  A    between atoms: O_22  and  C_23
REMARK                            x       y       z     vdW  Elec       q    Type
REMARK                         _______ _______ _______ _____ _____    ______ ____
ROOT
ATOM      1  C   UNL     1       5.269   5.922  16.912  0.00  0.00    +0.000 A 
ATOM      2  C   UNL     1       4.310   6.498  17.770  0.00  0.00    +0.000 A 
ATOM      3  C   UNL     1       3.382   5.709  18.466  0.00  0.00    +0.000 A 
ATOM      4  C   UNL     1       3.324   4.361  18.168  0.00  0.00    +0.000 A 
ATOM      5  C   UNL     1       4.208   3.772  17.260  0.00  0.00    +0.000 A 
ATOM      6  C   UNL     1       5.220   4.540  16.626  0.00  0.00    +0.000 A 
ENDROOT
BRANCH   1   8
ATOM      7  C   UNL     1       7.348   6.958  17.382  0.00  0.00    +0.000 C 
ATOM      8  O   UNL     1       6.286   6.722  16.433  0.00  0.00    +0.000 OA
ENDBRANCH   1   8
BRANCH   3   9
ATOM      9  C   UNL     1       2.540   6.322  19.520  0.00  0.00    +0.000 C 
ATOM     10  O   UNL     1       2.294   5.662  20.529  0.00  0.00    +0.000 OA
BRANCH   9  11
ATOM     11  C   UNL     1       1.979   7.701  19.394  0.00  0.00    +0.000 A 
ATOM     12  C   UNL     1       1.998   8.284  18.113  0.00  0.00    +0.000 A 
ATOM     13  C   UNL     1       1.488   9.566  17.866  0.00  0.00    +0.000 A 
ATOM     14  C   UNL     1       0.958  10.219  18.969  0.00  0.00    +0.000 A 
ATOM     15  O   UNL     1       0.377  11.453  19.008  0.00  0.00    +0.000 OA
ATOM     16  C   UNL     1       0.034  11.616  20.307  0.00  0.00    +0.000 A 
ATOM     17  N   UNL     1       0.350  10.610  21.105  0.00  0.00    +0.000 NA
ATOM     18  C   UNL     1       0.936   9.704  20.257  0.00  0.00    +0.000 A 
ATOM     19  C   UNL     1       1.474   8.426  20.492  0.00  0.00    +0.000 A 
ENDBRANCH   9  11
ENDBRANCH   3   9
BRANCH   5  20
ATOM     20  O   UNL     1       3.994   2.416  17.179  0.00  0.00    +0.000 OA
ATOM     21  C   UNL     1       3.428   1.715  18.277  0.00  0.00    +0.000 C 
ENDBRANCH   5  20
BRANCH   6  22
ATOM     22  O   UNL     1       6.087   3.807  15.876  0.00  0.00    +0.000 OA
ATOM     23  C   UNL     1       6.197   3.905  14.475  0.00  0.00    +0.000 C 
ENDBRANCH   6  22
TORSDOF 5
ENDMDL
MODEL 5
REMARK VINA RESULT:      -6.8      0.643      2.746
REMARK  Name = 
REMARK  8 active torsions:
REMARK  status: ('A' for Active; 'I' for Inactive)
REMARK    1  A    between atoms: C_1  and  O_2
REMARK    2  A    between atoms: O_2  and  C_3
REMARK    3  A    between atoms: C_5  and  C_6
REMARK    4  A    between atoms: C_6  and  C_8
REMARK    5  A    between atoms: C_18  and  O_19
REMARK    6  A    between atoms: O_19  and  C_20
REMARK    7  A    between atoms: C_21  and  O_22
REMARK    8  A    between atoms: O_22  and  C_23
REMARK                            x       y       z     vdW  Elec       q    Type
REMARK                         _______ _______ _______ _____ _____    ______ ____
ROOT
ATOM      1  C   UNL     1       2.357   4.297  18.227  0.00  0.00    +0.000 A 
ATOM      2  C   UNL     1       1.863   5.617  18.265  0.00  0.00    +0.000 A 
ATOM      3  C   UNL     1       2.701   6.705  18.549  0.00  0.00    +0.000 A 
ATOM      4  C   UNL     1       3.996   6.439  18.949  0.00  0.00    +0.000 A 
ATOM      5  C   UNL     1       4.494   5.135  19.001  0.00  0.00    +0.000 A 
ATOM      6  C   UNL     1       3.687   4.031  18.616  0.00  0.00    +0.000 A 
ENDROOT
BRANCH   1   8
ATOM      7  C   UNL     1       0.833   2.558  18.745  0.00  0.00    +0.000 C 
ATOM      8  O   UNL     1       1.539   3.303  17.729  0.00  0.00    +0.000 OA
ENDBRANCH   1   8
BRANCH   3   9
ATOM      9  C   UNL     1       2.200   8.087  18.365  0.00  0.00    +0.000 C 
ATOM     10  O   UNL     1       2.326   8.613  17.260  0.00  0.00    +0.000 OA
BRANCH   9  11
ATOM     11  C   UNL     1       1.558   8.860  19.472  0.00  0.00    +0.000 A 
ATOM     12  C   UNL     1       1.494   8.236  20.732  0.00  0.00    +0.000 A 
ATOM     13  C   UNL     1       0.929   8.865  21.850  0.00  0.00    +0.000 A 
ATOM     14  C   UNL     1       0.442  10.145  21.632  0.00  0.00    +0.000 A 
ATOM     15  O   UNL     1      -0.128  10.986  22.541  0.00  0.00    +0.000 OA
ATOM     16  C   UNL     1      -0.424  12.096  21.825  0.00  0.00    +0.000 A 
ATOM     17  N   UNL     1      -0.107  12.041  20.542  0.00  0.00    +0.000 NA
ATOM     18  C   UNL     1       0.456  10.797  20.407  0.00  0.00    +0.000 A 
ATOM     19  C   UNL     1       1.006  10.143  19.290  0.00  0.00    +0.000 A 
ENDBRANCH   9  11
ENDBRANCH   3   9
BRANCH   5  20
ATOM     20  O   UNL     1       5.820   5.132  19.366  0.00  0.00    +0.000 OA
ATOM     21  C   UNL     1       6.825   5.444  18.412  0.00  0.00    +0.000 C 
ENDBRANCH   5  20
BRANCH   6  22
ATOM     22  O   UNL     1       4.349   2.842  18.589  0.00  0.00    +0.000 OA
ATOM     23  C   UNL     1       4.389   1.936  19.667  0.00  0.00    +0.000 C 
ENDBRANCH   6  22
TORSDOF 5
ENDMDL
MODEL 6
REMARK VINA RESULT:      -6.8      3.351      5.036
REMARK  Name = 
REMARK  8 active torsions:
REMARK  status: ('A' for Active; 'I' for Inactive)
REMARK    1  A    between atoms: C_1  and  O_2
REMARK    2  A    between atoms: O_2  and  C_3
REMARK    3  A    between atoms: C_5  and  C_6
REMARK    4  A    between atoms: C_6  and  C_8
REMARK    5  A    between atoms: C_18  and  O_19
REMARK    6  A    between atoms: O_19  and  C_20
REMARK    7  A    between atoms: C_21  and  O_22
REMARK    8  A    between atoms: O_22  and  C_23
REMARK                            x       y       z     vdW  Elec       q    Type
REMARK                         _______ _______ _______ _____ _____    ______ ____
ROOT
ATOM      1  C   UNL     1       6.175   3.942  14.579  0.00  0.00    +0.000 A 
ATOM      2  C   UNL     1       5.091   3.618  15.421  0.00  0.00    +0.000 A 
ATOM      3  C   UNL     1       4.789   4.388  16.554  0.00  0.00    +0.000 A 
ATOM      4  C   UNL     1       5.676   5.383  16.918  0.00  0.00    +0.000 A 
ATOM      5  C   UNL     1       6.804   5.676  16.149  0.00  0.00    +0.000 A 
ATOM      6  C   UNL     1       7.068   4.973  14.943  0.00  0.00    +0.000 A 
ENDROOT
BRANCH   1   8
ATOM      7  C   UNL     1       5.184   3.519  12.468  0.00  0.00    +0.000 C 
ATOM      8  O   UNL     1       6.286   3.285  13.370  0.00  0.00    +0.000 OA
ENDBRANCH   1   8
BRANCH   3   9
ATOM      9  C   UNL     1       3.522   4.153  17.286  0.00  0.00    +0.000 C 
ATOM     10  O   UNL     1       2.910   3.107  17.075  0.00  0.00    +0.000 OA
BRANCH   9  11
ATOM     11  C   UNL     1       2.965   5.142  18.258  0.00  0.00    +0.000 A 
ATOM     12  C   UNL     1       2.734   4.688  19.569  0.00  0.00    +0.000 A 
ATOM     13  C   UNL     1       2.227   5.525  20.573  0.00  0.00    +0.000 A 
ATOM     14  C   UNL     1       1.973   6.833  20.187  0.00  0.00    +0.000 A 
ATOM     15  O   UNL     1       1.508   7.855  20.960  0.00  0.00    +0.000 OA
ATOM     16  C   UNL     1       1.439   8.907  20.112  0.00  0.00    +0.000 A 
ATOM     17  N   UNL     1       1.805   8.653  18.867  0.00  0.00    +0.000 NA
ATOM     18  C   UNL     1       2.158   7.328  18.904  0.00  0.00    +0.000 A 
ATOM     19  C   UNL     1       2.645   6.468  17.903  0.00  0.00    +0.000 A 
ENDBRANCH   9  11
ENDBRANCH   3   9
BRANCH   5  20
ATOM     20  O   UNL     1       7.495   6.741  16.679  0.00  0.00    +0.000 OA
ATOM     21  C   UNL     1       7.705   6.828  18.081  0.00  0.00    +0.000 C 
ENDBRANCH   5  20
BRANCH   6  22
ATOM     22  O   UNL     1       8.123   5.459  14.235  0.00  0.00    +0.000 OA
ATOM     23  C   UNL     1       8.082   5.749  12.857  0.00  0.00    +0.000 C 
ENDBRANCH   6  22
TORSDOF 5
ENDMDL
MODEL 7
REMARK VINA RESULT:      -6.7      3.421      4.699
REMARK  Name = 
REMARK  8 active torsions:
REMARK  status: ('A' for Active; 'I' for Inactive)
REMARK    1  A    between atoms: C_1  and  O_2
REMARK    2  A    between atoms: O_2  and  C_3
REMARK    3  A    between atoms: C_5  and  C_6
REMARK    4  A    between atoms: C_6  and  C_8
REMARK    5  A    between atoms: C_18  and  O_19
REMARK    6  A    between atoms: O_19  and  C_20
REMARK    7  A    between atoms: C_21  and  O_22
REMARK    8  A    between atoms: O_22  and  C_23
REMARK                            x       y       z     vdW  Elec       q    Type
REMARK                         _______ _______ _______ _____ _____    ______ ____
ROOT
ATOM      1  C   UNL     1       6.876   5.782  16.170  0.00  0.00    +0.000 A 
ATOM      2  C   UNL     1       5.714   5.488  16.913  0.00  0.00    +0.000 A 
ATOM      3  C   UNL     1       4.840   4.459  16.530  0.00  0.00    +0.000 A 
ATOM      4  C   UNL     1       5.058   3.843  15.314  0.00  0.00    +0.000 A 
ATOM      5  C   UNL     1       6.156   4.168  14.513  0.00  0.00    +0.000 A 
ATOM      6  C   UNL     1       7.106   5.135  14.937  0.00  0.00    +0.000 A 
ENDROOT
BRANCH   1   8
ATOM      7  C   UNL     1       7.223   7.722  17.486  0.00  0.00    +0.000 C 
ATOM      8  O   UNL     1       7.802   6.648  16.714  0.00  0.00    +0.000 OA
ENDBRANCH   1   8
BRANCH   3   9
ATOM      9  C   UNL     1       3.758   4.035  17.449  0.00  0.00    +0.000 C 
ATOM     10  O   UNL     1       3.392   2.861  17.418  0.00  0.00    +0.000 OA
BRANCH   9  11
ATOM     11  C   UNL     1       3.097   4.982  18.397  0.00  0.00    +0.000 A 
ATOM     12  C   UNL     1       2.713   4.467  19.650  0.00  0.00    +0.000 A 
ATOM     13  C   UNL     1       2.097   5.261  20.628  0.00  0.00    +0.000 A 
ATOM     14  C   UNL     1       1.897   6.588  20.280  0.00  0.00    +0.000 A 
ATOM     15  O   UNL     1       1.349   7.577  21.043  0.00  0.00    +0.000 OA
ATOM     16  C   UNL     1       1.384   8.669  20.245  0.00  0.00    +0.000 A 
ATOM     17  N   UNL     1       1.891   8.471  19.039  0.00  0.00    +0.000 NA
ATOM     18  C   UNL     1       2.231   7.142  19.052  0.00  0.00    +0.000 A 
ATOM     19  C   UNL     1       2.826   6.326  18.073  0.00  0.00    +0.000 A 
ENDBRANCH   9  11
ENDBRANCH   3   9
BRANCH   5  20
ATOM     20  O   UNL     1       6.190   3.379  13.387  0.00  0.00    +0.000 OA
ATOM     21  C   UNL     1       5.175   3.496  12.401  0.00  0.00    +0.000 C 
ENDBRANCH   5  20
BRANCH   6  22
ATOM     22  O   UNL     1       8.188   5.246  14.119  0.00  0.00    +0.000 OA
ATOM     23  C   UNL     1       8.136   5.760  12.808  0.00  0.00    +0.000 C 
ENDBRANCH   6  22
TORSDOF 5
ENDMDL
MODEL 8
REMARK VINA RESULT:      -6.7      1.652      2.975
REMARK  Name = 
REMARK  8 active torsions:
REMARK  status: ('A' for Active; 'I' for Inactive)
REMARK    1  A    between atoms: C_1  and  O_2
REMARK    2  A    between atoms: O_2  and  C_3
REMARK    3  A    between atoms: C_5  and  C_6
REMARK    4  A    between atoms: C_6  and  C_8
REMARK    5  A    between atoms: C_18  and  O_19
REMARK    6  A    between atoms: O_19  and  C_20
REMARK    7  A    between atoms: C_21  and  O_22
REMARK    8  A    between atoms: O_22  and  C_23
REMARK                            x       y       z     vdW  Elec       q    Type
REMARK                         _______ _______ _______ _____ _____    ______ ____
ROOT
ATOM      1  C   UNL     1       2.658   5.282  19.948  0.00  0.00    +0.000 A 
ATOM      2  C   UNL     1       2.214   6.608  19.768  0.00  0.00    +0.000 A 
ATOM      3  C   UNL     1       2.616   7.371  18.662  0.00  0.00    +0.000 A 
ATOM      4  C   UNL     1       3.587   6.848  17.832  0.00  0.00    +0.000 A 
ATOM      5  C   UNL     1       4.109   5.568  18.029  0.00  0.00    +0.000 A 
ATOM      6  C   UNL     1       3.637   4.743  19.084  0.00  0.00    +0.000 A 
ENDROOT
BRANCH   1   8
ATOM      7  C   UNL     1       0.969   3.697  20.451  0.00  0.00    +0.000 C 
ATOM      8  O   UNL     1       2.060   4.515  20.927  0.00  0.00    +0.000 OA
ENDBRANCH   1   8
BRANCH   3   9
ATOM      9  C   UNL     1       1.961   8.672  18.390  0.00  0.00    +0.000 C 
ATOM     10  O   UNL     1       2.164   9.215  17.305  0.00  0.00    +0.000 OA
BRANCH   9  11
ATOM     11  C   UNL     1       1.074   9.345  19.388  0.00  0.00    +0.000 A 
ATOM     12  C   UNL     1       0.014  10.118  18.881  0.00  0.00    +0.000 A 
ATOM     13  C   UNL     1      -0.893  10.786  19.717  0.00  0.00    +0.000 A 
ATOM     14  C   UNL     1      -0.677  10.627  21.077  0.00  0.00    +0.000 A 
ATOM     15  O   UNL     1      -1.416  11.138  22.104  0.00  0.00    +0.000 OA
ATOM     16  C   UNL     1      -0.788  10.693  23.217  0.00  0.00    +0.000 A 
ATOM     17  N   UNL     1       0.289   9.955  23.001  0.00  0.00    +0.000 NA
ATOM     18  C   UNL     1       0.365   9.899  21.632  0.00  0.00    +0.000 A 
ATOM     19  C   UNL     1       1.280   9.255  20.779  0.00  0.00    +0.000 A 
ENDBRANCH   9  11
ENDBRANCH   3   9
BRANCH   5  20
ATOM     20  O   UNL     1       5.012   5.250  17.041  0.00  0.00    +0.000 OA
ATOM     21  C   UNL     1       5.326   6.196  16.029  0.00  0.00    +0.000 C 
ENDBRANCH   5  20
BRANCH   6  22
ATOM     22  O   UNL     1       4.137   3.478  19.068  0.00  0.00    +0.000 OA
ATOM     23  C   UNL     1       3.645   2.445  18.246  0.00  0.00    +0.000 C 
ENDBRANCH   6  22
TORSDOF 5
ENDMDL
MODEL 9
REMARK VINA RESULT:      -6.7      0.904      2.844
REMARK  Name = 
REMARK  8 active torsions:
REMARK  status: ('A' for Active; 'I' for Inactive)
REMARK    1  A    between atoms: C_1  and  O_2
REMARK    2  A    between atoms: O_2  and  C_3
REMARK    3  A    between atoms: C_5  and  C_6
REMARK    4  A    between atoms: C_6  and  C_8
REMARK    5  A    between atoms: C_18  and  O_19
REMARK    6  A    between atoms: O_19  and  C_20
REMARK    7  A    between atoms: C_21  and  O_22
REMARK    8  A    between atoms: O_22  and  C_23
REMARK                            x       y       z     vdW  Elec       q    Type
REMARK                         _______ _______ _______ _____ _____    ______ ____
ROOT
ATOM      1  C   UNL     1       2.893   3.892  18.865  0.00  0.00    +0.000 A 
ATOM      2  C   UNL     1       2.458   5.202  18.579  0.00  0.00    +0.000 A 
ATOM      3  C   UNL     1       3.366   6.264  18.450  0.00  0.00    +0.000 A 
ATOM      4  C   UNL     1       4.689   6.028  18.770  0.00  0.00    +0.000 A 
ATOM      5  C   UNL     1       5.140   4.758  19.137  0.00  0.00    +0.000 A 
ATOM      6  C   UNL     1       4.250   3.651  19.171  0.00  0.00    +0.000 A 
ENDROOT
BRANCH   1   8
ATOM      7  C   UNL     1       0.876   2.956  19.684  0.00  0.00    +0.000 C 
ATOM      8  O   UNL     1       1.983   2.860  18.762  0.00  0.00    +0.000 OA
ENDBRANCH   1   8
BRANCH   3   9
ATOM      9  C   UNL     1       2.899   7.572  17.934  0.00  0.00    +0.000 C 
ATOM     10  O   UNL     1       3.347   7.971  16.860  0.00  0.00    +0.000 OA
BRANCH   9  11
ATOM     11  C   UNL     1       1.916   8.419  18.675  0.00  0.00    +0.000 A 
ATOM     12  C   UNL     1       1.758   8.160  20.049  0.00  0.00    +0.000 A 
ATOM     13  C   UNL     1       0.876   8.896  20.853  0.00  0.00    +0.000 A 
ATOM     14  C   UNL     1       0.175   9.901  20.203  0.00  0.00    +0.000 A 
ATOM     15  O   UNL     1      -0.719  10.777  20.744  0.00  0.00    +0.000 OA
ATOM     16  C   UNL     1      -1.110  11.540  19.697  0.00  0.00    +0.000 A 
ATOM     17  N   UNL     1      -0.561  11.227  18.535  0.00  0.00    +0.000 NA
ATOM     18  C   UNL     1       0.272  10.183  18.849  0.00  0.00    +0.000 A 
ATOM     19  C   UNL     1       1.143   9.419  18.051  0.00  0.00    +0.000 A 
ENDBRANCH   9  11
ENDBRANCH   3   9
BRANCH   5  20
ATOM     20  O   UNL     1       6.499   4.762  19.345  0.00  0.00    +0.000 OA
ATOM     21  C   UNL     1       7.385   5.054  18.274  0.00  0.00    +0.000 C 
ENDBRANCH   5  20
BRANCH   6  22
ATOM     22  O   UNL     1       4.857   2.457  19.413  0.00  0.00    +0.000 OA
ATOM     23  C   UNL     1       4.775   1.764  20.637  0.00  0.00    +0.000 C 
ENDBRANCH   6  22
TORSDOF 5
ENDMDL
