MODEL 1
REMARK VINA RESULT:      -6.7      0.000      0.000
REMARK  Name = 
REMARK  5 active torsions:
REMARK  status: ('A' for Active; 'I' for Inactive)
REMARK    1  A    between atoms: C_1  and  O_2
REMARK    2  A    between atoms: O_2  and  C_3
REMARK    3  A    between atoms: C_3  and  C_5
REMARK    4  A    between atoms: C_8  and  C_9
REMARK    5  A    between atoms: C_10  and  C_11
REMARK                            x       y       z     vdW  Elec       q    Type
REMARK                         _______ _______ _______ _____ _____    ______ ____
ROOT
ATOM      1  C   UNL     1       6.496   5.761  17.874  0.00  0.00    +0.000 C 
ATOM      2  C   UNL     1       5.704   6.780  17.080  0.00  0.00    +0.000 C 
ATOM      3  O   UNL     1       6.597   7.876  16.908  0.00  0.00    +0.000 OA
ATOM      4  C   UNL     1       7.599   7.643  17.784  0.00  0.00    +0.000 C 
ATOM      5  N   UNL     1       7.628   6.529  18.437  0.00  0.00    +0.000 NA
ENDROOT
BRANCH   1   6
ATOM      6  C   UNL     1       6.994   4.618  16.991  0.00  0.00    +0.000 C 
ATOM      7  O   UNL     1       8.153   4.215  16.979  0.00  0.00    +0.000 OA
BRANCH   6   9
ATOM      8  C   UNL     1       6.409   4.037  14.791  0.00  0.00    +0.000 C 
ATOM      9  O   UNL     1       6.016   4.160  16.158  0.00  0.00    +0.000 OA
ENDBRANCH   6   9
ENDBRANCH   1   6
BRANCH   4  10
ATOM     10  C   UNL     1       8.596   8.706  17.915  0.00  0.00    +0.000 C 
ATOM     11  C   UNL     1       8.667   9.563  18.945  0.00  0.00    +0.000 C 
BRANCH  11  12
ATOM     12  C   UNL     1       9.656  10.652  19.010  0.00  0.00    +0.000 A 
ATOM     13  C   UNL     1      10.043  11.291  17.823  0.00  0.00    +0.000 A 
ATOM     14  C   UNL     1      10.999  12.313  17.843  0.00  0.00    +0.000 A 
ATOM     15  C   UNL     1      11.569  12.714  19.048  0.00  0.00    +0.000 A 
ATOM     16  C   UNL     1      11.172  12.108  20.237  0.00  0.00    +0.000 A 
ATOM     17  C   UNL     1      10.214  11.093  20.217  0.00  0.00    +0.000 A 
ENDBRANCH  11  12
ENDBRANCH   4  10
TORSDOF 4
ENDMDL
MODEL 2
REMARK VINA RESULT:      -6.7      1.548      2.166
REMARK  Name = 
REMARK  5 active torsions:
REMARK  status: ('A' for Active; 'I' for Inactive)
REMARK    1  A    between atoms: C_1  and  O_2
REMARK    2  A    between atoms: O_2  and  C_3
REMARK    3  A    between atoms: C_3  and  C_5
REMARK    4  A    between atoms: C_8  and  C_9
REMARK    5  A    between atoms: C_10  and  C_11
REMARK                            x       y       z     vdW  Elec       q    Type
REMARK                         _______ _______ _______ _____ _____    ______ ____
ROOT
ATOM      1  C   UNL     1       6.910   4.775  16.613  0.00  0.00    +0.000 C 
ATOM      2  C   UNL     1       6.809   4.749  18.125  0.00  0.00    +0.000 C 
ATOM      3  O   UNL     1       6.953   6.110  18.518  0.00  0.00    +0.000 OA
ATOM      4  C   UNL     1       7.424   6.738  17.419  0.00  0.00    +0.000 C 
ATOM      5  N   UNL     1       7.511   6.091  16.305  0.00  0.00    +0.000 NA
ENDROOT
BRANCH   1   6
ATOM      6  C   UNL     1       5.541   4.629  15.951  0.00  0.00    +0.000 C 
ATOM      7  O   UNL     1       4.536   4.238  16.534  0.00  0.00    +0.000 OA
BRANCH   6   9
ATOM      8  C   UNL     1       6.158   3.864  13.817  0.00  0.00    +0.000 C 
ATOM      9  O   UNL     1       5.594   4.904  14.617  0.00  0.00    +0.000 OA
ENDBRANCH   6   9
ENDBRANCH   1   6
BRANCH   4  10
ATOM     10  C   UNL     1       7.798   8.142  17.593  0.00  0.00    +0.000 C 
ATOM     11  C   UNL     1       8.609   8.601  18.559  0.00  0.00    +0.000 C 
BRANCH  11  12
ATOM     12  C   UNL     1       8.918  10.031  18.729  0.00  0.00    +0.000 A 
ATOM     13  C   UNL     1       9.574  10.450  19.896  0.00  0.00    +0.000 A 
ATOM     14  C   UNL     1       9.860  11.804  20.105  0.00  0.00    +0.000 A 
ATOM     15  C   UNL     1       9.505  12.749  19.147  0.00  0.00    +0.000 A 
ATOM     16  C   UNL     1       8.880  12.344  17.971  0.00  0.00    +0.000 A 
ATOM     17  C   UNL     1       8.599  10.992  17.761  0.00  0.00    +0.000 A 
ENDBRANCH  11  12
ENDBRANCH   4  10
TORSDOF 4
ENDMDL
MODEL 3
REMARK VINA RESULT:      -6.7      1.633      2.153
REMARK  Name = 
REMARK  5 active torsions:
REMARK  status: ('A' for Active; 'I' for Inactive)
REMARK    1  A    between atoms: C_1  and  O_2
REMARK    2  A    between atoms: O_2  and  C_3
REMARK    3  A    between atoms: C_3  and  C_5
REMARK    4  A    between atoms: C_8  and  C_9
REMARK    5  A    between atoms: C_10  and  C_11
REMARK                            x       y       z     vdW  Elec       q    Type
REMARK                         _______ _______ _______ _____ _____    ______ ____
ROOT
ATOM      1  C   UNL     1       5.682   6.315  16.499  0.00  0.00    +0.000 C 
ATOM      2  C   UNL     1       6.827   5.330  16.620  0.00  0.00    +0.000 C 
ATOM      3  O   UNL     1       7.780   5.987  17.449  0.00  0.00    +0.000 OA
ATOM      4  C   UNL     1       7.379   7.277  17.478  0.00  0.00    +0.000 C 
ATOM      5  N   UNL     1       6.258   7.607  16.929  0.00  0.00    +0.000 NA
ENDROOT
BRANCH   1   6
ATOM      6  C   UNL     1       4.499   5.920  17.381  0.00  0.00    +0.000 C 
ATOM      7  O   UNL     1       3.647   6.708  17.778  0.00  0.00    +0.000 OA
BRANCH   6   9
ATOM      8  C   UNL     1       3.439   3.825  17.316  0.00  0.00    +0.000 C 
ATOM      9  O   UNL     1       4.554   4.607  17.743  0.00  0.00    +0.000 OA
ENDBRANCH   6   9
ENDBRANCH   1   6
BRANCH   4  10
ATOM     10  C   UNL     1       8.277   8.212  18.156  0.00  0.00    +0.000 C 
ATOM     11  C   UNL     1       8.301   9.537  17.942  0.00  0.00    +0.000 C 
BRANCH  11  12
ATOM     12  C   UNL     1       9.259  10.436  18.608  0.00  0.00    +0.000 A 
ATOM     13  C   UNL     1      10.206  11.118  17.830  0.00  0.00    +0.000 A 
ATOM     14  C   UNL     1      11.148  11.960  18.430  0.00  0.00    +0.000 A 
ATOM     15  C   UNL     1      11.146  12.139  19.811  0.00  0.00    +0.000 A 
ATOM     16  C   UNL     1      10.194  11.491  20.592  0.00  0.00    +0.000 A 
ATOM     17  C   UNL     1       9.250  10.655  19.992  0.00  0.00    +0.000 A 
ENDBRANCH  11  12
ENDBRANCH   4  10
TORSDOF 4
ENDMDL
MODEL 4
REMARK VINA RESULT:      -6.6      1.629      2.463
REMARK  Name = 
REMARK  5 active torsions:
REMARK  status: ('A' for Active; 'I' for Inactive)
REMARK    1  A    between atoms: C_1  and  O_2
REMARK    2  A    between atoms: O_2  and  C_3
REMARK    3  A    between atoms: C_3  and  C_5
REMARK    4  A    between atoms: C_8  and  C_9
REMARK    5  A    between atoms: C_10  and  C_11
REMARK                            x       y       z     vdW  Elec       q    Type
REMARK                         _______ _______ _______ _____ _____    ______ ____
ROOT
ATOM      1  C   UNL     1       5.777   6.040  16.416  0.00  0.00    +0.000 C 
ATOM      2  C   UNL     1       6.901   5.069  16.715  0.00  0.00    +0.000 C 
ATOM      3  O   UNL     1       7.776   5.786  17.581  0.00  0.00    +0.000 OA
ATOM      4  C   UNL     1       7.380   7.074  17.479  0.00  0.00    +0.000 C 
ATOM      5  N   UNL     1       6.316   7.361  16.805  0.00  0.00    +0.000 NA
ENDROOT
BRANCH   1   6
ATOM      6  C   UNL     1       4.515   5.707  17.209  0.00  0.00    +0.000 C 
ATOM      7  O   UNL     1       4.015   6.452  18.045  0.00  0.00    +0.000 OA
BRANCH   6   9
ATOM      8  C   UNL     1       3.247   3.877  17.958  0.00  0.00    +0.000 C 
ATOM      9  O   UNL     1       4.063   4.450  16.937  0.00  0.00    +0.000 OA
ENDBRANCH   6   9
ENDBRANCH   1   6
BRANCH   4  10
ATOM     10  C   UNL     1       8.214   8.058  18.170  0.00  0.00    +0.000 C 
ATOM     11  C   UNL     1       8.267   9.363  17.862  0.00  0.00    +0.000 C 
BRANCH  11  12
ATOM     12  C   UNL     1       9.161  10.310  18.549  0.00  0.00    +0.000 A 
ATOM     13  C   UNL     1       9.118  10.392  19.948  0.00  0.00    +0.000 A 
ATOM     14  C   UNL     1       9.935  11.298  20.634  0.00  0.00    +0.000 A 
ATOM     15  C   UNL     1      10.809  12.122  19.931  0.00  0.00    +0.000 A 
ATOM     16  C   UNL     1      10.883  12.030  18.543  0.00  0.00    +0.000 A 
ATOM     17  C   UNL     1      10.072  11.122  17.860  0.00  0.00    +0.000 A 
ENDBRANCH  11  12
ENDBRANCH   4  10
TORSDOF 4
ENDMDL
MODEL 5
REMARK VINA RESULT:      -6.5      1.370      2.088
REMARK  Name = 
REMARK  5 active torsions:
REMARK  status: ('A' for Active; 'I' for Inactive)
REMARK    1  A    between atoms: C_1  and  O_2
REMARK    2  A    between atoms: O_2  and  C_3
REMARK    3  A    between atoms: C_3  and  C_5
REMARK    4  A    between atoms: C_8  and  C_9
REMARK    5  A    between atoms: C_10  and  C_11
REMARK                            x       y       z     vdW  Elec       q    Type
REMARK                         _______ _______ _______ _____ _____    ______ ____
ROOT
ATOM      1  C   UNL     1       6.912   5.812  16.645  0.00  0.00    +0.000 C 
ATOM      2  C   UNL     1       7.064   5.173  18.010  0.00  0.00    +0.000 C 
ATOM      3  O   UNL     1       7.511   6.229  18.854  0.00  0.00    +0.000 OA
ATOM      4  C   UNL     1       7.894   7.208  18.006  0.00  0.00    +0.000 C 
ATOM      5  N   UNL     1       7.677   7.075  16.740  0.00  0.00    +0.000 NA
ENDROOT
BRANCH   1   6
ATOM      6  C   UNL     1       5.447   6.082  16.306  0.00  0.00    +0.000 C 
ATOM      7  O   UNL     1       4.633   6.542  17.100  0.00  0.00    +0.000 OA
BRANCH   6   9
ATOM      8  C   UNL     1       6.023   4.690  14.503  0.00  0.00    +0.000 C 
ATOM      9  O   UNL     1       5.137   5.670  15.044  0.00  0.00    +0.000 OA
ENDBRANCH   6   9
ENDBRANCH   1   6
BRANCH   4  10
ATOM     10  C   UNL     1       8.536   8.372  18.618  0.00  0.00    +0.000 C 
ATOM     11  C   UNL     1       8.548   9.604  18.086  0.00  0.00    +0.000 C 
BRANCH  11  12
ATOM     12  C   UNL     1       9.252  10.737  18.710  0.00  0.00    +0.000 A 
ATOM     13  C   UNL     1       9.426  10.746  20.102  0.00  0.00    +0.000 A 
ATOM     14  C   UNL     1      10.067  11.817  20.733  0.00  0.00    +0.000 A 
ATOM     15  C   UNL     1      10.550  12.884  19.981  0.00  0.00    +0.000 A 
ATOM     16  C   UNL     1      10.411  12.874  18.596  0.00  0.00    +0.000 A 
ATOM     17  C   UNL     1       9.776  11.802  17.966  0.00  0.00    +0.000 A 
ENDBRANCH  11  12
ENDBRANCH   4  10
TORSDOF 4
ENDMDL
MODEL 6
REMARK VINA RESULT:      -6.4      1.593      2.131
REMARK  Name = 
REMARK  5 active torsions:
REMARK  status: ('A' for Active; 'I' for Inactive)
REMARK    1  A    between atoms: C_1  and  O_2
REMARK    2  A    between atoms: O_2  and  C_3
REMARK    3  A    between atoms: C_3  and  C_5
REMARK    4  A    between atoms: C_8  and  C_9
REMARK    5  A    between atoms: C_10  and  C_11
REMARK                            x       y       z     vdW  Elec       q    Type
REMARK                         _______ _______ _______ _____ _____    ______ ____
ROOT
ATOM      1  C   UNL     1       5.697   5.818  17.234  0.00  0.00    +0.000 C 
ATOM      2  C   UNL     1       6.900   5.554  16.351  0.00  0.00    +0.000 C 
ATOM      3  O   UNL     1       7.809   6.607  16.656  0.00  0.00    +0.000 OA
ATOM      4  C   UNL     1       7.070   7.513  17.333  0.00  0.00    +0.000 C 
ATOM      5  N   UNL     1       5.855   7.225  17.662  0.00  0.00    +0.000 NA
ENDROOT
BRANCH   1   6
ATOM      6  C   UNL     1       5.661   4.878  18.438  0.00  0.00    +0.000 C 
ATOM      7  O   UNL     1       6.639   4.606  19.125  0.00  0.00    +0.000 OA
BRANCH   6   9
ATOM      8  C   UNL     1       3.536   4.508  17.505  0.00  0.00    +0.000 C 
ATOM      9  O   UNL     1       4.429   4.316  18.602  0.00  0.00    +0.000 OA
ENDBRANCH   6   9
ENDBRANCH   1   6
BRANCH   4  10
ATOM     10  C   UNL     1       7.736   8.777  17.648  0.00  0.00    +0.000 C 
ATOM     11  C   UNL     1       8.654   8.936  18.614  0.00  0.00    +0.000 C 
BRANCH  11  12
ATOM     12  C   UNL     1       9.260  10.239  18.933  0.00  0.00    +0.000 A 
ATOM     13  C   UNL     1       9.448  10.592  20.277  0.00  0.00    +0.000 A 
ATOM     14  C   UNL     1       9.997  11.832  20.619  0.00  0.00    +0.000 A 
ATOM     15  C   UNL     1      10.375  12.728  19.622  0.00  0.00    +0.000 A 
ATOM     16  C   UNL     1      10.222  12.379  18.283  0.00  0.00    +0.000 A 
ATOM     17  C   UNL     1       9.678  11.138  17.943  0.00  0.00    +0.000 A 
ENDBRANCH  11  12
ENDBRANCH   4  10
TORSDOF 4
ENDMDL
MODEL 7
REMARK VINA RESULT:      -6.4      6.162      7.777
REMARK  Name = 
REMARK  5 active torsions:
REMARK  status: ('A' for Active; 'I' for Inactive)
REMARK    1  A    between atoms: C_1  and  O_2
REMARK    2  A    between atoms: O_2  and  C_3
REMARK    3  A    between atoms: C_3  and  C_5
REMARK    4  A    between atoms: C_8  and  C_9
REMARK    5  A    between atoms: C_10  and  C_11
REMARK                            x       y       z     vdW  Elec       q    Type
REMARK                         _______ _______ _______ _____ _____    ______ ____
ROOT
ATOM      1  C   UNL     1       3.333   4.286  19.761  0.00  0.00    +0.000 C 
ATOM      2  C   UNL     1       3.573   5.732  19.376  0.00  0.00    +0.000 C 
ATOM      3  O   UNL     1       4.055   5.674  18.038  0.00  0.00    +0.000 OA
ATOM      4  C   UNL     1       4.376   4.376  17.844  0.00  0.00    +0.000 C 
ATOM      5  N   UNL     1       4.087   3.506  18.754  0.00  0.00    +0.000 NA
ENDROOT
BRANCH   1   6
ATOM      6  C   UNL     1       1.848   3.930  19.731  0.00  0.00    +0.000 C 
ATOM      7  O   UNL     1       1.191   3.817  18.702  0.00  0.00    +0.000 OA
BRANCH   6   9
ATOM      8  C   UNL     1       1.570   2.596  21.644  0.00  0.00    +0.000 C 
ATOM      9  O   UNL     1       1.325   3.839  20.987  0.00  0.00    +0.000 OA
ENDBRANCH   6   9
ENDBRANCH   1   6
BRANCH   4  10
ATOM     10  C   UNL     1       5.037   4.060  16.578  0.00  0.00    +0.000 C 
ATOM     11  C   UNL     1       5.334   4.960  15.627  0.00  0.00    +0.000 C 
BRANCH  11  12
ATOM     12  C   UNL     1       5.953   4.591  14.343  0.00  0.00    +0.000 A 
ATOM     13  C   UNL     1       7.184   5.163  13.992  0.00  0.00    +0.000 A 
ATOM     14  C   UNL     1       7.790   4.856  12.769  0.00  0.00    +0.000 A 
ATOM     15  C   UNL     1       7.179   3.966  11.890  0.00  0.00    +0.000 A 
ATOM     16  C   UNL     1       5.971   3.368  12.238  0.00  0.00    +0.000 A 
ATOM     17  C   UNL     1       5.369   3.671  13.462  0.00  0.00    +0.000 A 
ENDBRANCH  11  12
ENDBRANCH   4  10
TORSDOF 4
ENDMDL
MODEL 8
REMARK VINA RESULT:      -6.4      1.642      2.238
REMARK  Name = 
REMARK  5 active torsions:
REMARK  status: ('A' for Active; 'I' for Inactive)
REMARK    1  A    between atoms: C_1  and  O_2
REMARK    2  A    between atoms: O_2  and  C_3
REMARK    3  A    between atoms: C_3  and  C_5
REMARK    4  A    between atoms: C_8  and  C_9
REMARK    5  A    between atoms: C_10  and  C_11
REMARK                            x       y       z     vdW  Elec       q    Type
REMARK                         _______ _______ _______ _____ _____    ______ ____
ROOT
ATOM      1  C   UNL     1       6.872   5.194  16.889  0.00  0.00    +0.000 C 
ATOM      2  C   UNL     1       7.384   5.082  18.311  0.00  0.00    +0.000 C 
ATOM      3  O   UNL     1       7.688   6.420  18.691  0.00  0.00    +0.000 OA
ATOM      4  C   UNL     1       7.687   7.115  17.533  0.00  0.00    +0.000 C 
ATOM      5  N   UNL     1       7.315   6.533  16.442  0.00  0.00    +0.000 NA
ENDROOT
BRANCH   1   6
ATOM      6  C   UNL     1       5.351   5.070  16.823  0.00  0.00    +0.000 C 
ATOM      7  O   UNL     1       4.576   5.986  17.075  0.00  0.00    +0.000 OA
BRANCH   6   9
ATOM      8  C   UNL     1       3.984   3.255  17.423  0.00  0.00    +0.000 C 
ATOM      9  O   UNL     1       4.961   3.796  16.533  0.00  0.00    +0.000 OA
ENDBRANCH   6   9
ENDBRANCH   1   6
BRANCH   4  10
ATOM     10  C   UNL     1       8.116   8.511  17.622  0.00  0.00    +0.000 C 
ATOM     11  C   UNL     1       8.698   9.063  18.698  0.00  0.00    +0.000 C 
BRANCH  11  12
ATOM     12  C   UNL     1       9.066  10.487  18.765  0.00  0.00    +0.000 A 
ATOM     13  C   UNL     1       9.975  10.910  19.745  0.00  0.00    +0.000 A 
ATOM     14  C   UNL     1      10.328  12.259  19.855  0.00  0.00    +0.000 A 
ATOM     15  C   UNL     1       9.787  13.197  18.981  0.00  0.00    +0.000 A 
ATOM     16  C   UNL     1       8.905  12.788  17.984  0.00  0.00    +0.000 A 
ATOM     17  C   UNL     1       8.558  11.440  17.871  0.00  0.00    +0.000 A 
ENDBRANCH  11  12
ENDBRANCH   4  10
TORSDOF 4
ENDMDL
MODEL 9
REMARK VINA RESULT:      -6.4      6.194      7.711
REMARK  Name = 
REMARK  5 active torsions:
REMARK  status: ('A' for Active; 'I' for Inactive)
REMARK    1  A    between atoms: C_1  and  O_2
REMARK    2  A    between atoms: O_2  and  C_3
REMARK    3  A    between atoms: C_3  and  C_5
REMARK    4  A    between atoms: C_8  and  C_9
REMARK    5  A    between atoms: C_10  and  C_11
REMARK                            x       y       z     vdW  Elec       q    Type
REMARK                         _______ _______ _______ _____ _____    ______ ____
ROOT
ATOM      1  C   UNL     1       3.175   3.809  19.456  0.00  0.00    +0.000 C 
ATOM      2  C   UNL     1       3.578   5.242  19.738  0.00  0.00    +0.000 C 
ATOM      3  O   UNL     1       4.228   5.674  18.547  0.00  0.00    +0.000 OA
ATOM      4  C   UNL     1       4.468   4.539  17.855  0.00  0.00    +0.000 C 
ATOM      5  N   UNL     1       3.992   3.418  18.286  0.00  0.00    +0.000 NA
ENDROOT
BRANCH   1   6
ATOM      6  C   UNL     1       1.684   3.689  19.149  0.00  0.00    +0.000 C 
ATOM      7  O   UNL     1       1.220   3.636  18.015  0.00  0.00    +0.000 OA
BRANCH   6   9
ATOM      8  C   UNL     1       1.285   2.772  21.275  0.00  0.00    +0.000 C 
ATOM      9  O   UNL     1       0.929   3.735  20.283  0.00  0.00    +0.000 OA
ENDBRANCH   6   9
ENDBRANCH   1   6
BRANCH   4  10
ATOM     10  C   UNL     1       5.265   4.686  16.637  0.00  0.00    +0.000 C 
ATOM     11  C   UNL     1       4.999   4.074  15.473  0.00  0.00    +0.000 C 
BRANCH  11  12
ATOM     12  C   UNL     1       5.860   4.209  14.285  0.00  0.00    +0.000 A 
ATOM     13  C   UNL     1       5.549   3.472  13.133  0.00  0.00    +0.000 A 
ATOM     14  C   UNL     1       6.358   3.555  11.994  0.00  0.00    +0.000 A 
ATOM     15  C   UNL     1       7.477   4.382  11.991  0.00  0.00    +0.000 A 
ATOM     16  C   UNL     1       7.781   5.141  13.117  0.00  0.00    +0.000 A 
ATOM     17  C   UNL     1       6.970   5.062  14.252  0.00  0.00    +0.000 A 
ENDBRANCH  11  12
ENDBRANCH   4  10
TORSDOF 4
ENDMDL
