MODEL 1
REMARK VINA RESULT:      -7.6      0.000      0.000
REMARK  Name = 
REMARK  8 active torsions:
REMARK  status: ('A' for Active; 'I' for Inactive)
REMARK    1  A    between atoms: C_1  and  O_2
REMARK    2  A    between atoms: O_2  and  C_3
REMARK    3  A    between atoms: C_7  and  C_8
REMARK    4  A    between atoms: C_8  and  C_9
REMARK    5  A    between atoms: C_9  and  N_10
REMARK    6  A    between atoms: N_10  and  C_11
REMARK    7  A    between atoms: C_12  and  C_14
REMARK    8  A    between atoms: C_17  and  C_18
REMARK                            x       y       z     vdW  Elec       q    Type
REMARK                         _______ _______ _______ _____ _____    ______ ____
ROOT
ATOM      1  N   UNL     1       4.441   5.702  17.112  0.00  0.00    +0.000 N 
ATOM      2  C   UNL     1       4.852   6.947  16.475  0.00  0.00    +0.000 C 
ATOM      3  C   UNL     1       3.337   5.612  17.994  0.00  0.00    +0.000 C 
ATOM      4  O   UNL     1       2.988   4.520  18.441  0.00  0.00    +0.000 OA
ENDROOT
BRANCH   3   5
ATOM      5  C   UNL     1       2.636   6.842  18.373  0.00  0.00    +0.000 A 
ATOM      6  C   UNL     1       2.327   7.976  17.647  0.00  0.00    +0.000 A 
ATOM      7  C   UNL     1       1.719   8.987  18.443  0.00  0.00    +0.000 A 
ATOM      8  C   UNL     1       1.435   8.562  19.726  0.00  0.00    +0.000 A 
ATOM      9  S   UNL     1       1.991   6.956  19.962  0.00  0.00    +0.000 S 
BRANCH   8  10
ATOM     10  C   UNL     1       0.719   9.293  20.785  0.00  0.00    +0.000 A 
ATOM     11  C   UNL     1       0.810   8.847  22.115  0.00  0.00    +0.000 A 
ATOM     12  C   UNL     1       0.139   9.509  23.145  0.00  0.00    +0.000 A 
ATOM     13  C   UNL     1      -0.630  10.630  22.862  0.00  0.00    +0.000 A 
ATOM     14  C   UNL     1      -0.735  11.090  21.551  0.00  0.00    +0.000 A 
ATOM     15  C   UNL     1      -0.068  10.424  20.519  0.00  0.00    +0.000 A 
ENDBRANCH   8  10
ENDBRANCH   3   5
BRANCH   1  16
ATOM     16  C   UNL     1       4.986   4.434  16.595  0.00  0.00    +0.000 C 
BRANCH  16  17
ATOM     17  C   UNL     1       6.455   4.504  16.154  0.00  0.00    +0.000 C 
BRANCH  17  22
ATOM     18  C   UNL     1       6.013   3.449  12.522  0.00  0.00    +0.000 A 
ATOM     19  C   UNL     1       6.980   4.237  11.897  0.00  0.00    +0.000 A 
ATOM     20  C   UNL     1       7.775   5.113  12.639  0.00  0.00    +0.000 A 
ATOM     21  C   UNL     1       7.611   5.203  14.019  0.00  0.00    +0.000 A 
ATOM     22  C   UNL     1       6.654   4.412  14.663  0.00  0.00    +0.000 A 
ATOM     23  C   UNL     1       5.849   3.545  13.904  0.00  0.00    +0.000 A 
BRANCH  18  25
ATOM     24  C   UNL     1       5.938   1.419  11.283  0.00  0.00    +0.000 C 
ATOM     25  O   UNL     1       5.307   2.629  11.685  0.00  0.00    +0.000 OA
ENDBRANCH  18  25
ENDBRANCH  17  22
ENDBRANCH  16  17
ENDBRANCH   1  16
TORSDOF 6
ENDMDL
MODEL 2
REMARK VINA RESULT:      -7.6      0.564      1.115
REMARK  Name = 
REMARK  8 active torsions:
REMARK  status: ('A' for Active; 'I' for Inactive)
REMARK    1  A    between atoms: C_1  and  O_2
REMARK    2  A    between atoms: O_2  and  C_3
REMARK    3  A    between atoms: C_7  and  C_8
REMARK    4  A    between atoms: C_8  and  C_9
REMARK    5  A    between atoms: C_9  and  N_10
REMARK    6  A    between atoms: N_10  and  C_11
REMARK    7  A    between atoms: C_12  and  C_14
REMARK    8  A    between atoms: C_17  and  C_18
REMARK                            x       y       z     vdW  Elec       q    Type
REMARK                         _______ _______ _______ _____ _____    ______ ____
ROOT
ATOM      1  N   UNL     1       5.052   5.672  17.583  0.00  0.00    +0.000 N 
ATOM      2  C   UNL     1       5.822   6.894  17.775  0.00  0.00    +0.000 C 
ATOM      3  C   UNL     1       3.640   5.623  17.679  0.00  0.00    +0.000 C 
ATOM      4  O   UNL     1       3.037   4.580  17.430  0.00  0.00    +0.000 OA
ENDROOT
BRANCH   3   5
ATOM      5  C   UNL     1       2.920   6.829  18.098  0.00  0.00    +0.000 A 
ATOM      6  C   UNL     1       2.598   7.983  17.410  0.00  0.00    +0.000 A 
ATOM      7  C   UNL     1       1.973   8.958  18.238  0.00  0.00    +0.000 A 
ATOM      8  C   UNL     1       1.690   8.485  19.504  0.00  0.00    +0.000 A 
ATOM      9  S   UNL     1       2.268   6.879  19.687  0.00  0.00    +0.000 S 
BRANCH   8  10
ATOM     10  C   UNL     1       0.960   9.169  20.585  0.00  0.00    +0.000 A 
ATOM     11  C   UNL     1       0.093  10.229  20.269  0.00  0.00    +0.000 A 
ATOM     12  C   UNL     1      -0.610  10.908  21.266  0.00  0.00    +0.000 A 
ATOM     13  C   UNL     1      -0.460  10.534  22.596  0.00  0.00    +0.000 A 
ATOM     14  C   UNL     1       0.394   9.487  22.932  0.00  0.00    +0.000 A 
ATOM     15  C   UNL     1       1.101   8.811  21.933  0.00  0.00    +0.000 A 
ENDBRANCH   8  10
ENDBRANCH   3   5
BRANCH   1  16
ATOM     16  C   UNL     1       5.718   4.511  16.965  0.00  0.00    +0.000 C 
BRANCH  16  17
ATOM     17  C   UNL     1       7.050   4.834  16.273  0.00  0.00    +0.000 C 
BRANCH  17  22
ATOM     18  C   UNL     1       6.086   3.551  12.819  0.00  0.00    +0.000 A 
ATOM     19  C   UNL     1       6.941   4.300  12.009  0.00  0.00    +0.000 A 
ATOM     20  C   UNL     1       7.827   5.223  12.570  0.00  0.00    +0.000 A 
ATOM     21  C   UNL     1       7.868   5.399  13.950  0.00  0.00    +0.000 A 
ATOM     22  C   UNL     1       7.026   4.649  14.778  0.00  0.00    +0.000 A 
ATOM     23  C   UNL     1       6.128   3.734  14.202  0.00  0.00    +0.000 A 
BRANCH  18  25
ATOM     24  C   UNL     1       5.907   1.724  11.306  0.00  0.00    +0.000 C 
ATOM     25  O   UNL     1       5.273   2.678  12.149  0.00  0.00    +0.000 OA
ENDBRANCH  18  25
ENDBRANCH  17  22
ENDBRANCH  16  17
ENDBRANCH   1  16
TORSDOF 6
ENDMDL
MODEL 3
REMARK VINA RESULT:      -7.6      5.468      7.954
REMARK  Name = 
REMARK  8 active torsions:
REMARK  status: ('A' for Active; 'I' for Inactive)
REMARK    1  A    between atoms: C_1  and  O_2
REMARK    2  A    between atoms: O_2  and  C_3
REMARK    3  A    between atoms: C_7  and  C_8
REMARK    4  A    between atoms: C_8  and  C_9
REMARK    5  A    between atoms: C_9  and  N_10
REMARK    6  A    between atoms: N_10  and  C_11
REMARK    7  A    between atoms: C_12  and  C_14
REMARK    8  A    between atoms: C_17  and  C_18
REMARK                            x       y       z     vdW  Elec       q    Type
REMARK                         _______ _______ _______ _____ _____    ______ ____
ROOT
ATOM      1  N   UNL     1       7.606   7.236  17.927  0.00  0.00    +0.000 N 
ATOM      2  C   UNL     1       7.972   6.301  18.983  0.00  0.00    +0.000 C 
ATOM      3  C   UNL     1       6.439   7.093  17.137  0.00  0.00    +0.000 C 
ATOM      4  O   UNL     1       6.139   7.955  16.312  0.00  0.00    +0.000 OA
ENDROOT
BRANCH   3   5
ATOM      5  C   UNL     1       5.614   5.894  17.310  0.00  0.00    +0.000 A 
ATOM      6  C   UNL     1       5.730   4.623  16.779  0.00  0.00    +0.000 A 
ATOM      7  C   UNL     1       4.639   3.780  17.134  0.00  0.00    +0.000 A 
ATOM      8  C   UNL     1       3.784   4.364  18.048  0.00  0.00    +0.000 A 
ATOM      9  S   UNL     1       4.285   5.969  18.396  0.00  0.00    +0.000 S 
BRANCH   8  10
ATOM     10  C   UNL     1       2.620   3.758  18.715  0.00  0.00    +0.000 A 
ATOM     11  C   UNL     1       2.007   2.630  18.143  0.00  0.00    +0.000 A 
ATOM     12  C   UNL     1       0.896   2.032  18.741  0.00  0.00    +0.000 A 
ATOM     13  C   UNL     1       0.383   2.550  19.923  0.00  0.00    +0.000 A 
ATOM     14  C   UNL     1       0.974   3.668  20.507  0.00  0.00    +0.000 A 
ATOM     15  C   UNL     1       2.083   4.270  19.905  0.00  0.00    +0.000 A 
ENDBRANCH   8  10
ENDBRANCH   3   5
BRANCH   1  16
ATOM     16  C   UNL     1       8.291   8.540  17.872  0.00  0.00    +0.000 C 
BRANCH  16  17
ATOM     17  C   UNL     1       9.014   8.935  19.168  0.00  0.00    +0.000 C 
BRANCH  17  22
ATOM     18  C   UNL     1       9.907  12.502  18.177  0.00  0.00    +0.000 A 
ATOM     19  C   UNL     1       9.904  13.133  19.422  0.00  0.00    +0.000 A 
ATOM     20  C   UNL     1       9.610  12.415  20.584  0.00  0.00    +0.000 A 
ATOM     21  C   UNL     1       9.322  11.055  20.508  0.00  0.00    +0.000 A 
ATOM     22  C   UNL     1       9.333  10.404  19.270  0.00  0.00    +0.000 A 
ATOM     23  C   UNL     1       9.615  11.140  18.106  0.00  0.00    +0.000 A 
BRANCH  18  25
ATOM     24  C   UNL     1      11.557  13.271  16.645  0.00  0.00    +0.000 C 
ATOM     25  O   UNL     1      10.217  13.313  17.121  0.00  0.00    +0.000 OA
ENDBRANCH  18  25
ENDBRANCH  17  22
ENDBRANCH  16  17
ENDBRANCH   1  16
TORSDOF 6
ENDMDL
MODEL 4
REMARK VINA RESULT:      -7.5      1.290      1.825
REMARK  Name = 
REMARK  8 active torsions:
REMARK  status: ('A' for Active; 'I' for Inactive)
REMARK    1  A    between atoms: C_1  and  O_2
REMARK    2  A    between atoms: O_2  and  C_3
REMARK    3  A    between atoms: C_7  and  C_8
REMARK    4  A    between atoms: C_8  and  C_9
REMARK    5  A    between atoms: C_9  and  N_10
REMARK    6  A    between atoms: N_10  and  C_11
REMARK    7  A    between atoms: C_12  and  C_14
REMARK    8  A    between atoms: C_17  and  C_18
REMARK                            x       y       z     vdW  Elec       q    Type
REMARK                         _______ _______ _______ _____ _____    ______ ____
ROOT
ATOM      1  N   UNL     1       4.828   4.870  17.996  0.00  0.00    +0.000 N 
ATOM      2  C   UNL     1       5.640   5.546  19.000  0.00  0.00    +0.000 C 
ATOM      3  C   UNL     1       3.414   4.928  17.977  0.00  0.00    +0.000 C 
ATOM      4  O   UNL     1       2.784   4.402  17.059  0.00  0.00    +0.000 OA
ENDROOT
BRANCH   3   5
ATOM      5  C   UNL     1       2.722   5.605  19.076  0.00  0.00    +0.000 A 
ATOM      6  C   UNL     1       2.342   5.158  20.328  0.00  0.00    +0.000 A 
ATOM      7  C   UNL     1       1.591   6.128  21.051  0.00  0.00    +0.000 A 
ATOM      8  C   UNL     1       1.535   7.350  20.410  0.00  0.00    +0.000 A 
ATOM      9  S   UNL     1       2.333   7.269  18.893  0.00  0.00    +0.000 S 
BRANCH   8  10
ATOM     10  C   UNL     1       0.942   8.605  20.904  0.00  0.00    +0.000 A 
ATOM     11  C   UNL     1       0.846   9.709  20.039  0.00  0.00    +0.000 A 
ATOM     12  C   UNL     1       0.298  10.918  20.472  0.00  0.00    +0.000 A 
ATOM     13  C   UNL     1      -0.167  11.040  21.776  0.00  0.00    +0.000 A 
ATOM     14  C   UNL     1      -0.081   9.959  22.649  0.00  0.00    +0.000 A 
ATOM     15  C   UNL     1       0.473   8.750  22.217  0.00  0.00    +0.000 A 
ENDBRANCH   8  10
ENDBRANCH   3   5
BRANCH   1  16
ATOM     16  C   UNL     1       5.491   4.366  16.779  0.00  0.00    +0.000 C 
BRANCH  16  17
ATOM     17  C   UNL     1       5.868   5.452  15.761  0.00  0.00    +0.000 C 
BRANCH  17  22
ATOM     18  C   UNL     1       5.819   3.491  12.498  0.00  0.00    +0.000 A 
ATOM     19  C   UNL     1       7.010   3.921  11.911  0.00  0.00    +0.000 A 
ATOM     20  C   UNL     1       7.830   4.846  12.560  0.00  0.00    +0.000 A 
ATOM     21  C   UNL     1       7.467   5.345  13.808  0.00  0.00    +0.000 A 
ATOM     22  C   UNL     1       6.282   4.915  14.416  0.00  0.00    +0.000 A 
ATOM     23  C   UNL     1       5.457   3.996  13.746  0.00  0.00    +0.000 A 
BRANCH  18  25
ATOM     24  C   UNL     1       3.939   3.048  11.108  0.00  0.00    +0.000 C 
ATOM     25  O   UNL     1       5.111   2.579  11.764  0.00  0.00    +0.000 OA
ENDBRANCH  18  25
ENDBRANCH  17  22
ENDBRANCH  16  17
ENDBRANCH   1  16
TORSDOF 6
ENDMDL
MODEL 5
REMARK VINA RESULT:      -7.5      1.518      2.351
REMARK  Name = 
REMARK  8 active torsions:
REMARK  status: ('A' for Active; 'I' for Inactive)
REMARK    1  A    between atoms: C_1  and  O_2
REMARK    2  A    between atoms: O_2  and  C_3
REMARK    3  A    between atoms: C_7  and  C_8
REMARK    4  A    between atoms: C_8  and  C_9
REMARK    5  A    between atoms: C_9  and  N_10
REMARK    6  A    between atoms: N_10  and  C_11
REMARK    7  A    between atoms: C_12  and  C_14
REMARK    8  A    between atoms: C_17  and  C_18
REMARK                            x       y       z     vdW  Elec       q    Type
REMARK                         _______ _______ _______ _____ _____    ______ ____
ROOT
ATOM      1  N   UNL     1       2.690   4.881  18.371  0.00  0.00    +0.000 N 
ATOM      2  C   UNL     1       1.360   4.873  17.774  0.00  0.00    +0.000 C 
ATOM      3  C   UNL     1       3.210   5.984  19.090  0.00  0.00    +0.000 C 
ATOM      4  O   UNL     1       4.308   5.904  19.639  0.00  0.00    +0.000 OA
ENDROOT
BRANCH   3   5
ATOM      5  C   UNL     1       2.425   7.219  19.149  0.00  0.00    +0.000 A 
ATOM      6  C   UNL     1       2.162   8.180  18.190  0.00  0.00    +0.000 A 
ATOM      7  C   UNL     1       1.428   9.284  18.708  0.00  0.00    +0.000 A 
ATOM      8  C   UNL     1       1.011   9.089  20.010  0.00  0.00    +0.000 A 
ATOM      9  S   UNL     1       1.594   7.589  20.607  0.00  0.00    +0.000 S 
BRANCH   8  10
ATOM     10  C   UNL     1       0.149   9.961  20.825  0.00  0.00    +0.000 A 
ATOM     11  C   UNL     1       0.087   9.765  22.216  0.00  0.00    +0.000 A 
ATOM     12  C   UNL     1      -0.724  10.567  23.022  0.00  0.00    +0.000 A 
ATOM     13  C   UNL     1      -1.483  11.580  22.450  0.00  0.00    +0.000 A 
ATOM     14  C   UNL     1      -1.437  11.792  21.074  0.00  0.00    +0.000 A 
ATOM     15  C   UNL     1      -0.629  10.986  20.267  0.00  0.00    +0.000 A 
ENDBRANCH   8  10
ENDBRANCH   3   5
BRANCH   1  16
ATOM     16  C   UNL     1       3.407   3.599  18.507  0.00  0.00    +0.000 C 
BRANCH  16  17
ATOM     17  C   UNL     1       3.921   3.013  17.185  0.00  0.00    +0.000 C 
BRANCH  17  22
ATOM     18  C   UNL     1       6.494   4.435  14.765  0.00  0.00    +0.000 A 
ATOM     19  C   UNL     1       7.447   4.936  15.654  0.00  0.00    +0.000 A 
ATOM     20  C   UNL     1       7.263   4.823  17.033  0.00  0.00    +0.000 A 
ATOM     21  C   UNL     1       6.124   4.200  17.536  0.00  0.00    +0.000 A 
ATOM     22  C   UNL     1       5.164   3.682  16.659  0.00  0.00    +0.000 A 
ATOM     23  C   UNL     1       5.353   3.815  15.272  0.00  0.00    +0.000 A 
BRANCH  18  25
ATOM     24  C   UNL     1       6.284   3.635  12.534  0.00  0.00    +0.000 C 
ATOM     25  O   UNL     1       6.796   4.604  13.441  0.00  0.00    +0.000 OA
ENDBRANCH  18  25
ENDBRANCH  17  22
ENDBRANCH  16  17
ENDBRANCH   1  16
TORSDOF 6
ENDMDL
MODEL 6
REMARK VINA RESULT:      -7.5      2.439      3.368
REMARK  Name = 
REMARK  8 active torsions:
REMARK  status: ('A' for Active; 'I' for Inactive)
REMARK    1  A    between atoms: C_1  and  O_2
REMARK    2  A    between atoms: O_2  and  C_3
REMARK    3  A    between atoms: C_7  and  C_8
REMARK    4  A    between atoms: C_8  and  C_9
REMARK    5  A    between atoms: C_9  and  N_10
REMARK    6  A    between atoms: N_10  and  C_11
REMARK    7  A    between atoms: C_12  and  C_14
REMARK    8  A    between atoms: C_17  and  C_18
REMARK                            x       y       z     vdW  Elec       q    Type
REMARK                         _______ _______ _______ _____ _____    ______ ____
ROOT
ATOM      1  N   UNL     1       2.686   4.690  18.516  0.00  0.00    +0.000 N 
ATOM      2  C   UNL     1       1.408   4.781  17.821  0.00  0.00    +0.000 C 
ATOM      3  C   UNL     1       3.204   5.732  19.322  0.00  0.00    +0.000 C 
ATOM      4  O   UNL     1       4.252   5.569  19.948  0.00  0.00    +0.000 OA
ENDROOT
BRANCH   3   5
ATOM      5  C   UNL     1       2.482   7.005  19.379  0.00  0.00    +0.000 A 
ATOM      6  C   UNL     1       2.338   8.015  18.446  0.00  0.00    +0.000 A 
ATOM      7  C   UNL     1       1.627   9.137  18.957  0.00  0.00    +0.000 A 
ATOM      8  C   UNL     1       1.108   8.914  20.218  0.00  0.00    +0.000 A 
ATOM      9  S   UNL     1       1.569   7.363  20.790  0.00  0.00    +0.000 S 
BRANCH   8  10
ATOM     10  C   UNL     1       0.237   9.800  21.008  0.00  0.00    +0.000 A 
ATOM     11  C   UNL     1       0.002   9.508  22.363  0.00  0.00    +0.000 A 
ATOM     12  C   UNL     1      -0.825  10.319  23.143  0.00  0.00    +0.000 A 
ATOM     13  C   UNL     1      -1.426  11.438  22.581  0.00  0.00    +0.000 A 
ATOM     14  C   UNL     1      -1.208  11.746  21.240  0.00  0.00    +0.000 A 
ATOM     15  C   UNL     1      -0.384  10.931  20.459  0.00  0.00    +0.000 A 
ENDBRANCH   8  10
ENDBRANCH   3   5
BRANCH   1  16
ATOM     16  C   UNL     1       3.323   3.367  18.646  0.00  0.00    +0.000 C 
BRANCH  16  17
ATOM     17  C   UNL     1       4.050   2.883  17.383  0.00  0.00    +0.000 C 
BRANCH  17  22
ATOM     18  C   UNL     1       6.939   5.344  17.079  0.00  0.00    +0.000 A 
ATOM     19  C   UNL     1       6.813   5.740  15.746  0.00  0.00    +0.000 A 
ATOM     20  C   UNL     1       5.801   5.213  14.940  0.00  0.00    +0.000 A 
ATOM     21  C   UNL     1       4.903   4.288  15.464  0.00  0.00    +0.000 A 
ATOM     22  C   UNL     1       5.008   3.890  16.801  0.00  0.00    +0.000 A 
ATOM     23  C   UNL     1       6.039   4.415  17.599  0.00  0.00    +0.000 A 
BRANCH  18  25
ATOM     24  C   UNL     1       7.904   5.897  19.182  0.00  0.00    +0.000 C 
ATOM     25  O   UNL     1       7.965   5.939  17.761  0.00  0.00    +0.000 OA
ENDBRANCH  18  25
ENDBRANCH  17  22
ENDBRANCH  16  17
ENDBRANCH   1  16
TORSDOF 6
ENDMDL
MODEL 7
REMARK VINA RESULT:      -7.4      1.335      1.863
REMARK  Name = 
REMARK  8 active torsions:
REMARK  status: ('A' for Active; 'I' for Inactive)
REMARK    1  A    between atoms: C_1  and  O_2
REMARK    2  A    between atoms: O_2  and  C_3
REMARK    3  A    between atoms: C_7  and  C_8
REMARK    4  A    between atoms: C_8  and  C_9
REMARK    5  A    between atoms: C_9  and  N_10
REMARK    6  A    between atoms: N_10  and  C_11
REMARK    7  A    between atoms: C_12  and  C_14
REMARK    8  A    between atoms: C_17  and  C_18
REMARK                            x       y       z     vdW  Elec       q    Type
REMARK                         _______ _______ _______ _____ _____    ______ ____
ROOT
ATOM      1  N   UNL     1       3.040   5.513  18.290  0.00  0.00    +0.000 N 
ATOM      2  C   UNL     1       1.794   5.064  18.900  0.00  0.00    +0.000 C 
ATOM      3  C   UNL     1       3.370   6.879  18.121  0.00  0.00    +0.000 C 
ATOM      4  O   UNL     1       4.469   7.200  17.671  0.00  0.00    +0.000 OA
ENDROOT
BRANCH   3   5
ATOM      5  C   UNL     1       2.373   7.894  18.473  0.00  0.00    +0.000 A 
ATOM      6  C   UNL     1       1.639   8.762  17.687  0.00  0.00    +0.000 A 
ATOM      7  C   UNL     1       0.850   9.663  18.457  0.00  0.00    +0.000 A 
ATOM      8  C   UNL     1       0.872   9.377  19.807  0.00  0.00    +0.000 A 
ATOM      9  S   UNL     1       1.926   8.060  20.124  0.00  0.00    +0.000 S 
BRANCH   8  10
ATOM     10  C   UNL     1       0.101  10.023  20.883  0.00  0.00    +0.000 A 
ATOM     11  C   UNL     1       0.027   9.407  22.145  0.00  0.00    +0.000 A 
ATOM     12  C   UNL     1      -0.701   9.984  23.187  0.00  0.00    +0.000 A 
ATOM     13  C   UNL     1      -1.364  11.189  22.985  0.00  0.00    +0.000 A 
ATOM     14  C   UNL     1      -1.304  11.816  21.743  0.00  0.00    +0.000 A 
ATOM     15  C   UNL     1      -0.579  11.235  20.698  0.00  0.00    +0.000 A 
ENDBRANCH   8  10
ENDBRANCH   3   5
BRANCH   1  16
ATOM     16  C   UNL     1       4.132   4.538  18.122  0.00  0.00    +0.000 C 
BRANCH  16  17
ATOM     17  C   UNL     1       4.104   3.772  16.792  0.00  0.00    +0.000 C 
BRANCH  17  22
ATOM     18  C   UNL     1       6.239   3.998  13.646  0.00  0.00    +0.000 A 
ATOM     19  C   UNL     1       7.320   4.747  14.112  0.00  0.00    +0.000 A 
ATOM     20  C   UNL     1       7.366   5.186  15.437  0.00  0.00    +0.000 A 
ATOM     21  C   UNL     1       6.328   4.872  16.311  0.00  0.00    +0.000 A 
ATOM     22  C   UNL     1       5.241   4.112  15.863  0.00  0.00    +0.000 A 
ATOM     23  C   UNL     1       5.199   3.689  14.524  0.00  0.00    +0.000 A 
BRANCH  18  25
ATOM     24  C   UNL     1       5.149   3.066  11.748  0.00  0.00    +0.000 C 
ATOM     25  O   UNL     1       6.319   3.625  12.333  0.00  0.00    +0.000 OA
ENDBRANCH  18  25
ENDBRANCH  17  22
ENDBRANCH  16  17
ENDBRANCH   1  16
TORSDOF 6
ENDMDL
MODEL 8
REMARK VINA RESULT:      -7.4      2.417      3.527
REMARK  Name = 
REMARK  8 active torsions:
REMARK  status: ('A' for Active; 'I' for Inactive)
REMARK    1  A    between atoms: C_1  and  O_2
REMARK    2  A    between atoms: O_2  and  C_3
REMARK    3  A    between atoms: C_7  and  C_8
REMARK    4  A    between atoms: C_8  and  C_9
REMARK    5  A    between atoms: C_9  and  N_10
REMARK    6  A    between atoms: N_10  and  C_11
REMARK    7  A    between atoms: C_12  and  C_14
REMARK    8  A    between atoms: C_17  and  C_18
REMARK                            x       y       z     vdW  Elec       q    Type
REMARK                         _______ _______ _______ _____ _____    ______ ____
ROOT
ATOM      1  N   UNL     1       2.565   4.817  18.470  0.00  0.00    +0.000 N 
ATOM      2  C   UNL     1       1.330   4.905  17.700  0.00  0.00    +0.000 C 
ATOM      3  C   UNL     1       3.058   5.879  19.265  0.00  0.00    +0.000 C 
ATOM      4  O   UNL     1       4.065   5.721  19.956  0.00  0.00    +0.000 OA
ENDROOT
BRANCH   3   5
ATOM      5  C   UNL     1       2.360   7.167  19.234  0.00  0.00    +0.000 A 
ATOM      6  C   UNL     1       2.268   8.131  18.247  0.00  0.00    +0.000 A 
ATOM      7  C   UNL     1       1.563   9.290  18.678  0.00  0.00    +0.000 A 
ATOM      8  C   UNL     1       0.997   9.140  19.928  0.00  0.00    +0.000 A 
ATOM      9  S   UNL     1       1.407   7.611  20.593  0.00  0.00    +0.000 S 
BRANCH   8  10
ATOM     10  C   UNL     1       0.117  10.080  20.643  0.00  0.00    +0.000 A 
ATOM     11  C   UNL     1      -0.663  10.990  19.908  0.00  0.00    +0.000 A 
ATOM     12  C   UNL     1      -1.502  11.903  20.549  0.00  0.00    +0.000 A 
ATOM     13  C   UNL     1      -1.579  11.916  21.937  0.00  0.00    +0.000 A 
ATOM     14  C   UNL     1      -0.815  11.024  22.684  0.00  0.00    +0.000 A 
ATOM     15  C   UNL     1       0.030  10.114  22.042  0.00  0.00    +0.000 A 
ENDBRANCH   8  10
ENDBRANCH   3   5
BRANCH   1  16
ATOM     16  C   UNL     1       3.166   3.489  18.685  0.00  0.00    +0.000 C 
BRANCH  16  17
ATOM     17  C   UNL     1       3.865   2.898  17.452  0.00  0.00    +0.000 C 
BRANCH  17  22
ATOM     18  C   UNL     1       6.914   5.152  17.097  0.00  0.00    +0.000 A 
ATOM     19  C   UNL     1       6.857   5.464  15.738  0.00  0.00    +0.000 A 
ATOM     20  C   UNL     1       5.842   4.948  14.930  0.00  0.00    +0.000 A 
ATOM     21  C   UNL     1       4.869   4.118  15.480  0.00  0.00    +0.000 A 
ATOM     22  C   UNL     1       4.904   3.803  16.843  0.00  0.00    +0.000 A 
ATOM     23  C   UNL     1       5.939   4.316  17.643  0.00  0.00    +0.000 A 
BRANCH  18  25
ATOM     24  C   UNL     1       7.855   5.757  19.197  0.00  0.00    +0.000 C 
ATOM     25  O   UNL     1       7.952   5.726  17.778  0.00  0.00    +0.000 OA
ENDBRANCH  18  25
ENDBRANCH  17  22
ENDBRANCH  16  17
ENDBRANCH   1  16
TORSDOF 6
ENDMDL
MODEL 9
REMARK VINA RESULT:      -7.3      1.651      2.568
REMARK  Name = 
REMARK  8 active torsions:
REMARK  status: ('A' for Active; 'I' for Inactive)
REMARK    1  A    between atoms: C_1  and  O_2
REMARK    2  A    between atoms: O_2  and  C_3
REMARK    3  A    between atoms: C_7  and  C_8
REMARK    4  A    between atoms: C_8  and  C_9
REMARK    5  A    between atoms: C_9  and  N_10
REMARK    6  A    between atoms: N_10  and  C_11
REMARK    7  A    between atoms: C_12  and  C_14
REMARK    8  A    between atoms: C_17  and  C_18
REMARK                            x       y       z     vdW  Elec       q    Type
REMARK                         _______ _______ _______ _____ _____    ______ ____
ROOT
ATOM      1  N   UNL     1       2.720   4.892  18.400  0.00  0.00    +0.000 N 
ATOM      2  C   UNL     1       1.348   4.838  17.913  0.00  0.00    +0.000 C 
ATOM      3  C   UNL     1       3.256   6.011  19.082  0.00  0.00    +0.000 C 
ATOM      4  O   UNL     1       4.397   5.970  19.540  0.00  0.00    +0.000 OA
ENDROOT
BRANCH   3   5
ATOM      5  C   UNL     1       2.434   7.217  19.211  0.00  0.00    +0.000 A 
ATOM      6  C   UNL     1       2.081   8.184  18.288  0.00  0.00    +0.000 A 
ATOM      7  C   UNL     1       1.343   9.253  18.870  0.00  0.00    +0.000 A 
ATOM      8  C   UNL     1       1.011   9.021  20.190  0.00  0.00    +0.000 A 
ATOM      9  S   UNL     1       1.680   7.532  20.723  0.00  0.00    +0.000 S 
BRANCH   8  10
ATOM     10  C   UNL     1       0.171   9.848  21.072  0.00  0.00    +0.000 A 
ATOM     11  C   UNL     1      -0.384  11.041  20.577  0.00  0.00    +0.000 A 
ATOM     12  C   UNL     1      -1.178  11.857  21.385  0.00  0.00    +0.000 A 
ATOM     13  C   UNL     1      -1.435  11.489  22.700  0.00  0.00    +0.000 A 
ATOM     14  C   UNL     1      -0.895  10.312  23.211  0.00  0.00    +0.000 A 
ATOM     15  C   UNL     1      -0.095   9.498  22.404  0.00  0.00    +0.000 A 
ENDBRANCH   8  10
ENDBRANCH   3   5
BRANCH   1  16
ATOM     16  C   UNL     1       3.491   3.638  18.471  0.00  0.00    +0.000 C 
BRANCH  16  17
ATOM     17  C   UNL     1       3.912   3.071  17.107  0.00  0.00    +0.000 C 
BRANCH  17  22
ATOM     18  C   UNL     1       6.442   4.352  14.566  0.00  0.00    +0.000 A 
ATOM     19  C   UNL     1       7.381   4.953  15.404  0.00  0.00    +0.000 A 
ATOM     20  C   UNL     1       7.203   4.953  16.790  0.00  0.00    +0.000 A 
ATOM     21  C   UNL     1       6.082   4.344  17.347  0.00  0.00    +0.000 A 
ATOM     22  C   UNL     1       5.136   3.726  16.522  0.00  0.00    +0.000 A 
ATOM     23  C   UNL     1       5.319   3.746  15.128  0.00  0.00    +0.000 A 
BRANCH  18  25
ATOM     24  C   UNL     1       7.847   5.220  12.852  0.00  0.00    +0.000 C 
ATOM     25  O   UNL     1       6.737   4.414  13.231  0.00  0.00    +0.000 OA
ENDBRANCH  18  25
ENDBRANCH  17  22
ENDBRANCH  16  17
ENDBRANCH   1  16
TORSDOF 6
ENDMDL
