MODEL 1
REMARK VINA RESULT:      -6.8      0.000      0.000
REMARK  Name = 
REMARK  3 active torsions:
REMARK  status: ('A' for Active; 'I' for Inactive)
REMARK    1  A    between atoms: C_2  and  O_3
REMARK    2  A    between atoms: C_2  and  C_4
REMARK    3  A    between atoms: C_15  and  O_16
REMARK                            x       y       z     vdW  Elec       q    Type
REMARK                         _______ _______ _______ _____ _____    ______ ____
ROOT
ATOM      1  C   UNL     1       2.533   3.707  18.926  0.00  0.00    +0.000 A 
ATOM      2  C   UNL     1       3.361   4.220  19.902  0.00  0.00    +0.000 A 
ATOM      3  N   UNL     1       4.619   4.663  19.669  0.00  0.00    +0.000 NA
ATOM      4  C   UNL     1       5.126   4.616  18.418  0.00  0.00    +0.000 A 
ATOM      5  C   UNL     1       6.426   5.078  18.155  0.00  0.00    +0.000 A 
ATOM      6 CL   UNL     1       7.416   5.710  19.432  0.00  0.00    +0.000 Cl
ATOM      7  C   UNL     1       6.986   5.058  16.875  0.00  0.00    +0.000 A 
ATOM      8  C   UNL     1       6.243   4.556  15.826  0.00  0.00    +0.000 A 
ATOM      9 CL   UNL     1       6.906   4.526  14.239  0.00  0.00    +0.000 Cl
ATOM     10  C   UNL     1       4.952   4.076  16.043  0.00  0.00    +0.000 A 
ATOM     11  C   UNL     1       4.365   4.105  17.337  0.00  0.00    +0.000 A 
ATOM     12  C   UNL     1       3.046   3.653  17.627  0.00  0.00    +0.000 A 
ENDROOT
BRANCH   1  14
ATOM     13  O   UNL     1       0.575   2.376  18.785  0.00  0.00    +0.000 OA
ATOM     14  C   UNL     1       1.176   3.278  19.346  0.00  0.00    +0.000 C 
BRANCH  14  15
ATOM     15  O   UNL     1       0.653   3.950  20.393  0.00  0.00    +0.000 OA
ATOM     16  H   UNL     1       0.398   4.871  20.163  0.00  0.00    +0.000 HD
ENDBRANCH  14  15
ENDBRANCH   1  14
BRANCH  12  17
ATOM     17  O   UNL     1       2.221   3.146  16.646  0.00  0.00    +0.000 OA
ATOM     18  H   UNL     1       1.394   2.806  17.031  0.00  0.00    +0.000 HD
ENDBRANCH  12  17
TORSDOF 3
ENDMDL
MODEL 2
REMARK VINA RESULT:      -6.7      4.088      5.287
REMARK  Name = 
REMARK  3 active torsions:
REMARK  status: ('A' for Active; 'I' for Inactive)
REMARK    1  A    between atoms: C_2  and  O_3
REMARK    2  A    between atoms: C_2  and  C_4
REMARK    3  A    between atoms: C_15  and  O_16
REMARK                            x       y       z     vdW  Elec       q    Type
REMARK                         _______ _______ _______ _____ _____    ______ ____
ROOT
ATOM      1  C   UNL     1       5.895   4.992  17.226  0.00  0.00    +0.000 A 
ATOM      2  C   UNL     1       5.473   4.250  18.308  0.00  0.00    +0.000 A 
ATOM      3  N   UNL     1       4.433   4.597  19.103  0.00  0.00    +0.000 NA
ATOM      4  C   UNL     1       3.745   5.731  18.849  0.00  0.00    +0.000 A 
ATOM      5  C   UNL     1       2.658   6.104  19.658  0.00  0.00    +0.000 A 
ATOM      6 CL   UNL     1       2.182   5.123  21.008  0.00  0.00    +0.000 Cl
ATOM      7  C   UNL     1       1.912   7.262  19.427  0.00  0.00    +0.000 A 
ATOM      8  C   UNL     1       2.257   8.082  18.370  0.00  0.00    +0.000 A 
ATOM      9 CL   UNL     1       1.350   9.510  18.059  0.00  0.00    +0.000 Cl
ATOM     10  C   UNL     1       3.335   7.756  17.549  0.00  0.00    +0.000 A 
ATOM     11  C   UNL     1       4.092   6.573  17.764  0.00  0.00    +0.000 A 
ATOM     12  C   UNL     1       5.190   6.167  16.953  0.00  0.00    +0.000 A 
ENDROOT
BRANCH   1  14
ATOM     13  O   UNL     1       7.015   4.364  15.232  0.00  0.00    +0.000 OA
ATOM     14  C   UNL     1       7.043   4.463  16.448  0.00  0.00    +0.000 C 
BRANCH  14  15
ATOM     15  O   UNL     1       8.120   4.101  17.176  0.00  0.00    +0.000 OA
ATOM     16  H   UNL     1       8.516   3.255  16.872  0.00  0.00    +0.000 HD
ENDBRANCH  14  15
ENDBRANCH   1  14
BRANCH  12  17
ATOM     17  O   UNL     1       5.604   6.911  15.868  0.00  0.00    +0.000 OA
ATOM     18  H   UNL     1       6.414   7.409  16.078  0.00  0.00    +0.000 HD
ENDBRANCH  12  17
TORSDOF 3
ENDMDL
MODEL 3
REMARK VINA RESULT:      -6.7      2.479      2.667
REMARK  Name = 
REMARK  3 active torsions:
REMARK  status: ('A' for Active; 'I' for Inactive)
REMARK    1  A    between atoms: C_2  and  O_3
REMARK    2  A    between atoms: C_2  and  C_4
REMARK    3  A    between atoms: C_15  and  O_16
REMARK                            x       y       z     vdW  Elec       q    Type
REMARK                         _______ _______ _______ _____ _____    ______ ____
ROOT
ATOM      1  C   UNL     1       2.722   3.824  20.353  0.00  0.00    +0.000 A 
ATOM      2  C   UNL     1       2.090   5.048  20.287  0.00  0.00    +0.000 A 
ATOM      3  N   UNL     1       2.422   6.023  19.409  0.00  0.00    +0.000 NA
ATOM      4  C   UNL     1       3.427   5.820  18.529  0.00  0.00    +0.000 A 
ATOM      5  C   UNL     1       3.781   6.817  17.605  0.00  0.00    +0.000 A 
ATOM      6 CL   UNL     1       2.944   8.337  17.579  0.00  0.00    +0.000 Cl
ATOM      7  C   UNL     1       4.805   6.647  16.671  0.00  0.00    +0.000 A 
ATOM      8  C   UNL     1       5.508   5.458  16.657  0.00  0.00    +0.000 A 
ATOM      9 CL   UNL     1       6.770   5.219  15.512  0.00  0.00    +0.000 Cl
ATOM     10  C   UNL     1       5.198   4.446  17.563  0.00  0.00    +0.000 A 
ATOM     11  C   UNL     1       4.148   4.601  18.509  0.00  0.00    +0.000 A 
ATOM     12  C   UNL     1       3.763   3.602  19.447  0.00  0.00    +0.000 A 
ENDROOT
BRANCH   1  14
ATOM     13  O   UNL     1       2.981   2.205  22.067  0.00  0.00    +0.000 OA
ATOM     14  C   UNL     1       2.225   2.859  21.365  0.00  0.00    +0.000 C 
BRANCH  14  15
ATOM     15  O   UNL     1       0.883   2.755  21.460  0.00  0.00    +0.000 OA
ATOM     16  H   UNL     1       0.523   3.206  22.255  0.00  0.00    +0.000 HD
ENDBRANCH  14  15
ENDBRANCH   1  14
BRANCH  12  17
ATOM     17  O   UNL     1       4.395   2.378  19.504  0.00  0.00    +0.000 OA
ATOM     18  H   UNL     1       4.927   2.301  20.316  0.00  0.00    +0.000 HD
ENDBRANCH  12  17
TORSDOF 3
ENDMDL
MODEL 4
REMARK VINA RESULT:      -6.7      3.924      5.419
REMARK  Name = 
REMARK  3 active torsions:
REMARK  status: ('A' for Active; 'I' for Inactive)
REMARK    1  A    between atoms: C_2  and  O_3
REMARK    2  A    between atoms: C_2  and  C_4
REMARK    3  A    between atoms: C_15  and  O_16
REMARK                            x       y       z     vdW  Elec       q    Type
REMARK                         _______ _______ _______ _____ _____    ______ ____
ROOT
ATOM      1  C   UNL     1       5.720   4.780  15.742  0.00  0.00    +0.000 A 
ATOM      2  C   UNL     1       5.464   3.692  16.548  0.00  0.00    +0.000 A 
ATOM      3  N   UNL     1       4.630   3.722  17.615  0.00  0.00    +0.000 NA
ATOM      4  C   UNL     1       3.992   4.868  17.936  0.00  0.00    +0.000 A 
ATOM      5  C   UNL     1       3.117   4.916  19.034  0.00  0.00    +0.000 A 
ATOM      6 CL   UNL     1       2.842   3.507  20.009  0.00  0.00    +0.000 Cl
ATOM      7  C   UNL     1       2.429   6.076  19.397  0.00  0.00    +0.000 A 
ATOM      8  C   UNL     1       2.621   7.227  18.658  0.00  0.00    +0.000 A 
ATOM      9 CL   UNL     1       1.781   8.669  19.079  0.00  0.00    +0.000 Cl
ATOM     10  C   UNL     1       3.489   7.228  17.568  0.00  0.00    +0.000 A 
ATOM     11  C   UNL     1       4.183   6.050  17.179  0.00  0.00    +0.000 A 
ATOM     12  C   UNL     1       5.066   5.973  16.065  0.00  0.00    +0.000 A 
ENDROOT
BRANCH   1  14
ATOM     13  O   UNL     1       7.575   5.338  14.374  0.00  0.00    +0.000 OA
ATOM     14  C   UNL     1       6.650   4.576  14.603  0.00  0.00    +0.000 C 
BRANCH  14  15
ATOM     15  O   UNL     1       6.405   3.490  13.842  0.00  0.00    +0.000 OA
ATOM     16  H   UNL     1       6.971   3.454  13.039  0.00  0.00    +0.000 HD
ENDBRANCH  14  15
ENDBRANCH   1  14
BRANCH  12  17
ATOM     17  O   UNL     1       5.314   7.064  15.259  0.00  0.00    +0.000 OA
ATOM     18  H   UNL     1       4.678   7.101  14.522  0.00  0.00    +0.000 HD
ENDBRANCH  12  17
TORSDOF 3
ENDMDL
MODEL 5
REMARK VINA RESULT:      -6.7      3.424      5.380
REMARK  Name = 
REMARK  3 active torsions:
REMARK  status: ('A' for Active; 'I' for Inactive)
REMARK    1  A    between atoms: C_2  and  O_3
REMARK    2  A    between atoms: C_2  and  C_4
REMARK    3  A    between atoms: C_15  and  O_16
REMARK                            x       y       z     vdW  Elec       q    Type
REMARK                         _______ _______ _______ _____ _____    ______ ____
ROOT
ATOM      1  C   UNL     1       5.515   5.121  16.028  0.00  0.00    +0.000 A 
ATOM      2  C   UNL     1       5.199   6.458  16.134  0.00  0.00    +0.000 A 
ATOM      3  N   UNL     1       4.269   6.950  16.986  0.00  0.00    +0.000 NA
ATOM      4  C   UNL     1       3.591   6.110  17.796  0.00  0.00    +0.000 A 
ATOM      5  C   UNL     1       2.627   6.602  18.692  0.00  0.00    +0.000 A 
ATOM      6 CL   UNL     1       2.278   8.300  18.771  0.00  0.00    +0.000 Cl
ATOM      7  C   UNL     1       1.910   5.771  19.556  0.00  0.00    +0.000 A 
ATOM      8  C   UNL     1       2.145   4.410  19.526  0.00  0.00    +0.000 A 
ATOM      9 CL   UNL     1       1.280   3.365  20.584  0.00  0.00    +0.000 Cl
ATOM     10  C   UNL     1       3.084   3.877  18.644  0.00  0.00    +0.000 A 
ATOM     11  C   UNL     1       3.831   4.714  17.771  0.00  0.00    +0.000 A 
ATOM     12  C   UNL     1       4.820   4.240  16.863  0.00  0.00    +0.000 A 
ENDROOT
BRANCH   1  14
ATOM     13  O   UNL     1       7.597   5.397  14.926  0.00  0.00    +0.000 OA
ATOM     14  C   UNL     1       6.571   4.748  15.054  0.00  0.00    +0.000 C 
BRANCH  14  15
ATOM     15  O   UNL     1       6.322   3.642  14.323  0.00  0.00    +0.000 OA
ATOM     16  H   UNL     1       5.410   3.627  13.957  0.00  0.00    +0.000 HD
ENDBRANCH  14  15
ENDBRANCH   1  14
BRANCH  12  17
ATOM     17  O   UNL     1       5.135   2.901  16.766  0.00  0.00    +0.000 OA
ATOM     18  H   UNL     1       6.088   2.760  16.907  0.00  0.00    +0.000 HD
ENDBRANCH  12  17
TORSDOF 3
ENDMDL
MODEL 6
REMARK VINA RESULT:      -6.7      3.403      5.266
REMARK  Name = 
REMARK  3 active torsions:
REMARK  status: ('A' for Active; 'I' for Inactive)
REMARK    1  A    between atoms: C_2  and  O_3
REMARK    2  A    between atoms: C_2  and  C_4
REMARK    3  A    between atoms: C_15  and  O_16
REMARK                            x       y       z     vdW  Elec       q    Type
REMARK                         _______ _______ _______ _____ _____    ______ ____
ROOT
ATOM      1  C   UNL     1       5.073   5.152  16.551  0.00  0.00    +0.000 A 
ATOM      2  C   UNL     1       4.706   6.453  16.820  0.00  0.00    +0.000 A 
ATOM      3  N   UNL     1       3.846   6.807  17.804  0.00  0.00    +0.000 NA
ATOM      4  C   UNL     1       3.297   5.856  18.590  0.00  0.00    +0.000 A 
ATOM      5  C   UNL     1       2.409   6.205  19.621  0.00  0.00    +0.000 A 
ATOM      6 CL   UNL     1       1.989   7.865  19.903  0.00  0.00    +0.000 Cl
ATOM      7  C   UNL     1       1.825   5.256  20.464  0.00  0.00    +0.000 A 
ATOM      8  C   UNL     1       2.120   3.920  20.274  0.00  0.00    +0.000 A 
ATOM      9 CL   UNL     1       1.421   2.731  21.302  0.00  0.00    +0.000 Cl
ATOM     10  C   UNL     1       2.988   3.528  19.256  0.00  0.00    +0.000 A 
ATOM     11  C   UNL     1       3.600   4.485  18.402  0.00  0.00    +0.000 A 
ATOM     12  C   UNL     1       4.511   4.158  17.357  0.00  0.00    +0.000 A 
ENDROOT
BRANCH   1  14
ATOM     13  O   UNL     1       5.778   4.232  14.482  0.00  0.00    +0.000 OA
ATOM     14  C   UNL     1       6.039   4.934  15.445  0.00  0.00    +0.000 C 
BRANCH  14  15
ATOM     15  O   UNL     1       7.222   5.569  15.575  0.00  0.00    +0.000 OA
ATOM     16  H   UNL     1       7.172   6.347  16.174  0.00  0.00    +0.000 HD
ENDBRANCH  14  15
ENDBRANCH   1  14
BRANCH  12  17
ATOM     17  O   UNL     1       4.878   2.854  17.097  0.00  0.00    +0.000 OA
ATOM     18  H   UNL     1       4.769   2.299  17.890  0.00  0.00    +0.000 HD
ENDBRANCH  12  17
TORSDOF 3
ENDMDL
MODEL 7
REMARK VINA RESULT:      -6.6      3.530      5.369
REMARK  Name = 
REMARK  3 active torsions:
REMARK  status: ('A' for Active; 'I' for Inactive)
REMARK    1  A    between atoms: C_2  and  O_3
REMARK    2  A    between atoms: C_2  and  C_4
REMARK    3  A    between atoms: C_15  and  O_16
REMARK                            x       y       z     vdW  Elec       q    Type
REMARK                         _______ _______ _______ _____ _____    ______ ____
ROOT
ATOM      1  C   UNL     1       5.771   5.004  15.483  0.00  0.00    +0.000 A 
ATOM      2  C   UNL     1       5.351   6.288  15.758  0.00  0.00    +0.000 A 
ATOM      3  N   UNL     1       4.433   6.596  16.704  0.00  0.00    +0.000 NA
ATOM      4  C   UNL     1       3.876   5.614  17.443  0.00  0.00    +0.000 A 
ATOM      5  C   UNL     1       2.927   5.915  18.435  0.00  0.00    +0.000 A 
ATOM      6 CL   UNL     1       2.442   7.556  18.726  0.00  0.00    +0.000 Cl
ATOM      7  C   UNL     1       2.333   4.932  19.230  0.00  0.00    +0.000 A 
ATOM      8  C   UNL     1       2.679   3.610  19.032  0.00  0.00    +0.000 A 
ATOM      9 CL   UNL     1       1.967   2.380  20.002  0.00  0.00    +0.000 Cl
ATOM     10  C   UNL     1       3.607   3.265  18.051  0.00  0.00    +0.000 A 
ATOM     11  C   UNL     1       4.230   4.256  17.246  0.00  0.00    +0.000 A 
ATOM     12  C   UNL     1       5.201   3.978  16.242  0.00  0.00    +0.000 A 
ENDROOT
BRANCH   1  14
ATOM     13  O   UNL     1       6.638   4.085  13.476  0.00  0.00    +0.000 OA
ATOM     14  C   UNL     1       6.797   4.838  14.423  0.00  0.00    +0.000 C 
BRANCH  14  15
ATOM     15  O   UNL     1       7.915   5.578  14.576  0.00  0.00    +0.000 OA
ATOM     16  H   UNL     1       8.467   5.279  15.332  0.00  0.00    +0.000 HD
ENDBRANCH  14  15
ENDBRANCH   1  14
BRANCH  12  17
ATOM     17  O   UNL     1       5.622   2.691  15.977  0.00  0.00    +0.000 OA
ATOM     18  H   UNL     1       6.569   2.588  16.180  0.00  0.00    +0.000 HD
ENDBRANCH  12  17
TORSDOF 3
ENDMDL
MODEL 8
REMARK VINA RESULT:      -6.6      1.305      2.871
REMARK  Name = 
REMARK  3 active torsions:
REMARK  status: ('A' for Active; 'I' for Inactive)
REMARK    1  A    between atoms: C_2  and  O_3
REMARK    2  A    between atoms: C_2  and  C_4
REMARK    3  A    between atoms: C_15  and  O_16
REMARK                            x       y       z     vdW  Elec       q    Type
REMARK                         _______ _______ _______ _____ _____    ______ ____
ROOT
ATOM      1  C   UNL     1       2.351   3.741  18.698  0.00  0.00    +0.000 A 
ATOM      2  C   UNL     1       2.558   3.225  17.437  0.00  0.00    +0.000 A 
ATOM      3  N   UNL     1       3.687   3.422  16.716  0.00  0.00    +0.000 NA
ATOM      4  C   UNL     1       4.692   4.163  17.231  0.00  0.00    +0.000 A 
ATOM      5  C   UNL     1       5.874   4.372  16.501  0.00  0.00    +0.000 A 
ATOM      6 CL   UNL     1       6.066   3.694  14.915  0.00  0.00    +0.000 Cl
ATOM      7  C   UNL     1       6.942   5.122  16.999  0.00  0.00    +0.000 A 
ATOM      8  C   UNL     1       6.834   5.691  18.253  0.00  0.00    +0.000 A 
ATOM      9 CL   UNL     1       8.138   6.613  18.893  0.00  0.00    +0.000 Cl
ATOM     10  C   UNL     1       5.675   5.518  19.007  0.00  0.00    +0.000 A 
ATOM     11  C   UNL     1       4.587   4.745  18.518  0.00  0.00    +0.000 A 
ATOM     12  C   UNL     1       3.384   4.510  19.243  0.00  0.00    +0.000 A 
ENDROOT
BRANCH   1  14
ATOM     13  O   UNL     1       0.657   4.036  20.331  0.00  0.00    +0.000 OA
ATOM     14  C   UNL     1       1.063   3.418  19.360  0.00  0.00    +0.000 C 
BRANCH  14  15
ATOM     15  O   UNL     1       0.368   2.399  18.812  0.00  0.00    +0.000 OA
ATOM     16  H   UNL     1      -0.583   2.413  19.058  0.00  0.00    +0.000 HD
ENDBRANCH  14  15
ENDBRANCH   1  14
BRANCH  12  17
ATOM     17  O   UNL     1       3.186   5.024  20.507  0.00  0.00    +0.000 OA
ATOM     18  H   UNL     1       3.652   5.872  20.612  0.00  0.00    +0.000 HD
ENDBRANCH  12  17
TORSDOF 3
ENDMDL
MODEL 9
REMARK VINA RESULT:      -6.5      3.468      5.209
REMARK  Name = 
REMARK  3 active torsions:
REMARK  status: ('A' for Active; 'I' for Inactive)
REMARK    1  A    between atoms: C_2  and  O_3
REMARK    2  A    between atoms: C_2  and  C_4
REMARK    3  A    between atoms: C_15  and  O_16
REMARK                            x       y       z     vdW  Elec       q    Type
REMARK                         _______ _______ _______ _____ _____    ______ ____
ROOT
ATOM      1  C   UNL     1       5.905   5.048  17.128  0.00  0.00    +0.000 A 
ATOM      2  C   UNL     1       5.590   6.195  17.825  0.00  0.00    +0.000 A 
ATOM      3  N   UNL     1       4.444   6.361  18.527  0.00  0.00    +0.000 NA
ATOM      4  C   UNL     1       3.533   5.366  18.570  0.00  0.00    +0.000 A 
ATOM      5  C   UNL     1       2.341   5.517  19.299  0.00  0.00    +0.000 A 
ATOM      6 CL   UNL     1       2.008   6.991  20.153  0.00  0.00    +0.000 Cl
ATOM      7  C   UNL     1       1.377   4.510  19.380  0.00  0.00    +0.000 A 
ATOM      8  C   UNL     1       1.591   3.322  18.710  0.00  0.00    +0.000 A 
ATOM      9 CL   UNL     1       0.421   2.063  18.798  0.00  0.00    +0.000 Cl
ATOM     10  C   UNL     1       2.753   3.133  17.965  0.00  0.00    +0.000 A 
ATOM     11  C   UNL     1       3.750   4.143  17.888  0.00  0.00    +0.000 A 
ATOM     12  C   UNL     1       4.969   4.010  17.165  0.00  0.00    +0.000 A 
ENDROOT
BRANCH   1  14
ATOM     13  O   UNL     1       7.452   5.751  15.474  0.00  0.00    +0.000 OA
ATOM     14  C   UNL     1       7.210   5.021  16.422  0.00  0.00    +0.000 C 
BRANCH  14  15
ATOM     15  O   UNL     1       8.111   4.138  16.901  0.00  0.00    +0.000 OA
ATOM     16  H   UNL     1       8.953   4.143  16.394  0.00  0.00    +0.000 HD
ENDBRANCH  14  15
ENDBRANCH   1  14
BRANCH  12  17
ATOM     17  O   UNL     1       5.281   2.858  16.474  0.00  0.00    +0.000 OA
ATOM     18  H   UNL     1       4.476   2.435  16.126  0.00  0.00    +0.000 HD
ENDBRANCH  12  17
TORSDOF 3
ENDMDL
