MODEL 1
REMARK VINA RESULT:      -8.1      0.000      0.000
REMARK  Name = 
REMARK  4 active torsions:
REMARK  status: ('A' for Active; 'I' for Inactive)
REMARK    1  A    between atoms: C_1  and  C_2
REMARK    2  A    between atoms: C_5  and  C_6
REMARK    3  A    between atoms: C_8  and  C_9
REMARK    4  A    between atoms: C_10  and  C_11
REMARK                            x       y       z     vdW  Elec       q    Type
REMARK                         _______ _______ _______ _____ _____    ______ ____
ROOT
ATOM      1  C   UNL     1       0.534  11.543  19.353  0.00  0.00    +0.000 C 
ATOM      2  C   UNL     1      -0.683  12.017  19.001  0.00  0.00    +0.000 C 
ATOM      3  C   UNL     1      -1.098  13.505  19.194  0.00  0.00    +0.000 C 
ATOM      4  C   UNL     1       0.186  14.314  19.271  0.00  0.00    +0.000 A 
ATOM      5  C   UNL     1       0.302  15.723  18.816  0.00  0.00    +0.000 A 
ATOM      6  N   UNL     1      -0.793  16.471  18.495  0.00  0.00    +0.000 N 
ATOM      7  N   UNL     1       1.440  16.346  18.659  0.00  0.00    +0.000 NA
ATOM      8  C   UNL     1       2.619  15.694  18.911  0.00  0.00    +0.000 A 
ATOM      9  S   UNL     1       4.136  16.346  18.619  0.00  0.00    +0.000 S 
ATOM     10  N   UNL     1       2.551  14.416  19.380  0.00  0.00    +0.000 N 
ATOM     11  C   UNL     1       1.379  13.739  19.501  0.00  0.00    +0.000 A 
ATOM     12  O   UNL     1       1.541  12.401  19.755  0.00  0.00    +0.000 OA
ATOM     13  H   UNL     1      -1.581  15.993  18.083  0.00  0.00    +0.000 HD
ATOM     14  H   UNL     1      -0.520  17.296  17.966  0.00  0.00    +0.000 HD
ATOM     15  H   UNL     1       3.425  13.921  19.536  0.00  0.00    +0.000 HD
ENDROOT
BRANCH   3  16
ATOM     16  C   UNL     1      -2.060  13.520  20.397  0.00  0.00    +0.000 A 
ATOM     17  C   UNL     1      -3.405  13.875  20.192  0.00  0.00    +0.000 A 
ATOM     18  N   UNL     1      -3.445  14.844  21.217  0.00  0.00    +0.000 N 
ATOM     19  C   UNL     1      -3.027  14.145  22.348  0.00  0.00    +0.000 A 
ATOM     20  C   UNL     1      -3.492  14.257  23.659  0.00  0.00    +0.000 A 
ATOM     21  C   UNL     1      -3.558  13.057  24.355  0.00  0.00    +0.000 A 
ATOM     22  C   UNL     1      -3.026  11.893  23.794  0.00  0.00    +0.000 A 
ATOM     23  C   UNL     1      -2.273  11.909  22.580  0.00  0.00    +0.000 A 
ATOM     24  C   UNL     1      -2.239  13.107  21.808  0.00  0.00    +0.000 A 
ATOM     25  H   UNL     1      -3.095  15.780  21.088  0.00  0.00    +0.000 HD
BRANCH  17  26
ATOM     26  C   UNL     1      -4.442  12.811  20.002  0.00  0.00    +0.000 A 
ATOM     27  C   UNL     1      -5.544  12.744  20.893  0.00  0.00    +0.000 A 
ATOM     28  C   UNL     1      -6.621  11.895  20.680  0.00  0.00    +0.000 A 
ATOM     29  C   UNL     1      -6.598  11.061  19.578  0.00  0.00    +0.000 A 
ATOM     30  C   UNL     1      -5.500  11.087  18.706  0.00  0.00    +0.000 A 
ATOM     31  C   UNL     1      -4.426  11.960  18.908  0.00  0.00    +0.000 A 
ENDBRANCH  17  26
ENDBRANCH   3  16
BRANCH   1  36
ATOM     32  C   UNL     1       2.778   6.187  19.693  0.00  0.00    +0.000 C 
ATOM     33  C   UNL     1       2.102   7.522  19.564  0.00  0.00    +0.000 A 
ATOM     34  C   UNL     1       2.130   8.239  18.363  0.00  0.00    +0.000 A 
ATOM     35  C   UNL     1       1.561   9.518  18.278  0.00  0.00    +0.000 A 
ATOM     36  C   UNL     1       0.954  10.117  19.399  0.00  0.00    +0.000 A 
ATOM     37  C   UNL     1       0.902   9.381  20.583  0.00  0.00    +0.000 A 
ATOM     38  C   UNL     1       1.471   8.097  20.670  0.00  0.00    +0.000 A 
ENDBRANCH   1  36
TORSDOF 3
ENDMDL
MODEL 2
REMARK VINA RESULT:      -8.1      6.151     11.507
REMARK  Name = 
REMARK  4 active torsions:
REMARK  status: ('A' for Active; 'I' for Inactive)
REMARK    1  A    between atoms: C_1  and  C_2
REMARK    2  A    between atoms: C_5  and  C_6
REMARK    3  A    between atoms: C_8  and  C_9
REMARK    4  A    between atoms: C_10  and  C_11
REMARK                            x       y       z     vdW  Elec       q    Type
REMARK                         _______ _______ _______ _____ _____    ______ ____
ROOT
ATOM      1  C   UNL     1       2.091   6.843  19.520  0.00  0.00    +0.000 C 
ATOM      2  C   UNL     1       2.596   6.351  18.367  0.00  0.00    +0.000 C 
ATOM      3  C   UNL     1       3.353   4.992  18.287  0.00  0.00    +0.000 C 
ATOM      4  C   UNL     1       2.915   4.173  19.489  0.00  0.00    +0.000 A 
ATOM      5  C   UNL     1       2.844   2.690  19.496  0.00  0.00    +0.000 A 
ATOM      6  N   UNL     1       3.377   1.936  18.490  0.00  0.00    +0.000 N 
ATOM      7  N   UNL     1       2.252   1.993  20.430  0.00  0.00    +0.000 NA
ATOM      8  C   UNL     1       1.644   2.631  21.479  0.00  0.00    +0.000 A 
ATOM      9  S   UNL     1       0.745   1.851  22.660  0.00  0.00    +0.000 S 
ATOM     10  N   UNL     1       1.732   3.989  21.535  0.00  0.00    +0.000 N 
ATOM     11  C   UNL     1       2.300   4.730  20.547  0.00  0.00    +0.000 A 
ATOM     12  O   UNL     1       2.076   6.078  20.672  0.00  0.00    +0.000 OA
ATOM     13  H   UNL     1       3.359   2.323  17.557  0.00  0.00    +0.000 HD
ATOM     14  H   UNL     1       3.013   0.987  18.523  0.00  0.00    +0.000 HD
ATOM     15  H   UNL     1       1.254   4.466  22.294  0.00  0.00    +0.000 HD
ENDROOT
BRANCH   3  16
ATOM     16  C   UNL     1       4.843   5.350  18.133  0.00  0.00    +0.000 A 
ATOM     17  C   UNL     1       5.733   4.377  17.646  0.00  0.00    +0.000 A 
ATOM     18  N   UNL     1       6.671   4.518  18.692  0.00  0.00    +0.000 N 
ATOM     19  C   UNL     1       6.978   5.876  18.678  0.00  0.00    +0.000 A 
ATOM     20  C   UNL     1       8.213   6.489  18.896  0.00  0.00    +0.000 A 
ATOM     21  C   UNL     1       8.456   7.602  18.101  0.00  0.00    +0.000 A 
ATOM     22  C   UNL     1       7.441   8.119  17.293  0.00  0.00    +0.000 A 
ATOM     23  C   UNL     1       6.097   7.638  17.358  0.00  0.00    +0.000 A 
ATOM     24  C   UNL     1       5.825   6.459  18.111  0.00  0.00    +0.000 A 
ATOM     25  H   UNL     1       6.549   4.073  19.588  0.00  0.00    +0.000 HD
BRANCH  17  26
ATOM     26  C   UNL     1       6.096   4.350  16.193  0.00  0.00    +0.000 A 
ATOM     27  C   UNL     1       5.093   4.072  15.228  0.00  0.00    +0.000 A 
ATOM     28  C   UNL     1       5.321   4.193  13.864  0.00  0.00    +0.000 A 
ATOM     29  C   UNL     1       6.583   4.562  13.435  0.00  0.00    +0.000 A 
ATOM     30  C   UNL     1       7.596   4.804  14.373  0.00  0.00    +0.000 A 
ATOM     31  C   UNL     1       7.359   4.705  15.747  0.00  0.00    +0.000 A 
ENDBRANCH  17  26
ENDBRANCH   3  16
BRANCH   1  36
ATOM     32  C   UNL     1      -0.648  11.934  20.161  0.00  0.00    +0.000 C 
ATOM     33  C   UNL     1       0.159  10.675  20.021  0.00  0.00    +0.000 A 
ATOM     34  C   UNL     1       0.783  10.340  18.814  0.00  0.00    +0.000 A 
ATOM     35  C   UNL     1       1.467   9.124  18.674  0.00  0.00    +0.000 A 
ATOM     36  C   UNL     1       1.538   8.205  19.740  0.00  0.00    +0.000 A 
ATOM     37  C   UNL     1       0.941   8.562  20.949  0.00  0.00    +0.000 A 
ATOM     38  C   UNL     1       0.255   9.782  21.092  0.00  0.00    +0.000 A 
ENDBRANCH   1  36
TORSDOF 3
ENDMDL
MODEL 3
REMARK VINA RESULT:      -7.9      2.088      5.992
REMARK  Name = 
REMARK  4 active torsions:
REMARK  status: ('A' for Active; 'I' for Inactive)
REMARK    1  A    between atoms: C_1  and  C_2
REMARK    2  A    between atoms: C_5  and  C_6
REMARK    3  A    between atoms: C_8  and  C_9
REMARK    4  A    between atoms: C_10  and  C_11
REMARK                            x       y       z     vdW  Elec       q    Type
REMARK                         _______ _______ _______ _____ _____    ______ ____
ROOT
ATOM      1  C   UNL     1      -1.844  13.581  21.489  0.00  0.00    +0.000 C 
ATOM      2  C   UNL     1      -0.674  12.976  21.791  0.00  0.00    +0.000 C 
ATOM      3  C   UNL     1       0.540  12.948  20.814  0.00  0.00    +0.000 C 
ATOM      4  C   UNL     1       0.359  14.113  19.855  0.00  0.00    +0.000 A 
ATOM      5  C   UNL     1       1.486  14.847  19.227  0.00  0.00    +0.000 A 
ATOM      6  N   UNL     1       2.772  14.391  19.293  0.00  0.00    +0.000 N 
ATOM      7  N   UNL     1       1.354  15.984  18.596  0.00  0.00    +0.000 NA
ATOM      8  C   UNL     1       0.120  16.569  18.491  0.00  0.00    +0.000 A 
ATOM      9  S   UNL     1      -0.150  18.083  17.823  0.00  0.00    +0.000 S 
ATOM     10  N   UNL     1      -0.948  15.900  19.010  0.00  0.00    +0.000 N 
ATOM     11  C   UNL     1      -0.820  14.743  19.712  0.00  0.00    +0.000 A 
ATOM     12  O   UNL     1      -1.970  14.358  20.352  0.00  0.00    +0.000 OA
ATOM     13  H   UNL     1       3.048  13.892  20.126  0.00  0.00    +0.000 HD
ATOM     14  H   UNL     1       3.426  15.131  19.049  0.00  0.00    +0.000 HD
ATOM     15  H   UNL     1      -1.859  16.348  18.962  0.00  0.00    +0.000 HD
ENDROOT
BRANCH   3  16
ATOM     16  C   UNL     1       0.589  11.517  20.247  0.00  0.00    +0.000 A 
ATOM     17  C   UNL     1      -0.597  10.765  20.186  0.00  0.00    +0.000 A 
ATOM     18  N   UNL     1      -0.068   9.628  20.833  0.00  0.00    +0.000 N 
ATOM     19  C   UNL     1       1.054   9.307  20.072  0.00  0.00    +0.000 A 
ATOM     20  C   UNL     1       1.538   8.043  19.730  0.00  0.00    +0.000 A 
ATOM     21  C   UNL     1       2.067   7.952  18.448  0.00  0.00    +0.000 A 
ATOM     22  C   UNL     1       2.230   9.105  17.676  0.00  0.00    +0.000 A 
ATOM     23  C   UNL     1       2.012  10.413  18.207  0.00  0.00    +0.000 A 
ATOM     24  C   UNL     1       1.410  10.543  19.492  0.00  0.00    +0.000 A 
ATOM     25  H   UNL     1       0.013   9.567  21.836  0.00  0.00    +0.000 HD
BRANCH  17  26
ATOM     26  C   UNL     1      -1.390  10.714  18.916  0.00  0.00    +0.000 A 
ATOM     27  C   UNL     1      -2.229   9.599  18.661  0.00  0.00    +0.000 A 
ATOM     28  C   UNL     1      -3.112   9.562  17.591  0.00  0.00    +0.000 A 
ATOM     29  C   UNL     1      -3.144  10.638  16.724  0.00  0.00    +0.000 A 
ATOM     30  C   UNL     1      -2.296  11.733  16.938  0.00  0.00    +0.000 A 
ATOM     31  C   UNL     1      -1.423  11.780  18.030  0.00  0.00    +0.000 A 
ENDBRANCH  17  26
ENDBRANCH   3  16
BRANCH   1  36
ATOM     32  C   UNL     1      -6.922  12.658  24.173  0.00  0.00    +0.000 C 
ATOM     33  C   UNL     1      -5.609  13.002  23.529  0.00  0.00    +0.000 A 
ATOM     34  C   UNL     1      -5.553  13.689  22.312  0.00  0.00    +0.000 A 
ATOM     35  C   UNL     1      -4.324  13.934  21.684  0.00  0.00    +0.000 A 
ATOM     36  C   UNL     1      -3.115  13.491  22.256  0.00  0.00    +0.000 A 
ATOM     37  C   UNL     1      -3.179  12.836  23.486  0.00  0.00    +0.000 A 
ATOM     38  C   UNL     1      -4.411  12.589  24.118  0.00  0.00    +0.000 A 
ENDBRANCH   1  36
TORSDOF 3
ENDMDL
MODEL 4
REMARK VINA RESULT:      -7.8      3.018      4.922
REMARK  Name = 
REMARK  4 active torsions:
REMARK  status: ('A' for Active; 'I' for Inactive)
REMARK    1  A    between atoms: C_1  and  C_2
REMARK    2  A    between atoms: C_5  and  C_6
REMARK    3  A    between atoms: C_8  and  C_9
REMARK    4  A    between atoms: C_10  and  C_11
REMARK                            x       y       z     vdW  Elec       q    Type
REMARK                         _______ _______ _______ _____ _____    ______ ____
ROOT
ATOM      1  C   UNL     1      -0.126   9.810  18.763  0.00  0.00    +0.000 C 
ATOM      2  C   UNL     1      -0.827  10.395  19.759  0.00  0.00    +0.000 C 
ATOM      3  C   UNL     1      -1.897  11.498  19.504  0.00  0.00    +0.000 C 
ATOM      4  C   UNL     1      -2.354  11.343  18.063  0.00  0.00    +0.000 A 
ATOM      5  C   UNL     1      -3.718  11.689  17.589  0.00  0.00    +0.000 A 
ATOM      6  N   UNL     1      -4.602  12.379  18.368  0.00  0.00    +0.000 N 
ATOM      7  N   UNL     1      -4.192  11.344  16.421  0.00  0.00    +0.000 NA
ATOM      8  C   UNL     1      -3.419  10.615  15.556  0.00  0.00    +0.000 A 
ATOM      9  S   UNL     1      -3.963  10.006  14.091  0.00  0.00    +0.000 S 
ATOM     10  N   UNL     1      -2.143  10.323  15.935  0.00  0.00    +0.000 N 
ATOM     11  C   UNL     1      -1.653  10.631  17.165  0.00  0.00    +0.000 A 
ATOM     12  O   UNL     1      -0.443  10.045  17.437  0.00  0.00    +0.000 OA
ATOM     13  H   UNL     1      -4.564  12.224  19.365  0.00  0.00    +0.000 HD
ATOM     14  H   UNL     1      -5.546  12.295  17.998  0.00  0.00    +0.000 HD
ATOM     15  H   UNL     1      -1.579   9.755  15.308  0.00  0.00    +0.000 HD
ENDROOT
BRANCH   3  16
ATOM     16  C   UNL     1      -1.246  12.824  19.940  0.00  0.00    +0.000 A 
ATOM     17  C   UNL     1      -2.064  13.863  20.415  0.00  0.00    +0.000 A 
ATOM     18  N   UNL     1      -1.531  14.853  19.561  0.00  0.00    +0.000 N 
ATOM     19  C   UNL     1      -0.163  14.809  19.819  0.00  0.00    +0.000 A 
ATOM     20  C   UNL     1       0.741  15.871  19.889  0.00  0.00    +0.000 A 
ATOM     21  C   UNL     1       1.720  15.735  20.865  0.00  0.00    +0.000 A 
ATOM     22  C   UNL     1       1.843  14.535  21.570  0.00  0.00    +0.000 A 
ATOM     23  C   UNL     1       1.090  13.370  21.226  0.00  0.00    +0.000 A 
ATOM     24  C   UNL     1       0.034  13.489  20.276  0.00  0.00    +0.000 A 
ATOM     25  H   UNL     1      -1.824  14.952  18.601  0.00  0.00    +0.000 HD
BRANCH  17  26
ATOM     26  C   UNL     1      -2.267  14.048  21.887  0.00  0.00    +0.000 A 
ATOM     27  C   UNL     1      -2.188  15.350  22.445  0.00  0.00    +0.000 A 
ATOM     28  C   UNL     1      -2.527  15.615  23.765  0.00  0.00    +0.000 A 
ATOM     29  C   UNL     1      -2.920  14.562  24.570  0.00  0.00    +0.000 A 
ATOM     30  C   UNL     1      -2.970  13.263  24.046  0.00  0.00    +0.000 A 
ATOM     31  C   UNL     1      -2.651  13.001  22.710  0.00  0.00    +0.000 A 
ENDBRANCH  17  26
ENDBRANCH   3  16
BRANCH   1  36
ATOM     32  C   UNL     1       4.062   5.790  19.133  0.00  0.00    +0.000 C 
ATOM     33  C   UNL     1       3.054   6.902  19.089  0.00  0.00    +0.000 A 
ATOM     34  C   UNL     1       2.203   7.157  20.170  0.00  0.00    +0.000 A 
ATOM     35  C   UNL     1       1.214   8.147  20.086  0.00  0.00    +0.000 A 
ATOM     36  C   UNL     1       1.046   8.906  18.911  0.00  0.00    +0.000 A 
ATOM     37  C   UNL     1       1.920   8.667  17.850  0.00  0.00    +0.000 A 
ATOM     38  C   UNL     1       2.914   7.674  17.934  0.00  0.00    +0.000 A 
ENDBRANCH   1  36
TORSDOF 3
ENDMDL
MODEL 5
REMARK VINA RESULT:      -7.8      3.331      7.460
REMARK  Name = 
REMARK  4 active torsions:
REMARK  status: ('A' for Active; 'I' for Inactive)
REMARK    1  A    between atoms: C_1  and  C_2
REMARK    2  A    between atoms: C_5  and  C_6
REMARK    3  A    between atoms: C_8  and  C_9
REMARK    4  A    between atoms: C_10  and  C_11
REMARK                            x       y       z     vdW  Elec       q    Type
REMARK                         _______ _______ _______ _____ _____    ______ ____
ROOT
ATOM      1  C   UNL     1      -2.421  14.272  22.150  0.00  0.00    +0.000 C 
ATOM      2  C   UNL     1      -1.922  14.414  20.902  0.00  0.00    +0.000 C 
ATOM      3  C   UNL     1      -2.238  13.419  19.746  0.00  0.00    +0.000 C 
ATOM      4  C   UNL     1      -3.535  12.716  20.114  0.00  0.00    +0.000 A 
ATOM      5  C   UNL     1      -4.513  12.215  19.116  0.00  0.00    +0.000 A 
ATOM      6  N   UNL     1      -4.220  12.153  17.784  0.00  0.00    +0.000 N 
ATOM      7  N   UNL     1      -5.725  11.827  19.415  0.00  0.00    +0.000 NA
ATOM      8  C   UNL     1      -6.158  11.876  20.714  0.00  0.00    +0.000 A 
ATOM      9  S   UNL     1      -7.727  11.530  21.197  0.00  0.00    +0.000 S 
ATOM     10  N   UNL     1      -5.272  12.280  21.666  0.00  0.00    +0.000 N 
ATOM     11  C   UNL     1      -4.026  12.734  21.365  0.00  0.00    +0.000 A 
ATOM     12  O   UNL     1      -3.382  13.317  22.426  0.00  0.00    +0.000 OA
ATOM     13  H   UNL     1      -3.608  12.862  17.407  0.00  0.00    +0.000 HD
ATOM     14  H   UNL     1      -5.070  12.043  17.236  0.00  0.00    +0.000 HD
ATOM     15  H   UNL     1      -5.601  12.348  22.625  0.00  0.00    +0.000 HD
ENDROOT
BRANCH   3  16
ATOM     16  C   UNL     1      -0.963  12.576  19.557  0.00  0.00    +0.000 A 
ATOM     17  C   UNL     1      -0.050  12.471  20.621  0.00  0.00    +0.000 A 
ATOM     18  N   UNL     1       1.084  12.831  19.861  0.00  0.00    +0.000 N 
ATOM     19  C   UNL     1       1.071  11.927  18.802  0.00  0.00    +0.000 A 
ATOM     20  C   UNL     1       2.154  11.300  18.183  0.00  0.00    +0.000 A 
ATOM     21  C   UNL     1       1.922   9.985  17.800  0.00  0.00    +0.000 A 
ATOM     22  C   UNL     1       0.637   9.445  17.896  0.00  0.00    +0.000 A 
ATOM     23  C   UNL     1      -0.499  10.242  18.238  0.00  0.00    +0.000 A 
ATOM     24  C   UNL     1      -0.291  11.575  18.698  0.00  0.00    +0.000 A 
ATOM     25  H   UNL     1       1.312  13.791  19.655  0.00  0.00    +0.000 HD
BRANCH  17  26
ATOM     26  C   UNL     1      -0.102  11.290  21.541  0.00  0.00    +0.000 A 
ATOM     27  C   UNL     1       0.946  10.334  21.509  0.00  0.00    +0.000 A 
ATOM     28  C   UNL     1       1.047   9.310  22.441  0.00  0.00    +0.000 A 
ATOM     29  C   UNL     1       0.068   9.202  23.412  0.00  0.00    +0.000 A 
ATOM     30  C   UNL     1      -0.994  10.116  23.437  0.00  0.00    +0.000 A 
ATOM     31  C   UNL     1      -1.082  11.160  22.512  0.00  0.00    +0.000 A 
ENDBRANCH  17  26
ENDBRANCH   3  16
BRANCH   1  36
ATOM     32  C   UNL     1      -0.439  16.790  27.005  0.00  0.00    +0.000 C 
ATOM     33  C   UNL     1      -1.032  16.222  25.747  0.00  0.00    +0.000 A 
ATOM     34  C   UNL     1      -2.105  15.325  25.788  0.00  0.00    +0.000 A 
ATOM     35  C   UNL     1      -2.598  14.744  24.611  0.00  0.00    +0.000 A 
ATOM     36  C   UNL     1      -2.023  15.040  23.359  0.00  0.00    +0.000 A 
ATOM     37  C   UNL     1      -0.976  15.961  23.325  0.00  0.00    +0.000 A 
ATOM     38  C   UNL     1      -0.480  16.547  24.505  0.00  0.00    +0.000 A 
ENDBRANCH   1  36
TORSDOF 3
ENDMDL
MODEL 6
REMARK VINA RESULT:      -7.7      1.773      3.481
REMARK  Name = 
REMARK  4 active torsions:
REMARK  status: ('A' for Active; 'I' for Inactive)
REMARK    1  A    between atoms: C_1  and  C_2
REMARK    2  A    between atoms: C_5  and  C_6
REMARK    3  A    between atoms: C_8  and  C_9
REMARK    4  A    between atoms: C_10  and  C_11
REMARK                            x       y       z     vdW  Elec       q    Type
REMARK                         _______ _______ _______ _____ _____    ______ ____
ROOT
ATOM      1  C   UNL     1       0.546  11.217  19.486  0.00  0.00    +0.000 C 
ATOM      2  C   UNL     1      -0.740  11.633  19.453  0.00  0.00    +0.000 C 
ATOM      3  C   UNL     1      -1.161  13.102  19.753  0.00  0.00    +0.000 C 
ATOM      4  C   UNL     1       0.064  13.969  19.511  0.00  0.00    +0.000 A 
ATOM      5  C   UNL     1      -0.002  15.379  19.051  0.00  0.00    +0.000 A 
ATOM      6  N   UNL     1      -1.176  16.076  19.019  0.00  0.00    +0.000 N 
ATOM      7  N   UNL     1       1.031  16.052  18.618  0.00  0.00    +0.000 NA
ATOM      8  C   UNL     1       2.264  15.456  18.564  0.00  0.00    +0.000 A 
ATOM      9  S   UNL     1       3.629  16.175  17.906  0.00  0.00    +0.000 S 
ATOM     10  N   UNL     1       2.374  14.179  19.026  0.00  0.00    +0.000 N 
ATOM     11  C   UNL     1       1.301  13.450  19.432  0.00  0.00    +0.000 A 
ATOM     12  O   UNL     1       1.582  12.122  19.629  0.00  0.00    +0.000 OA
ATOM     13  H   UNL     1      -2.019  15.560  18.814  0.00  0.00    +0.000 HD
ATOM     14  H   UNL     1      -1.081  16.909  18.443  0.00  0.00    +0.000 HD
ATOM     15  H   UNL     1       3.280  13.725  18.956  0.00  0.00    +0.000 HD
ENDROOT
BRANCH   3  16
ATOM     16  C   UNL     1      -1.791  13.079  21.158  0.00  0.00    +0.000 A 
ATOM     17  C   UNL     1      -0.954  13.172  22.283  0.00  0.00    +0.000 A 
ATOM     18  N   UNL     1      -1.489  12.043  22.941  0.00  0.00    +0.000 N 
ATOM     19  C   UNL     1      -2.853  12.315  23.007  0.00  0.00    +0.000 A 
ATOM     20  C   UNL     1      -3.744  12.037  24.045  0.00  0.00    +0.000 A 
ATOM     21  C   UNL     1      -4.711  13.013  24.256  0.00  0.00    +0.000 A 
ATOM     22  C   UNL     1      -4.836  14.078  23.361  0.00  0.00    +0.000 A 
ATOM     23  C   UNL     1      -4.101  14.134  22.137  0.00  0.00    +0.000 A 
ATOM     24  C   UNL     1      -3.058  13.187  21.917  0.00  0.00    +0.000 A 
ATOM     25  H   UNL     1      -1.209  11.102  22.711  0.00  0.00    +0.000 HD
BRANCH  17  26
ATOM     26  C   UNL     1      -0.727  14.497  22.944  0.00  0.00    +0.000 A 
ATOM     27  C   UNL     1      -1.238  14.724  24.248  0.00  0.00    +0.000 A 
ATOM     28  C   UNL     1      -0.925  15.860  24.982  0.00  0.00    +0.000 A 
ATOM     29  C   UNL     1      -0.117  16.819  24.401  0.00  0.00    +0.000 A 
ATOM     30  C   UNL     1       0.368  16.630  23.100  0.00  0.00    +0.000 A 
ATOM     31  C   UNL     1       0.071  15.474  22.370  0.00  0.00    +0.000 A 
ENDBRANCH  17  26
ENDBRANCH   3  16
BRANCH   1  36
ATOM     32  C   UNL     1       3.030   5.959  19.366  0.00  0.00    +0.000 C 
ATOM     33  C   UNL     1       2.292   7.267  19.356  0.00  0.00    +0.000 A 
ATOM     34  C   UNL     1       2.239   8.064  18.207  0.00  0.00    +0.000 A 
ATOM     35  C   UNL     1       1.613   9.318  18.234  0.00  0.00    +0.000 A 
ATOM     36  C   UNL     1       1.028   9.812  19.417  0.00  0.00    +0.000 A 
ATOM     37  C   UNL     1       1.058   8.996  20.548  0.00  0.00    +0.000 A 
ATOM     38  C   UNL     1       1.685   7.736  20.523  0.00  0.00    +0.000 A 
ENDBRANCH   1  36
TORSDOF 3
ENDMDL
MODEL 7
REMARK VINA RESULT:      -7.7      3.325      5.590
REMARK  Name = 
REMARK  4 active torsions:
REMARK  status: ('A' for Active; 'I' for Inactive)
REMARK    1  A    between atoms: C_1  and  C_2
REMARK    2  A    between atoms: C_5  and  C_6
REMARK    3  A    between atoms: C_8  and  C_9
REMARK    4  A    between atoms: C_10  and  C_11
REMARK                            x       y       z     vdW  Elec       q    Type
REMARK                         _______ _______ _______ _____ _____    ______ ____
ROOT
ATOM      1  C   UNL     1       1.054   9.453  18.886  0.00  0.00    +0.000 C 
ATOM      2  C   UNL     1       0.819  10.310  19.905  0.00  0.00    +0.000 C 
ATOM      3  C   UNL     1      -0.072  11.578  19.755  0.00  0.00    +0.000 C 
ATOM      4  C   UNL     1      -0.986  11.336  18.566  0.00  0.00    +0.000 A 
ATOM      5  C   UNL     1      -2.350  11.909  18.443  0.00  0.00    +0.000 A 
ATOM      6  N   UNL     1      -2.806  12.878  19.291  0.00  0.00    +0.000 N 
ATOM      7  N   UNL     1      -3.225  11.524  17.553  0.00  0.00    +0.000 NA
ATOM      8  C   UNL     1      -2.907  10.530  16.665  0.00  0.00    +0.000 A 
ATOM      9  S   UNL     1      -3.987   9.865  15.569  0.00  0.00    +0.000 S 
ATOM     10  N   UNL     1      -1.646  10.015  16.712  0.00  0.00    +0.000 N 
ATOM     11  C   UNL     1      -0.742  10.370  17.663  0.00  0.00    +0.000 A 
ATOM     12  O   UNL     1       0.372   9.571  17.688  0.00  0.00    +0.000 OA
ATOM     13  H   UNL     1      -2.477  12.856  20.245  0.00  0.00    +0.000 HD
ATOM     14  H   UNL     1      -3.818  12.957  19.231  0.00  0.00    +0.000 HD
ATOM     15  H   UNL     1      -1.419   9.256  16.075  0.00  0.00    +0.000 HD
ENDROOT
BRANCH   3  16
ATOM     16  C   UNL     1       0.901  12.772  19.714  0.00  0.00    +0.000 A 
ATOM     17  C   UNL     1       0.714  13.773  18.745  0.00  0.00    +0.000 A 
ATOM     18  N   UNL     1       2.045  13.751  18.272  0.00  0.00    +0.000 N 
ATOM     19  C   UNL     1       2.806  13.962  19.419  0.00  0.00    +0.000 A 
ATOM     20  C   UNL     1       3.975  14.712  19.559  0.00  0.00    +0.000 A 
ATOM     21  C   UNL     1       4.076  15.410  20.756  0.00  0.00    +0.000 A 
ATOM     22  C   UNL     1       3.136  15.203  21.768  0.00  0.00    +0.000 A 
ATOM     23  C   UNL     1       2.142  14.180  21.685  0.00  0.00    +0.000 A 
ATOM     24  C   UNL     1       1.967  13.489  20.450  0.00  0.00    +0.000 A 
ATOM     25  H   UNL     1       2.371  13.061  17.613  0.00  0.00    +0.000 HD
BRANCH  17  26
ATOM     26  C   UNL     1      -0.031  15.024  19.091  0.00  0.00    +0.000 A 
ATOM     27  C   UNL     1       0.050  16.147  18.227  0.00  0.00    +0.000 A 
ATOM     28  C   UNL     1      -0.741  17.275  18.398  0.00  0.00    +0.000 A 
ATOM     29  C   UNL     1      -1.611  17.316  19.472  0.00  0.00    +0.000 A 
ATOM     30  C   UNL     1      -1.678  16.231  20.357  0.00  0.00    +0.000 A 
ATOM     31  C   UNL     1      -0.898  15.085  20.170  0.00  0.00    +0.000 A 
ENDBRANCH  17  26
ENDBRANCH   3  16
BRANCH   1  36
ATOM     32  C   UNL     1       4.438   4.736  18.526  0.00  0.00    +0.000 C 
ATOM     33  C   UNL     1       3.648   6.004  18.682  0.00  0.00    +0.000 A 
ATOM     34  C   UNL     1       2.828   6.218  19.796  0.00  0.00    +0.000 A 
ATOM     35  C   UNL     1       2.037   7.371  19.891  0.00  0.00    +0.000 A 
ATOM     36  C   UNL     1       2.039   8.340  18.868  0.00  0.00    +0.000 A 
ATOM     37  C   UNL     1       2.883   8.133  17.777  0.00  0.00    +0.000 A 
ATOM     38  C   UNL     1       3.680   6.976  17.680  0.00  0.00    +0.000 A 
ENDBRANCH   1  36
TORSDOF 3
ENDMDL
MODEL 8
REMARK VINA RESULT:      -7.7      2.233      6.184
REMARK  Name = 
REMARK  4 active torsions:
REMARK  status: ('A' for Active; 'I' for Inactive)
REMARK    1  A    between atoms: C_1  and  C_2
REMARK    2  A    between atoms: C_5  and  C_6
REMARK    3  A    between atoms: C_8  and  C_9
REMARK    4  A    between atoms: C_10  and  C_11
REMARK                            x       y       z     vdW  Elec       q    Type
REMARK                         _______ _______ _______ _____ _____    ______ ____
ROOT
ATOM      1  C   UNL     1      -2.294  13.351  21.605  0.00  0.00    +0.000 C 
ATOM      2  C   UNL     1      -1.119  12.771  21.937  0.00  0.00    +0.000 C 
ATOM      3  C   UNL     1       0.167  12.911  21.070  0.00  0.00    +0.000 C 
ATOM      4  C   UNL     1      -0.002  14.167  20.231  0.00  0.00    +0.000 A 
ATOM      5  C   UNL     1       1.129  15.019  19.784  0.00  0.00    +0.000 A 
ATOM      6  N   UNL     1       2.428  14.619  19.908  0.00  0.00    +0.000 N 
ATOM      7  N   UNL     1       0.983  16.212  19.271  0.00  0.00    +0.000 NA
ATOM      8  C   UNL     1      -0.270  16.747  19.126  0.00  0.00    +0.000 A 
ATOM      9  S   UNL     1      -0.570  18.313  18.606  0.00  0.00    +0.000 S 
ATOM     10  N   UNL     1      -1.336  15.975  19.477  0.00  0.00    +0.000 N 
ATOM     11  C   UNL     1      -1.199  14.753  20.058  0.00  0.00    +0.000 A 
ATOM     12  O   UNL     1      -2.373  14.245  20.553  0.00  0.00    +0.000 OA
ATOM     13  H   UNL     1       2.666  14.043  20.702  0.00  0.00    +0.000 HD
ATOM     14  H   UNL     1       3.057  15.411  19.802  0.00  0.00    +0.000 HD
ATOM     15  H   UNL     1      -2.264  16.382  19.401  0.00  0.00    +0.000 HD
ENDROOT
BRANCH   3  16
ATOM     16  C   UNL     1       0.341  11.557  20.357  0.00  0.00    +0.000 A 
ATOM     17  C   UNL     1      -0.785  10.739  20.161  0.00  0.00    +0.000 A 
ATOM     18  N   UNL     1      -0.201   9.575  20.708  0.00  0.00    +0.000 N 
ATOM     19  C   UNL     1       0.969   9.416  19.970  0.00  0.00    +0.000 A 
ATOM     20  C   UNL     1       1.556   8.232  19.518  0.00  0.00    +0.000 A 
ATOM     21  C   UNL     1       2.139   8.317  18.260  0.00  0.00    +0.000 A 
ATOM     22  C   UNL     1       2.249   9.555  17.623  0.00  0.00    +0.000 A 
ATOM     23  C   UNL     1       1.918  10.780  18.279  0.00  0.00    +0.000 A 
ATOM     24  C   UNL     1       1.259  10.728  19.542  0.00  0.00    +0.000 A 
ATOM     25  H   UNL     1      -0.155   9.411  21.701  0.00  0.00    +0.000 HD
BRANCH  17  26
ATOM     26  C   UNL     1      -1.522  10.773  18.858  0.00  0.00    +0.000 A 
ATOM     27  C   UNL     1      -1.275   9.766  17.889  0.00  0.00    +0.000 A 
ATOM     28  C   UNL     1      -2.037   9.642  16.735  0.00  0.00    +0.000 A 
ATOM     29  C   UNL     1      -3.048  10.558  16.509  0.00  0.00    +0.000 A 
ATOM     30  C   UNL     1      -3.283  11.581  17.437  0.00  0.00    +0.000 A 
ATOM     31  C   UNL     1      -2.530  11.692  18.611  0.00  0.00    +0.000 A 
ENDBRANCH  17  26
ENDBRANCH   3  16
BRANCH   1  36
ATOM     32  C   UNL     1      -7.452  13.072  24.279  0.00  0.00    +0.000 C 
ATOM     33  C   UNL     1      -6.125  13.029  23.578  0.00  0.00    +0.000 A 
ATOM     34  C   UNL     1      -4.936  12.809  24.283  0.00  0.00    +0.000 A 
ATOM     35  C   UNL     1      -3.697  12.848  23.628  0.00  0.00    +0.000 A 
ATOM     36  C   UNL     1      -3.614  13.116  22.247  0.00  0.00    +0.000 A 
ATOM     37  C   UNL     1      -4.807  13.302  21.547  0.00  0.00    +0.000 A 
ATOM     38  C   UNL     1      -6.052  13.262  22.203  0.00  0.00    +0.000 A 
ENDBRANCH   1  36
TORSDOF 3
ENDMDL
MODEL 9
REMARK VINA RESULT:      -7.7      3.203      5.448
REMARK  Name = 
REMARK  4 active torsions:
REMARK  status: ('A' for Active; 'I' for Inactive)
REMARK    1  A    between atoms: C_1  and  C_2
REMARK    2  A    between atoms: C_5  and  C_6
REMARK    3  A    between atoms: C_8  and  C_9
REMARK    4  A    between atoms: C_10  and  C_11
REMARK                            x       y       z     vdW  Elec       q    Type
REMARK                         _______ _______ _______ _____ _____    ______ ____
ROOT
ATOM      1  C   UNL     1       0.000   9.720  19.175  0.00  0.00    +0.000 C 
ATOM      2  C   UNL     1      -0.703  10.231  20.210  0.00  0.00    +0.000 C 
ATOM      3  C   UNL     1      -1.752  11.370  20.039  0.00  0.00    +0.000 C 
ATOM      4  C   UNL     1      -2.196  11.345  18.586  0.00  0.00    +0.000 A 
ATOM      5  C   UNL     1      -3.549  11.752  18.130  0.00  0.00    +0.000 A 
ATOM      6  N   UNL     1      -4.429  12.389  18.956  0.00  0.00    +0.000 N 
ATOM      7  N   UNL     1      -4.015  11.515  16.932  0.00  0.00    +0.000 NA
ATOM      8  C   UNL     1      -3.245  10.849  16.016  0.00  0.00    +0.000 A 
ATOM      9  S   UNL     1      -3.783  10.374  14.501  0.00  0.00    +0.000 S 
ATOM     10  N   UNL     1      -1.978  10.504  16.381  0.00  0.00    +0.000 N 
ATOM     11  C   UNL     1      -1.496  10.699  17.637  0.00  0.00    +0.000 A 
ATOM     12  O   UNL     1      -0.299  10.071  17.871  0.00  0.00    +0.000 OA
ATOM     13  H   UNL     1      -4.405  12.151  19.937  0.00  0.00    +0.000 HD
ATOM     14  H   UNL     1      -5.370  12.353  18.571  0.00  0.00    +0.000 HD
ATOM     15  H   UNL     1      -1.417   9.981  15.715  0.00  0.00    +0.000 HD
ENDROOT
BRANCH   3  16
ATOM     16  C   UNL     1      -1.084  12.643  20.592  0.00  0.00    +0.000 A 
ATOM     17  C   UNL     1       0.235  12.567  21.073  0.00  0.00    +0.000 A 
ATOM     18  N   UNL     1      -0.040  13.185  22.313  0.00  0.00    +0.000 N 
ATOM     19  C   UNL     1      -0.631  14.394  21.955  0.00  0.00    +0.000 A 
ATOM     20  C   UNL     1      -0.477  15.646  22.553  0.00  0.00    +0.000 A 
ATOM     21  C   UNL     1      -0.456  16.715  21.666  0.00  0.00    +0.000 A 
ATOM     22  C   UNL     1      -0.743  16.507  20.315  0.00  0.00    +0.000 A 
ATOM     23  C   UNL     1      -1.209  15.250  19.820  0.00  0.00    +0.000 A 
ATOM     24  C   UNL     1      -1.182  14.117  20.686  0.00  0.00    +0.000 A 
ATOM     25  H   UNL     1      -0.438  12.680  23.090  0.00  0.00    +0.000 HD
BRANCH  17  26
ATOM     26  C   UNL     1       1.382  12.943  20.187  0.00  0.00    +0.000 A 
ATOM     27  C   UNL     1       1.278  12.739  18.786  0.00  0.00    +0.000 A 
ATOM     28  C   UNL     1       2.229  13.213  17.894  0.00  0.00    +0.000 A 
ATOM     29  C   UNL     1       3.334  13.875  18.395  0.00  0.00    +0.000 A 
ATOM     30  C   UNL     1       3.472  14.055  19.778  0.00  0.00    +0.000 A 
ATOM     31  C   UNL     1       2.502  13.597  20.676  0.00  0.00    +0.000 A 
ENDBRANCH  17  26
ENDBRANCH   3  16
BRANCH   1  36
ATOM     32  C   UNL     1       4.106   5.601  19.289  0.00  0.00    +0.000 C 
ATOM     33  C   UNL     1       3.122   6.736  19.311  0.00  0.00    +0.000 A 
ATOM     34  C   UNL     1       2.314   6.978  20.427  0.00  0.00    +0.000 A 
ATOM     35  C   UNL     1       1.346   7.992  20.405  0.00  0.00    +0.000 A 
ATOM     36  C   UNL     1       1.155   8.787  19.258  0.00  0.00    +0.000 A 
ATOM     37  C   UNL     1       1.986   8.559  18.161  0.00  0.00    +0.000 A 
ATOM     38  C   UNL     1       2.960   7.543  18.182  0.00  0.00    +0.000 A 
ENDBRANCH   1  36
TORSDOF 3
ENDMDL
