MODEL 1
REMARK VINA RESULT:      -6.3      0.000      0.000
REMARK  Name = 
REMARK  23 active torsions:
REMARK  status: ('A' for Active; 'I' for Inactive)
REMARK    1  A    between atoms: C_1  and  C_2
REMARK    2  A    between atoms: C_2  and  C_3
REMARK    3  A    between atoms: C_3  and  C_4
REMARK    4  A    between atoms: C_4  and  C_5
REMARK    5  A    between atoms: C_5  and  C_6
REMARK    6  A    between atoms: C_6  and  C_7
REMARK    7  A    between atoms: C_7  and  C_8
REMARK    8  A    between atoms: C_8  and  N_9
REMARK    9  A    between atoms: N_9  and  C_10
REMARK   10  A    between atoms: C_10  and  C_11
REMARK   11  A    between atoms: C_11  and  C_12
REMARK   12  A    between atoms: C_12  and  C_13
REMARK   13  A    between atoms: C_13  and  C_14
REMARK   14  A    between atoms: C_14  and  C_15
REMARK   15  A    between atoms: C_15  and  C_16
REMARK   16  A    between atoms: C_16  and  C_17
REMARK   17  A    between atoms: C_18  and  C_20
REMARK   18  A    between atoms: C_20  and  N_21
REMARK   19  A    between atoms: C_20  and  C_22
REMARK   20  A    between atoms: C_22  and  C_23
REMARK   21  A    between atoms: C_23  and  C_24
REMARK   22  A    between atoms: C_24  and  C_25
REMARK   23  A    between atoms: C_25  and  N_26
REMARK                            x       y       z     vdW  Elec       q    Type
REMARK                         _______ _______ _______ _____ _____    ______ ____
ROOT
ATOM      1  N   UNL     1       5.081   5.238  18.071  0.00  0.00    +0.000 N 
ATOM      2  C   UNL     1       6.326   5.017  17.451  0.00  0.00    +0.000 C 
ATOM      3  O   UNL     1       7.166   4.248  17.930  0.00  0.00    +0.000 OA
ENDROOT
BRANCH   2   4
ATOM      4  C   UNL     1       6.681   5.836  16.170  0.00  0.00    +0.000 C 
BRANCH   4   5
ATOM      5  N   UNL     1       7.739   6.818  16.506  0.00  0.00    +0.000 NA
ATOM      6  H   UNL     1       8.401   6.836  15.725  0.00  0.00    +0.000 HD
ATOM      7  H   UNL     1       8.274   6.486  17.304  0.00  0.00    +0.000 HD
ENDBRANCH   4   5
BRANCH   4   8
ATOM      8  C   UNL     1       7.217   4.923  15.052  0.00  0.00    +0.000 C 
BRANCH   8   9
ATOM      9  C   UNL     1       6.080   4.285  14.246  0.00  0.00    +0.000 C 
BRANCH   9  10
ATOM     10  C   UNL     1       6.564   3.791  12.881  0.00  0.00    +0.000 C 
BRANCH  10  11
ATOM     11  C   UNL     1       5.415   3.159  12.098  0.00  0.00    +0.000 C 
BRANCH  11  12
ATOM     12  N   UNL     1       5.795   1.839  11.609  0.00  0.00    +0.000 NA
ATOM     13  H   UNL     1       5.806   1.840  10.590  0.00  0.00    +0.000 HD
ATOM     14  H   UNL     1       5.091   1.159  11.889  0.00  0.00    +0.000 HD
ENDBRANCH  11  12
ENDBRANCH  10  11
ENDBRANCH   9  10
ENDBRANCH   8   9
ENDBRANCH   4   8
ENDBRANCH   2   4
BRANCH   1  15
ATOM     15  C   UNL     1       4.196   6.316  17.611  0.00  0.00    +0.000 C 
BRANCH  15  16
ATOM     16  C   UNL     1       2.741   6.335  18.080  0.00  0.00    +0.000 C 
BRANCH  16  17
ATOM     17  C   UNL     1       2.370   7.615  18.838  0.00  0.00    +0.000 C 
BRANCH  17  18
ATOM     18  C   UNL     1       2.384   8.838  17.917  0.00  0.00    +0.000 C 
BRANCH  18  19
ATOM     19  C   UNL     1       1.012   9.485  17.779  0.00  0.00    +0.000 C 
BRANCH  19  20
ATOM     20  C   UNL     1       0.487   9.894  19.156  0.00  0.00    +0.000 C 
BRANCH  20  21
ATOM     21  C   UNL     1      -0.778  10.735  19.040  0.00  0.00    +0.000 C 
ATOM     22  C   UNL     1      -1.758  10.127  18.049  0.00  0.00    +0.000 C 
ENDBRANCH  20  21
ENDBRANCH  19  20
ENDBRANCH  18  19
ENDBRANCH  17  18
ENDBRANCH  16  17
ENDBRANCH  15  16
ENDBRANCH   1  15
BRANCH   1  23
ATOM     23  C   UNL     1       4.818   4.519  19.328  0.00  0.00    +0.000 C 
BRANCH  23  24
ATOM     24  C   UNL     1       4.291   3.077  19.219  0.00  0.00    +0.000 C 
BRANCH  24  25
ATOM     25  C   UNL     1       3.830   2.624  17.835  0.00  0.00    +0.000 C 
BRANCH  25  26
ATOM     26  C   UNL     1       2.417   2.050  17.850  0.00  0.00    +0.000 C 
BRANCH  26  27
ATOM     27  C   UNL     1       1.394   3.070  18.351  0.00  0.00    +0.000 C 
BRANCH  27  28
ATOM     28  C   UNL     1       0.649   2.528  19.571  0.00  0.00    +0.000 C 
BRANCH  28  30
ATOM     29  C   UNL     1       1.300   4.664  20.731  0.00  0.00    +0.000 C 
ATOM     30  C   UNL     1       1.165   3.155  20.863  0.00  0.00    +0.000 C 
ENDBRANCH  28  30
ENDBRANCH  27  28
ENDBRANCH  26  27
ENDBRANCH  25  26
ENDBRANCH  24  25
ENDBRANCH  23  24
ENDBRANCH   1  23
TORSDOF 21
ENDMDL
MODEL 2
REMARK VINA RESULT:      -6.1      3.779      8.707
REMARK  Name = 
REMARK  23 active torsions:
REMARK  status: ('A' for Active; 'I' for Inactive)
REMARK    1  A    between atoms: C_1  and  C_2
REMARK    2  A    between atoms: C_2  and  C_3
REMARK    3  A    between atoms: C_3  and  C_4
REMARK    4  A    between atoms: C_4  and  C_5
REMARK    5  A    between atoms: C_5  and  C_6
REMARK    6  A    between atoms: C_6  and  C_7
REMARK    7  A    between atoms: C_7  and  C_8
REMARK    8  A    between atoms: C_8  and  N_9
REMARK    9  A    between atoms: N_9  and  C_10
REMARK   10  A    between atoms: C_10  and  C_11
REMARK   11  A    between atoms: C_11  and  C_12
REMARK   12  A    between atoms: C_12  and  C_13
REMARK   13  A    between atoms: C_13  and  C_14
REMARK   14  A    between atoms: C_14  and  C_15
REMARK   15  A    between atoms: C_15  and  C_16
REMARK   16  A    between atoms: C_16  and  C_17
REMARK   17  A    between atoms: C_18  and  C_20
REMARK   18  A    between atoms: C_20  and  N_21
REMARK   19  A    between atoms: C_20  and  C_22
REMARK   20  A    between atoms: C_22  and  C_23
REMARK   21  A    between atoms: C_23  and  C_24
REMARK   22  A    between atoms: C_24  and  C_25
REMARK   23  A    between atoms: C_25  and  N_26
REMARK                            x       y       z     vdW  Elec       q    Type
REMARK                         _______ _______ _______ _____ _____    ______ ____
ROOT
ATOM      1  N   UNL     1       6.165   5.490  17.625  0.00  0.00    +0.000 N 
ATOM      2  C   UNL     1       5.878   4.993  18.912  0.00  0.00    +0.000 C 
ATOM      3  O   UNL     1       6.639   5.178  19.867  0.00  0.00    +0.000 OA
ENDROOT
BRANCH   2   4
ATOM      4  C   UNL     1       4.605   4.110  19.107  0.00  0.00    +0.000 C 
BRANCH   4   5
ATOM      5  N   UNL     1       5.005   2.819  19.715  0.00  0.00    +0.000 NA
ATOM      6  H   UNL     1       4.366   2.634  20.494  0.00  0.00    +0.000 HD
ATOM      7  H   UNL     1       5.925   2.910  20.139  0.00  0.00    +0.000 HD
ENDBRANCH   4   5
BRANCH   4   8
ATOM      8  C   UNL     1       3.594   4.787  20.051  0.00  0.00    +0.000 C 
BRANCH   8   9
ATOM      9  C   UNL     1       2.160   4.674  19.522  0.00  0.00    +0.000 C 
BRANCH   9  10
ATOM     10  C   UNL     1       1.410   3.508  20.169  0.00  0.00    +0.000 C 
BRANCH  10  11
ATOM     11  C   UNL     1       1.912   3.266  21.591  0.00  0.00    +0.000 C 
BRANCH  11  12
ATOM     12  N   UNL     1       0.979   2.420  22.325  0.00  0.00    +0.000 NA
ATOM     13  H   UNL     1       1.489   1.682  22.807  0.00  0.00    +0.000 HD
ATOM     14  H   UNL     1       0.354   1.957  21.667  0.00  0.00    +0.000 HD
ENDBRANCH  11  12
ENDBRANCH  10  11
ENDBRANCH   9  10
ENDBRANCH   8   9
ENDBRANCH   4   8
ENDBRANCH   2   4
BRANCH   1  15
ATOM     15  C   UNL     1       5.367   5.070  16.466  0.00  0.00    +0.000 C 
BRANCH  15  16
ATOM     16  C   UNL     1       5.622   5.729  15.110  0.00  0.00    +0.000 C 
BRANCH  16  17
ATOM     17  C   UNL     1       6.450   4.855  14.161  0.00  0.00    +0.000 C 
BRANCH  17  18
ATOM     18  C   UNL     1       5.701   3.577  13.776  0.00  0.00    +0.000 C 
BRANCH  18  19
ATOM     19  C   UNL     1       6.049   3.093  12.374  0.00  0.00    +0.000 C 
BRANCH  19  20
ATOM     20  C   UNL     1       5.199   3.833  11.340  0.00  0.00    +0.000 C 
BRANCH  20  21
ATOM     21  C   UNL     1       3.873   3.122  11.100  0.00  0.00    +0.000 C 
ATOM     22  C   UNL     1       3.066   3.810  10.011  0.00  0.00    +0.000 C 
ENDBRANCH  20  21
ENDBRANCH  19  20
ENDBRANCH  18  19
ENDBRANCH  17  18
ENDBRANCH  16  17
ENDBRANCH  15  16
ENDBRANCH   1  15
BRANCH   1  23
ATOM     23  C   UNL     1       7.421   6.239  17.457  0.00  0.00    +0.000 C 
BRANCH  23  24
ATOM     24  C   UNL     1       7.330   7.775  17.444  0.00  0.00    +0.000 C 
BRANCH  24  25
ATOM     25  C   UNL     1       8.364   8.524  18.283  0.00  0.00    +0.000 C 
BRANCH  25  26
ATOM     26  C   UNL     1       8.350  10.026  18.020  0.00  0.00    +0.000 C 
BRANCH  26  27
ATOM     27  C   UNL     1       9.676  10.683  18.401  0.00  0.00    +0.000 C 
BRANCH  27  28
ATOM     28  C   UNL     1       9.720  12.130  17.907  0.00  0.00    +0.000 C 
BRANCH  28  30
ATOM     29  C   UNL     1      11.442  13.378  16.563  0.00  0.00    +0.000 C 
ATOM     30  C   UNL     1      11.149  12.664  17.873  0.00  0.00    +0.000 C 
ENDBRANCH  28  30
ENDBRANCH  27  28
ENDBRANCH  26  27
ENDBRANCH  25  26
ENDBRANCH  24  25
ENDBRANCH  23  24
ENDBRANCH   1  23
TORSDOF 21
ENDMDL
MODEL 3
REMARK VINA RESULT:      -6.0      3.168      8.462
REMARK  Name = 
REMARK  23 active torsions:
REMARK  status: ('A' for Active; 'I' for Inactive)
REMARK    1  A    between atoms: C_1  and  C_2
REMARK    2  A    between atoms: C_2  and  C_3
REMARK    3  A    between atoms: C_3  and  C_4
REMARK    4  A    between atoms: C_4  and  C_5
REMARK    5  A    between atoms: C_5  and  C_6
REMARK    6  A    between atoms: C_6  and  C_7
REMARK    7  A    between atoms: C_7  and  C_8
REMARK    8  A    between atoms: C_8  and  N_9
REMARK    9  A    between atoms: N_9  and  C_10
REMARK   10  A    between atoms: C_10  and  C_11
REMARK   11  A    between atoms: C_11  and  C_12
REMARK   12  A    between atoms: C_12  and  C_13
REMARK   13  A    between atoms: C_13  and  C_14
REMARK   14  A    between atoms: C_14  and  C_15
REMARK   15  A    between atoms: C_15  and  C_16
REMARK   16  A    between atoms: C_16  and  C_17
REMARK   17  A    between atoms: C_18  and  C_20
REMARK   18  A    between atoms: C_20  and  N_21
REMARK   19  A    between atoms: C_20  and  C_22
REMARK   20  A    between atoms: C_22  and  C_23
REMARK   21  A    between atoms: C_23  and  C_24
REMARK   22  A    between atoms: C_24  and  C_25
REMARK   23  A    between atoms: C_25  and  N_26
REMARK                            x       y       z     vdW  Elec       q    Type
REMARK                         _______ _______ _______ _____ _____    ______ ____
ROOT
ATOM      1  N   UNL     1       6.092   4.451  17.343  0.00  0.00    +0.000 N 
ATOM      2  C   UNL     1       5.143   4.002  18.283  0.00  0.00    +0.000 C 
ATOM      3  O   UNL     1       5.392   3.959  19.492  0.00  0.00    +0.000 OA
ENDROOT
BRANCH   2   4
ATOM      4  C   UNL     1       3.771   3.466  17.765  0.00  0.00    +0.000 C 
BRANCH   4   5
ATOM      5  N   UNL     1       3.418   2.242  18.522  0.00  0.00    +0.000 NA
ATOM      6  H   UNL     1       2.814   2.525  19.300  0.00  0.00    +0.000 HD
ATOM      7  H   UNL     1       4.252   1.854  18.956  0.00  0.00    +0.000 HD
ENDBRANCH   4   5
BRANCH   4   8
ATOM      8  C   UNL     1       2.649   4.498  17.979  0.00  0.00    +0.000 C 
BRANCH   8   9
ATOM      9  C   UNL     1       1.601   3.998  18.978  0.00  0.00    +0.000 C 
BRANCH   9  10
ATOM     10  C   UNL     1       1.656   4.778  20.293  0.00  0.00    +0.000 C 
BRANCH  10  11
ATOM     11  C   UNL     1       2.087   3.869  21.442  0.00  0.00    +0.000 C 
BRANCH  11  12
ATOM     12  N   UNL     1       1.663   2.497  21.195  0.00  0.00    +0.000 NA
ATOM     13  H   UNL     1       0.933   2.485  20.485  0.00  0.00    +0.000 HD
ATOM     14  H   UNL     1       1.248   2.114  22.042  0.00  0.00    +0.000 HD
ENDBRANCH  11  12
ENDBRANCH  10  11
ENDBRANCH   9  10
ENDBRANCH   8   9
ENDBRANCH   4   8
ENDBRANCH   2   4
BRANCH   1  15
ATOM     15  C   UNL     1       5.856   4.283  15.903  0.00  0.00    +0.000 C 
BRANCH  15  16
ATOM     16  C   UNL     1       6.803   4.959  14.911  0.00  0.00    +0.000 C 
BRANCH  16  17
ATOM     17  C   UNL     1       6.771   4.320  13.517  0.00  0.00    +0.000 C 
BRANCH  17  18
ATOM     18  C   UNL     1       5.378   3.785  13.176  0.00  0.00    +0.000 C 
BRANCH  18  19
ATOM     19  C   UNL     1       5.356   2.997  11.872  0.00  0.00    +0.000 C 
BRANCH  19  20
ATOM     20  C   UNL     1       6.773   2.882  11.308  0.00  0.00    +0.000 C 
BRANCH  20  21
ATOM     21  C   UNL     1       7.241   1.432  11.276  0.00  0.00    +0.000 C 
ATOM     22  C   UNL     1       6.071   0.477  11.110  0.00  0.00    +0.000 C 
ENDBRANCH  20  21
ENDBRANCH  19  20
ENDBRANCH  18  19
ENDBRANCH  17  18
ENDBRANCH  16  17
ENDBRANCH  15  16
ENDBRANCH   1  15
BRANCH   1  23
ATOM     23  C   UNL     1       7.408   4.861  17.858  0.00  0.00    +0.000 C 
BRANCH  23  24
ATOM     24  C   UNL     1       7.518   6.269  18.470  0.00  0.00    +0.000 C 
BRANCH  24  25
ATOM     25  C   UNL     1       7.138   7.437  17.562  0.00  0.00    +0.000 C 
BRANCH  25  26
ATOM     26  C   UNL     1       8.151   8.575  17.622  0.00  0.00    +0.000 C 
BRANCH  26  27
ATOM     27  C   UNL     1       8.752   8.730  19.019  0.00  0.00    +0.000 C 
BRANCH  27  28
ATOM     28  C   UNL     1       9.306  10.142  19.212  0.00  0.00    +0.000 C 
BRANCH  28  30
ATOM     29  C   UNL     1       8.758  12.314  18.066  0.00  0.00    +0.000 C 
ATOM     30  C   UNL     1       9.330  10.915  17.896  0.00  0.00    +0.000 C 
ENDBRANCH  28  30
ENDBRANCH  27  28
ENDBRANCH  26  27
ENDBRANCH  25  26
ENDBRANCH  24  25
ENDBRANCH  23  24
ENDBRANCH   1  23
TORSDOF 21
ENDMDL
MODEL 4
REMARK VINA RESULT:      -6.0      2.868      6.424
REMARK  Name = 
REMARK  23 active torsions:
REMARK  status: ('A' for Active; 'I' for Inactive)
REMARK    1  A    between atoms: C_1  and  C_2
REMARK    2  A    between atoms: C_2  and  C_3
REMARK    3  A    between atoms: C_3  and  C_4
REMARK    4  A    between atoms: C_4  and  C_5
REMARK    5  A    between atoms: C_5  and  C_6
REMARK    6  A    between atoms: C_6  and  C_7
REMARK    7  A    between atoms: C_7  and  C_8
REMARK    8  A    between atoms: C_8  and  N_9
REMARK    9  A    between atoms: N_9  and  C_10
REMARK   10  A    between atoms: C_10  and  C_11
REMARK   11  A    between atoms: C_11  and  C_12
REMARK   12  A    between atoms: C_12  and  C_13
REMARK   13  A    between atoms: C_13  and  C_14
REMARK   14  A    between atoms: C_14  and  C_15
REMARK   15  A    between atoms: C_15  and  C_16
REMARK   16  A    between atoms: C_16  and  C_17
REMARK   17  A    between atoms: C_18  and  C_20
REMARK   18  A    between atoms: C_20  and  N_21
REMARK   19  A    between atoms: C_20  and  C_22
REMARK   20  A    between atoms: C_22  and  C_23
REMARK   21  A    between atoms: C_23  and  C_24
REMARK   22  A    between atoms: C_24  and  C_25
REMARK   23  A    between atoms: C_25  and  N_26
REMARK                            x       y       z     vdW  Elec       q    Type
REMARK                         _______ _______ _______ _____ _____    ______ ____
ROOT
ATOM      1  N   UNL     1       4.494   4.522  18.702  0.00  0.00    +0.000 N 
ATOM      2  C   UNL     1       4.429   3.160  19.057  0.00  0.00    +0.000 C 
ATOM      3  O   UNL     1       5.238   2.651  19.841  0.00  0.00    +0.000 OA
ENDROOT
BRANCH   2   4
ATOM      4  C   UNL     1       3.357   2.256  18.371  0.00  0.00    +0.000 C 
BRANCH   4   5
ATOM      5  N   UNL     1       3.973   0.951  18.035  0.00  0.00    +0.000 NA
ATOM      6  H   UNL     1       3.847   0.800  17.030  0.00  0.00    +0.000 HD
ATOM      7  H   UNL     1       3.456   0.201  18.487  0.00  0.00    +0.000 HD
ENDBRANCH   4   5
BRANCH   4   8
ATOM      8  C   UNL     1       2.165   1.992  19.309  0.00  0.00    +0.000 C 
BRANCH   8   9
ATOM      9  C   UNL     1       1.050   3.026  19.114  0.00  0.00    +0.000 C 
BRANCH   9  10
ATOM     10  C   UNL     1       0.839   3.873  20.371  0.00  0.00    +0.000 C 
BRANCH  10  11
ATOM     11  C   UNL     1       1.893   3.544  21.426  0.00  0.00    +0.000 C 
BRANCH  11  12
ATOM     12  N   UNL     1       1.373   2.575  22.382  0.00  0.00    +0.000 NA
ATOM     13  H   UNL     1       0.366   2.484  22.266  0.00  0.00    +0.000 HD
ATOM     14  H   UNL     1       1.525   2.919  23.329  0.00  0.00    +0.000 HD
ENDBRANCH  11  12
ENDBRANCH  10  11
ENDBRANCH   9  10
ENDBRANCH   8   9
ENDBRANCH   4   8
ENDBRANCH   2   4
BRANCH   1  15
ATOM     15  C   UNL     1       3.670   5.048  17.606  0.00  0.00    +0.000 C 
BRANCH  15  16
ATOM     16  C   UNL     1       2.542   6.028  17.929  0.00  0.00    +0.000 C 
BRANCH  16  17
ATOM     17  C   UNL     1       3.038   7.457  18.180  0.00  0.00    +0.000 C 
BRANCH  17  18
ATOM     18  C   UNL     1       2.101   8.495  17.557  0.00  0.00    +0.000 C 
BRANCH  18  19
ATOM     19  C   UNL     1       1.928   9.729  18.433  0.00  0.00    +0.000 C 
BRANCH  19  20
ATOM     20  C   UNL     1       0.446   9.943  18.747  0.00  0.00    +0.000 C 
BRANCH  20  21
ATOM     21  C   UNL     1       0.200  10.000  20.249  0.00  0.00    +0.000 C 
ATOM     22  C   UNL     1       0.897   8.856  20.968  0.00  0.00    +0.000 C 
ENDBRANCH  20  21
ENDBRANCH  19  20
ENDBRANCH  18  19
ENDBRANCH  17  18
ENDBRANCH  16  17
ENDBRANCH  15  16
ENDBRANCH   1  15
BRANCH   1  23
ATOM     23  C   UNL     1       5.576   5.323  19.296  0.00  0.00    +0.000 C 
BRANCH  23  24
ATOM     24  C   UNL     1       6.978   5.184  18.677  0.00  0.00    +0.000 C 
BRANCH  24  25
ATOM     25  C   UNL     1       7.864   6.428  18.717  0.00  0.00    +0.000 C 
BRANCH  25  26
ATOM     26  C   UNL     1       7.685   7.311  17.486  0.00  0.00    +0.000 C 
BRANCH  26  27
ATOM     27  C   UNL     1       7.356   8.755  17.865  0.00  0.00    +0.000 C 
BRANCH  27  28
ATOM     28  C   UNL     1       8.612   9.625  17.802  0.00  0.00    +0.000 C 
BRANCH  28  30
ATOM     29  C   UNL     1      10.137  11.116  19.137  0.00  0.00    +0.000 C 
ATOM     30  C   UNL     1       9.091  10.014  19.198  0.00  0.00    +0.000 C 
ENDBRANCH  28  30
ENDBRANCH  27  28
ENDBRANCH  26  27
ENDBRANCH  25  26
ENDBRANCH  24  25
ENDBRANCH  23  24
ENDBRANCH   1  23
TORSDOF 21
ENDMDL
MODEL 5
REMARK VINA RESULT:      -5.9      3.369      5.201
REMARK  Name = 
REMARK  23 active torsions:
REMARK  status: ('A' for Active; 'I' for Inactive)
REMARK    1  A    between atoms: C_1  and  C_2
REMARK    2  A    between atoms: C_2  and  C_3
REMARK    3  A    between atoms: C_3  and  C_4
REMARK    4  A    between atoms: C_4  and  C_5
REMARK    5  A    between atoms: C_5  and  C_6
REMARK    6  A    between atoms: C_6  and  C_7
REMARK    7  A    between atoms: C_7  and  C_8
REMARK    8  A    between atoms: C_8  and  N_9
REMARK    9  A    between atoms: N_9  and  C_10
REMARK   10  A    between atoms: C_10  and  C_11
REMARK   11  A    between atoms: C_11  and  C_12
REMARK   12  A    between atoms: C_12  and  C_13
REMARK   13  A    between atoms: C_13  and  C_14
REMARK   14  A    between atoms: C_14  and  C_15
REMARK   15  A    between atoms: C_15  and  C_16
REMARK   16  A    between atoms: C_16  and  C_17
REMARK   17  A    between atoms: C_18  and  C_20
REMARK   18  A    between atoms: C_20  and  N_21
REMARK   19  A    between atoms: C_20  and  C_22
REMARK   20  A    between atoms: C_22  and  C_23
REMARK   21  A    between atoms: C_23  and  C_24
REMARK   22  A    between atoms: C_24  and  C_25
REMARK   23  A    between atoms: C_25  and  N_26
REMARK                            x       y       z     vdW  Elec       q    Type
REMARK                         _______ _______ _______ _____ _____    ______ ____
ROOT
ATOM      1  N   UNL     1       6.003   5.820  17.629  0.00  0.00    +0.000 N 
ATOM      2  C   UNL     1       5.978   4.809  16.647  0.00  0.00    +0.000 C 
ATOM      3  O   UNL     1       5.827   3.619  16.941  0.00  0.00    +0.000 OA
ENDROOT
BRANCH   2   4
ATOM      4  C   UNL     1       6.235   5.204  15.159  0.00  0.00    +0.000 C 
BRANCH   4   5
ATOM      5  N   UNL     1       7.696   5.210  14.910  0.00  0.00    +0.000 NA
ATOM      6  H   UNL     1       8.076   4.336  15.285  0.00  0.00    +0.000 HD
ATOM      7  H   UNL     1       8.134   5.949  15.454  0.00  0.00    +0.000 HD
ENDBRANCH   4   5
BRANCH   4   8
ATOM      8  C   UNL     1       5.593   4.192  14.193  0.00  0.00    +0.000 C 
BRANCH   8   9
ATOM      9  C   UNL     1       6.114   4.364  12.762  0.00  0.00    +0.000 C 
BRANCH   9  10
ATOM     10  C   UNL     1       6.689   3.058  12.209  0.00  0.00    +0.000 C 
BRANCH  10  11
ATOM     11  C   UNL     1       5.587   2.205  11.583  0.00  0.00    +0.000 C 
BRANCH  11  12
ATOM     12  N   UNL     1       6.094   0.879  11.252  0.00  0.00    +0.000 NA
ATOM     13  H   UNL     1       5.374   0.181  11.430  0.00  0.00    +0.000 HD
ATOM     14  H   UNL     1       6.874   0.653  11.867  0.00  0.00    +0.000 HD
ENDBRANCH  11  12
ENDBRANCH  10  11
ENDBRANCH   9  10
ENDBRANCH   8   9
ENDBRANCH   4   8
ENDBRANCH   2   4
BRANCH   1  15
ATOM     15  C   UNL     1       6.405   7.189  17.283  0.00  0.00    +0.000 C 
BRANCH  15  16
ATOM     16  C   UNL     1       7.846   7.629  17.542  0.00  0.00    +0.000 C 
BRANCH  16  17
ATOM     17  C   UNL     1       7.977   9.131  17.822  0.00  0.00    +0.000 C 
BRANCH  17  18
ATOM     18  C   UNL     1       8.959   9.407  18.963  0.00  0.00    +0.000 C 
BRANCH  18  19
ATOM     19  C   UNL     1       9.234  10.894  19.154  0.00  0.00    +0.000 C 
BRANCH  19  20
ATOM     20  C   UNL     1       9.914  11.462  17.908  0.00  0.00    +0.000 C 
BRANCH  20  21
ATOM     21  C   UNL     1      11.418  11.595  18.108  0.00  0.00    +0.000 C 
ATOM     22  C   UNL     1      11.767  11.767  19.578  0.00  0.00    +0.000 C 
ENDBRANCH  20  21
ENDBRANCH  19  20
ENDBRANCH  18  19
ENDBRANCH  17  18
ENDBRANCH  16  17
ENDBRANCH  15  16
ENDBRANCH   1  15
BRANCH   1  23
ATOM     23  C   UNL     1       5.851   5.401  19.031  0.00  0.00    +0.000 C 
BRANCH  23  24
ATOM     24  C   UNL     1       4.431   5.053  19.513  0.00  0.00    +0.000 C 
BRANCH  24  25
ATOM     25  C   UNL     1       3.336   6.067  19.189  0.00  0.00    +0.000 C 
BRANCH  25  26
ATOM     26  C   UNL     1       2.570   5.713  17.919  0.00  0.00    +0.000 C 
BRANCH  26  27
ATOM     27  C   UNL     1       1.759   4.427  18.083  0.00  0.00    +0.000 C 
BRANCH  27  28
ATOM     28  C   UNL     1       2.314   3.324  17.181  0.00  0.00    +0.000 C 
BRANCH  28  30
ATOM     29  C   UNL     1       1.902   2.001  19.281  0.00  0.00    +0.000 C 
ATOM     30  C   UNL     1       2.693   2.084  17.985  0.00  0.00    +0.000 C 
ENDBRANCH  28  30
ENDBRANCH  27  28
ENDBRANCH  26  27
ENDBRANCH  25  26
ENDBRANCH  24  25
ENDBRANCH  23  24
ENDBRANCH   1  23
TORSDOF 21
ENDMDL
MODEL 6
REMARK VINA RESULT:      -5.9      3.284      7.190
REMARK  Name = 
REMARK  23 active torsions:
REMARK  status: ('A' for Active; 'I' for Inactive)
REMARK    1  A    between atoms: C_1  and  C_2
REMARK    2  A    between atoms: C_2  and  C_3
REMARK    3  A    between atoms: C_3  and  C_4
REMARK    4  A    between atoms: C_4  and  C_5
REMARK    5  A    between atoms: C_5  and  C_6
REMARK    6  A    between atoms: C_6  and  C_7
REMARK    7  A    between atoms: C_7  and  C_8
REMARK    8  A    between atoms: C_8  and  N_9
REMARK    9  A    between atoms: N_9  and  C_10
REMARK   10  A    between atoms: C_10  and  C_11
REMARK   11  A    between atoms: C_11  and  C_12
REMARK   12  A    between atoms: C_12  and  C_13
REMARK   13  A    between atoms: C_13  and  C_14
REMARK   14  A    between atoms: C_14  and  C_15
REMARK   15  A    between atoms: C_15  and  C_16
REMARK   16  A    between atoms: C_16  and  C_17
REMARK   17  A    between atoms: C_18  and  C_20
REMARK   18  A    between atoms: C_20  and  N_21
REMARK   19  A    between atoms: C_20  and  C_22
REMARK   20  A    between atoms: C_22  and  C_23
REMARK   21  A    between atoms: C_23  and  C_24
REMARK   22  A    between atoms: C_24  and  C_25
REMARK   23  A    between atoms: C_25  and  N_26
REMARK                            x       y       z     vdW  Elec       q    Type
REMARK                         _______ _______ _______ _____ _____    ______ ____
ROOT
ATOM      1  N   UNL     1       5.009   6.122  17.871  0.00  0.00    +0.000 N 
ATOM      2  C   UNL     1       3.716   6.178  18.428  0.00  0.00    +0.000 C 
ATOM      3  O   UNL     1       2.769   6.698  17.829  0.00  0.00    +0.000 OA
ENDROOT
BRANCH   2   4
ATOM      4  C   UNL     1       3.502   5.644  19.879  0.00  0.00    +0.000 C 
BRANCH   4   5
ATOM      5  N   UNL     1       2.389   6.394  20.508  0.00  0.00    +0.000 NA
ATOM      6  H   UNL     1       2.803   7.117  21.103  0.00  0.00    +0.000 HD
ATOM      7  H   UNL     1       1.878   5.784  21.140  0.00  0.00    +0.000 HD
ENDBRANCH   4   5
BRANCH   4   8
ATOM      8  C   UNL     1       3.127   4.150  19.877  0.00  0.00    +0.000 C 
BRANCH   8   9
ATOM      9  C   UNL     1       1.978   3.852  20.845  0.00  0.00    +0.000 C 
BRANCH   9  10
ATOM     10  C   UNL     1       0.733   3.351  20.108  0.00  0.00    +0.000 C 
BRANCH  10  11
ATOM     11  C   UNL     1       1.080   2.951  18.675  0.00  0.00    +0.000 C 
BRANCH  11  12
ATOM     12  N   UNL     1       1.586   1.584  18.635  0.00  0.00    +0.000 NA
ATOM     13  H   UNL     1       1.179   1.044  19.397  0.00  0.00    +0.000 HD
ATOM     14  H   UNL     1       2.592   1.592  18.793  0.00  0.00    +0.000 HD
ENDBRANCH  11  12
ENDBRANCH  10  11
ENDBRANCH   9  10
ENDBRANCH   8   9
ENDBRANCH   4   8
ENDBRANCH   2   4
BRANCH   1  15
ATOM     15  C   UNL     1       6.157   5.707  18.686  0.00  0.00    +0.000 C 
BRANCH  15  16
ATOM     16  C   UNL     1       7.571   5.991  18.178  0.00  0.00    +0.000 C 
BRANCH  16  17
ATOM     17  C   UNL     1       8.114   7.349  18.635  0.00  0.00    +0.000 C 
BRANCH  17  18
ATOM     18  C   UNL     1       7.927   8.421  17.558  0.00  0.00    +0.000 C 
BRANCH  18  19
ATOM     19  C   UNL     1       8.202   9.827  18.075  0.00  0.00    +0.000 C 
BRANCH  19  20
ATOM     20  C   UNL     1       9.213   9.773  19.221  0.00  0.00    +0.000 C 
BRANCH  20  21
ATOM     21  C   UNL     1       9.712  11.165  19.587  0.00  0.00    +0.000 C 
ATOM     22  C   UNL     1      11.143  11.381  19.119  0.00  0.00    +0.000 C 
ENDBRANCH  20  21
ENDBRANCH  19  20
ENDBRANCH  18  19
ENDBRANCH  17  18
ENDBRANCH  16  17
ENDBRANCH  15  16
ENDBRANCH   1  15
BRANCH   1  23
ATOM     23  C   UNL     1       5.194   6.720  16.539  0.00  0.00    +0.000 C 
BRANCH  23  24
ATOM     24  C   UNL     1       5.135   5.773  15.327  0.00  0.00    +0.000 C 
BRANCH  24  25
ATOM     25  C   UNL     1       6.424   5.028  14.983  0.00  0.00    +0.000 C 
BRANCH  25  26
ATOM     26  C   UNL     1       6.159   3.637  14.418  0.00  0.00    +0.000 C 
BRANCH  26  27
ATOM     27  C   UNL     1       5.990   3.661  12.899  0.00  0.00    +0.000 C 
BRANCH  27  28
ATOM     28  C   UNL     1       4.533   3.402  12.517  0.00  0.00    +0.000 C 
BRANCH  28  30
ATOM     29  C   UNL     1       3.407   3.673  10.283  0.00  0.00    +0.000 C 
ATOM     30  C   UNL     1       4.416   2.872  11.090  0.00  0.00    +0.000 C 
ENDBRANCH  28  30
ENDBRANCH  27  28
ENDBRANCH  26  27
ENDBRANCH  25  26
ENDBRANCH  24  25
ENDBRANCH  23  24
ENDBRANCH   1  23
TORSDOF 21
ENDMDL
MODEL 7
REMARK VINA RESULT:      -5.9      3.600      8.182
REMARK  Name = 
REMARK  23 active torsions:
REMARK  status: ('A' for Active; 'I' for Inactive)
REMARK    1  A    between atoms: C_1  and  C_2
REMARK    2  A    between atoms: C_2  and  C_3
REMARK    3  A    between atoms: C_3  and  C_4
REMARK    4  A    between atoms: C_4  and  C_5
REMARK    5  A    between atoms: C_5  and  C_6
REMARK    6  A    between atoms: C_6  and  C_7
REMARK    7  A    between atoms: C_7  and  C_8
REMARK    8  A    between atoms: C_8  and  N_9
REMARK    9  A    between atoms: N_9  and  C_10
REMARK   10  A    between atoms: C_10  and  C_11
REMARK   11  A    between atoms: C_11  and  C_12
REMARK   12  A    between atoms: C_12  and  C_13
REMARK   13  A    between atoms: C_13  and  C_14
REMARK   14  A    between atoms: C_14  and  C_15
REMARK   15  A    between atoms: C_15  and  C_16
REMARK   16  A    between atoms: C_16  and  C_17
REMARK   17  A    between atoms: C_18  and  C_20
REMARK   18  A    between atoms: C_20  and  N_21
REMARK   19  A    between atoms: C_20  and  C_22
REMARK   20  A    between atoms: C_22  and  C_23
REMARK   21  A    between atoms: C_23  and  C_24
REMARK   22  A    between atoms: C_24  and  C_25
REMARK   23  A    between atoms: C_25  and  N_26
REMARK                            x       y       z     vdW  Elec       q    Type
REMARK                         _______ _______ _______ _____ _____    ______ ____
ROOT
ATOM      1  N   UNL     1       5.314   5.255  17.642  0.00  0.00    +0.000 N 
ATOM      2  C   UNL     1       5.112   4.400  18.744  0.00  0.00    +0.000 C 
ATOM      3  O   UNL     1       5.537   4.676  19.870  0.00  0.00    +0.000 OA
ENDROOT
BRANCH   2   4
ATOM      4  C   UNL     1       4.406   3.027  18.507  0.00  0.00    +0.000 C 
BRANCH   4   5
ATOM      5  N   UNL     1       4.744   2.115  19.625  0.00  0.00    +0.000 NA
ATOM      6  H   UNL     1       4.507   1.164  19.329  0.00  0.00    +0.000 HD
ATOM      7  H   UNL     1       4.139   2.308  20.419  0.00  0.00    +0.000 HD
ENDBRANCH   4   5
BRANCH   4   8
ATOM      8  C   UNL     1       2.875   3.185  18.467  0.00  0.00    +0.000 C 
BRANCH   8   9
ATOM      9  C   UNL     1       2.185   2.288  19.500  0.00  0.00    +0.000 C 
BRANCH   9  10
ATOM     10  C   UNL     1       1.321   3.101  20.467  0.00  0.00    +0.000 C 
BRANCH  10  11
ATOM     11  C   UNL     1       2.191   3.796  21.513  0.00  0.00    +0.000 C 
BRANCH  11  12
ATOM     12  N   UNL     1       2.454   5.175  21.123  0.00  0.00    +0.000 NA
ATOM     13  H   UNL     1       1.827   5.445  20.367  0.00  0.00    +0.000 HD
ATOM     14  H   UNL     1       3.400   5.246  20.752  0.00  0.00    +0.000 HD
ENDBRANCH  11  12
ENDBRANCH  10  11
ENDBRANCH   9  10
ENDBRANCH   8   9
ENDBRANCH   4   8
ENDBRANCH   2   4
BRANCH   1  15
ATOM     15  C   UNL     1       5.001   4.806  16.279  0.00  0.00    +0.000 C 
BRANCH  15  16
ATOM     16  C   UNL     1       5.701   5.477  15.097  0.00  0.00    +0.000 C 
BRANCH  16  17
ATOM     17  C   UNL     1       6.911   4.686  14.586  0.00  0.00    +0.000 C 
BRANCH  17  18
ATOM     18  C   UNL     1       7.313   5.124  13.175  0.00  0.00    +0.000 C 
BRANCH  18  19
ATOM     19  C   UNL     1       7.147   4.013  12.146  0.00  0.00    +0.000 C 
BRANCH  19  20
ATOM     20  C   UNL     1       6.036   3.058  12.584  0.00  0.00    +0.000 C 
BRANCH  20  21
ATOM     21  C   UNL     1       5.251   2.533  11.388  0.00  0.00    +0.000 C 
ATOM     22  C   UNL     1       3.931   3.268  11.227  0.00  0.00    +0.000 C 
ENDBRANCH  20  21
ENDBRANCH  19  20
ENDBRANCH  18  19
ENDBRANCH  17  18
ENDBRANCH  16  17
ENDBRANCH  15  16
ENDBRANCH   1  15
BRANCH   1  23
ATOM     23  C   UNL     1       6.065   6.497  17.883  0.00  0.00    +0.000 C 
BRANCH  23  24
ATOM     24  C   UNL     1       7.592   6.379  18.040  0.00  0.00    +0.000 C 
BRANCH  24  25
ATOM     25  C   UNL     1       8.324   7.627  18.529  0.00  0.00    +0.000 C 
BRANCH  25  26
ATOM     26  C   UNL     1       8.210   8.791  17.550  0.00  0.00    +0.000 C 
BRANCH  26  27
ATOM     27  C   UNL     1       8.110  10.135  18.271  0.00  0.00    +0.000 C 
BRANCH  27  28
ATOM     28  C   UNL     1       9.416  10.917  18.132  0.00  0.00    +0.000 C 
BRANCH  28  30
ATOM     29  C   UNL     1       9.473  11.250  20.625  0.00  0.00    +0.000 C 
ATOM     30  C   UNL     1      10.262  10.820  19.399  0.00  0.00    +0.000 C 
ENDBRANCH  28  30
ENDBRANCH  27  28
ENDBRANCH  26  27
ENDBRANCH  25  26
ENDBRANCH  24  25
ENDBRANCH  23  24
ENDBRANCH   1  23
TORSDOF 21
ENDMDL
MODEL 8
REMARK VINA RESULT:      -5.9      3.621      7.610
REMARK  Name = 
REMARK  23 active torsions:
REMARK  status: ('A' for Active; 'I' for Inactive)
REMARK    1  A    between atoms: C_1  and  C_2
REMARK    2  A    between atoms: C_2  and  C_3
REMARK    3  A    between atoms: C_3  and  C_4
REMARK    4  A    between atoms: C_4  and  C_5
REMARK    5  A    between atoms: C_5  and  C_6
REMARK    6  A    between atoms: C_6  and  C_7
REMARK    7  A    between atoms: C_7  and  C_8
REMARK    8  A    between atoms: C_8  and  N_9
REMARK    9  A    between atoms: N_9  and  C_10
REMARK   10  A    between atoms: C_10  and  C_11
REMARK   11  A    between atoms: C_11  and  C_12
REMARK   12  A    between atoms: C_12  and  C_13
REMARK   13  A    between atoms: C_13  and  C_14
REMARK   14  A    between atoms: C_14  and  C_15
REMARK   15  A    between atoms: C_15  and  C_16
REMARK   16  A    between atoms: C_16  and  C_17
REMARK   17  A    between atoms: C_18  and  C_20
REMARK   18  A    between atoms: C_20  and  N_21
REMARK   19  A    between atoms: C_20  and  C_22
REMARK   20  A    between atoms: C_22  and  C_23
REMARK   21  A    between atoms: C_23  and  C_24
REMARK   22  A    between atoms: C_24  and  C_25
REMARK   23  A    between atoms: C_25  and  N_26
REMARK                            x       y       z     vdW  Elec       q    Type
REMARK                         _______ _______ _______ _____ _____    ______ ____
ROOT
ATOM      1  N   UNL     1       5.523   5.315  16.914  0.00  0.00    +0.000 N 
ATOM      2  C   UNL     1       4.299   5.047  17.557  0.00  0.00    +0.000 C 
ATOM      3  O   UNL     1       3.719   3.963  17.430  0.00  0.00    +0.000 OA
ENDROOT
BRANCH   2   4
ATOM      4  C   UNL     1       3.620   6.186  18.381  0.00  0.00    +0.000 C 
BRANCH   4   5
ATOM      5  N   UNL     1       3.375   7.343  17.488  0.00  0.00    +0.000 NA
ATOM      6  H   UNL     1       3.744   7.102  16.563  0.00  0.00    +0.000 HD
ATOM      7  H   UNL     1       3.926   8.138  17.799  0.00  0.00    +0.000 HD
ENDBRANCH   4   5
BRANCH   4   8
ATOM      8  C   UNL     1       2.264   5.731  18.952  0.00  0.00    +0.000 C 
BRANCH   8   9
ATOM      9  C   UNL     1       2.412   5.132  20.355  0.00  0.00    +0.000 C 
BRANCH   9  10
ATOM     10  C   UNL     1       1.303   4.122  20.658  0.00  0.00    +0.000 C 
BRANCH  10  11
ATOM     11  C   UNL     1       1.864   2.702  20.703  0.00  0.00    +0.000 C 
BRANCH  11  12
ATOM     12  N   UNL     1       2.154   2.225  19.356  0.00  0.00    +0.000 NA
ATOM     13  H   UNL     1       1.304   1.857  18.931  0.00  0.00    +0.000 HD
ATOM     14  H   UNL     1       2.811   1.449  19.407  0.00  0.00    +0.000 HD
ENDBRANCH  11  12
ENDBRANCH  10  11
ENDBRANCH   9  10
ENDBRANCH   8   9
ENDBRANCH   4   8
ENDBRANCH   2   4
BRANCH   1  15
ATOM     15  C   UNL     1       6.077   6.675  16.897  0.00  0.00    +0.000 C 
BRANCH  15  16
ATOM     16  C   UNL     1       7.327   6.980  17.723  0.00  0.00    +0.000 C 
BRANCH  16  17
ATOM     17  C   UNL     1       7.952   8.340  17.389  0.00  0.00    +0.000 C 
BRANCH  17  18
ATOM     18  C   UNL     1       8.693   8.928  18.593  0.00  0.00    +0.000 C 
BRANCH  18  19
ATOM     19  C   UNL     1       8.892  10.434  18.481  0.00  0.00    +0.000 C 
BRANCH  19  20
ATOM     20  C   UNL     1       9.922  10.903  19.508  0.00  0.00    +0.000 C 
BRANCH  20  21
ATOM     21  C   UNL     1      11.141  11.518  18.831  0.00  0.00    +0.000 C 
ATOM     22  C   UNL     1      12.221  11.863  19.844  0.00  0.00    +0.000 C 
ENDBRANCH  20  21
ENDBRANCH  19  20
ENDBRANCH  18  19
ENDBRANCH  17  18
ENDBRANCH  16  17
ENDBRANCH  15  16
ENDBRANCH   1  15
BRANCH   1  23
ATOM     23  C   UNL     1       6.088   4.251  16.070  0.00  0.00    +0.000 C 
BRANCH  23  24
ATOM     24  C   UNL     1       6.325   4.579  14.585  0.00  0.00    +0.000 C 
BRANCH  24  25
ATOM     25  C   UNL     1       6.116   3.436  13.594  0.00  0.00    +0.000 C 
BRANCH  25  26
ATOM     26  C   UNL     1       5.726   3.932  12.206  0.00  0.00    +0.000 C 
BRANCH  26  27
ATOM     27  C   UNL     1       4.865   2.914  11.458  0.00  0.00    +0.000 C 
BRANCH  27  28
ATOM     28  C   UNL     1       3.494   3.506  11.132  0.00  0.00    +0.000 C 
BRANCH  28  30
ATOM     29  C   UNL     1       2.431   4.733   9.210  0.00  0.00    +0.000 C 
ATOM     30  C   UNL     1       3.232   3.510   9.629  0.00  0.00    +0.000 C 
ENDBRANCH  28  30
ENDBRANCH  27  28
ENDBRANCH  26  27
ENDBRANCH  25  26
ENDBRANCH  24  25
ENDBRANCH  23  24
ENDBRANCH   1  23
TORSDOF 21
ENDMDL
MODEL 9
REMARK VINA RESULT:      -5.8      1.036      2.061
REMARK  Name = 
REMARK  23 active torsions:
REMARK  status: ('A' for Active; 'I' for Inactive)
REMARK    1  A    between atoms: C_1  and  C_2
REMARK    2  A    between atoms: C_2  and  C_3
REMARK    3  A    between atoms: C_3  and  C_4
REMARK    4  A    between atoms: C_4  and  C_5
REMARK    5  A    between atoms: C_5  and  C_6
REMARK    6  A    between atoms: C_6  and  C_7
REMARK    7  A    between atoms: C_7  and  C_8
REMARK    8  A    between atoms: C_8  and  N_9
REMARK    9  A    between atoms: N_9  and  C_10
REMARK   10  A    between atoms: C_10  and  C_11
REMARK   11  A    between atoms: C_11  and  C_12
REMARK   12  A    between atoms: C_12  and  C_13
REMARK   13  A    between atoms: C_13  and  C_14
REMARK   14  A    between atoms: C_14  and  C_15
REMARK   15  A    between atoms: C_15  and  C_16
REMARK   16  A    between atoms: C_16  and  C_17
REMARK   17  A    between atoms: C_18  and  C_20
REMARK   18  A    between atoms: C_20  and  N_21
REMARK   19  A    between atoms: C_20  and  C_22
REMARK   20  A    between atoms: C_22  and  C_23
REMARK   21  A    between atoms: C_23  and  C_24
REMARK   22  A    between atoms: C_24  and  C_25
REMARK   23  A    between atoms: C_25  and  N_26
REMARK                            x       y       z     vdW  Elec       q    Type
REMARK                         _______ _______ _______ _____ _____    ______ ____
ROOT
ATOM      1  N   UNL     1       4.535   5.779  18.339  0.00  0.00    +0.000 N 
ATOM      2  C   UNL     1       5.871   5.434  18.054  0.00  0.00    +0.000 C 
ATOM      3  O   UNL     1       6.605   4.911  18.899  0.00  0.00    +0.000 OA
ENDROOT
BRANCH   2   4
ATOM      4  C   UNL     1       6.458   5.805  16.655  0.00  0.00    +0.000 C 
BRANCH   4   5
ATOM      5  N   UNL     1       7.524   6.818  16.836  0.00  0.00    +0.000 NA
ATOM      6  H   UNL     1       8.152   6.751  16.030  0.00  0.00    +0.000 HD
ATOM      7  H   UNL     1       8.094   6.577  17.642  0.00  0.00    +0.000 HD
ENDBRANCH   4   5
BRANCH   4   8
ATOM      8  C   UNL     1       7.081   4.577  15.966  0.00  0.00    +0.000 C 
BRANCH   8   9
ATOM      9  C   UNL     1       6.011   3.660  15.364  0.00  0.00    +0.000 C 
BRANCH   9  10
ATOM     10  C   UNL     1       5.506   4.189  14.020  0.00  0.00    +0.000 C 
BRANCH  10  11
ATOM     11  C   UNL     1       6.489   3.847  12.901  0.00  0.00    +0.000 C 
BRANCH  11  12
ATOM     12  N   UNL     1       6.107   2.601  12.249  0.00  0.00    +0.000 NA
ATOM     13  H   UNL     1       6.804   1.883  12.443  0.00  0.00    +0.000 HD
ATOM     14  H   UNL     1       6.104   2.735  11.240  0.00  0.00    +0.000 HD
ENDBRANCH  11  12
ENDBRANCH  10  11
ENDBRANCH   9  10
ENDBRANCH   8   9
ENDBRANCH   4   8
ENDBRANCH   2   4
BRANCH   1  15
ATOM     15  C   UNL     1       3.757   6.597  17.401  0.00  0.00    +0.000 C 
BRANCH  15  16
ATOM     16  C   UNL     1       3.350   8.013  17.809  0.00  0.00    +0.000 C 
BRANCH  16  17
ATOM     17  C   UNL     1       1.843   8.266  17.686  0.00  0.00    +0.000 C 
BRANCH  17  18
ATOM     18  C   UNL     1       1.400   9.451  18.547  0.00  0.00    +0.000 C 
BRANCH  18  19
ATOM     19  C   UNL     1       0.003   9.944  18.192  0.00  0.00    +0.000 C 
BRANCH  19  20
ATOM     20  C   UNL     1      -0.644  10.603  19.412  0.00  0.00    +0.000 C 
BRANCH  20  21
ATOM     21  C   UNL     1      -1.080  12.031  19.106  0.00  0.00    +0.000 C 
ATOM     22  C   UNL     1      -2.377  12.377  19.819  0.00  0.00    +0.000 C 
ENDBRANCH  20  21
ENDBRANCH  19  20
ENDBRANCH  18  19
ENDBRANCH  17  18
ENDBRANCH  16  17
ENDBRANCH  15  16
ENDBRANCH   1  15
BRANCH   1  23
ATOM     23  C   UNL     1       4.044   5.500  19.698  0.00  0.00    +0.000 C 
BRANCH  23  24
ATOM     24  C   UNL     1       2.522   5.372  19.885  0.00  0.00    +0.000 C 
BRANCH  24  25
ATOM     25  C   UNL     1       2.050   4.580  21.104  0.00  0.00    +0.000 C 
BRANCH  25  26
ATOM     26  C   UNL     1       1.068   3.473  20.735  0.00  0.00    +0.000 C 
BRANCH  26  27
ATOM     27  C   UNL     1       1.742   2.357  19.937  0.00  0.00    +0.000 C 
BRANCH  27  28
ATOM     28  C   UNL     1       1.254   2.364  18.488  0.00  0.00    +0.000 C 
BRANCH  28  30
ATOM     29  C   UNL     1       3.723   2.142  18.059  0.00  0.00    +0.000 C 
ATOM     30  C   UNL     1       2.396   2.648  17.517  0.00  0.00    +0.000 C 
ENDBRANCH  28  30
ENDBRANCH  27  28
ENDBRANCH  26  27
ENDBRANCH  25  26
ENDBRANCH  24  25
ENDBRANCH  23  24
ENDBRANCH   1  23
TORSDOF 21
ENDMDL
