MODEL 1
REMARK VINA RESULT:      -6.0      0.000      0.000
REMARK  Name = 
REMARK  4 active torsions:
REMARK  status: ('A' for Active; 'I' for Inactive)
REMARK    1  A    between atoms: C_2  and  C_3
REMARK    2  A    between atoms: C_3  and  N_4
REMARK    3  A    between atoms: C_8  and  C_9
REMARK    4  A    between atoms: C_9  and  O_11
REMARK                            x       y       z     vdW  Elec       q    Type
REMARK                         _______ _______ _______ _____ _____    ______ ____
ROOT
ATOM      1  N   UNL     1       1.856   4.334  18.686  0.00  0.00    +0.000 N 
ATOM      2  C   UNL     1       3.178   4.502  18.241  0.00  0.00    +0.000 A 
ATOM      3  C   UNL     1       3.575   3.842  17.079  0.00  0.00    +0.000 A 
ATOM      4  C   UNL     1       4.880   3.997  16.606  0.00  0.00    +0.000 A 
ATOM      5  C   UNL     1       5.748   4.850  17.286  0.00  0.00    +0.000 A 
ATOM      6  C   UNL     1       5.262   5.513  18.399  0.00  0.00    +0.000 A 
ATOM      7  N   UNL     1       4.012   5.336  18.894  0.00  0.00    +0.000 NA
ATOM      8  H   UNL     1       1.253   4.878  18.075  0.00  0.00    +0.000 HD
ENDROOT
BRANCH   5   9
ATOM      9  C   UNL     1       7.136   5.119  16.862  0.00  0.00    +0.000 C 
ATOM     10  O   UNL     1       7.467   6.160  16.321  0.00  0.00    +0.000 OA
BRANCH   9  11
ATOM     11  O   UNL     1       8.002   4.133  17.166  0.00  0.00    +0.000 OA
ATOM     12  H   UNL     1       8.942   4.385  17.166  0.00  0.00    +0.000 HD
ENDBRANCH   9  11
ENDBRANCH   5   9
BRANCH   1  13
ATOM     13  C   UNL     1       1.676   4.714  20.079  0.00  0.00    +0.000 C 
BRANCH  13  15
ATOM     14  C   UNL     1       1.851   2.704  21.571  0.00  0.00    +0.000 C 
ATOM     15  C   UNL     1       1.121   3.521  20.802  0.00  0.00    +0.000 C 
ENDBRANCH  13  15
ENDBRANCH   1  13
TORSDOF 4
ENDMDL
MODEL 2
REMARK VINA RESULT:      -6.0      0.777      1.061
REMARK  Name = 
REMARK  4 active torsions:
REMARK  status: ('A' for Active; 'I' for Inactive)
REMARK    1  A    between atoms: C_2  and  C_3
REMARK    2  A    between atoms: C_3  and  N_4
REMARK    3  A    between atoms: C_8  and  C_9
REMARK    4  A    between atoms: C_9  and  O_11
REMARK                            x       y       z     vdW  Elec       q    Type
REMARK                         _______ _______ _______ _____ _____    ______ ____
ROOT
ATOM      1  N   UNL     1       2.166   5.093  19.199  0.00  0.00    +0.000 N 
ATOM      2  C   UNL     1       3.458   4.923  18.674  0.00  0.00    +0.000 A 
ATOM      3  C   UNL     1       3.587   4.592  17.326  0.00  0.00    +0.000 A 
ATOM      4  C   UNL     1       4.859   4.425  16.774  0.00  0.00    +0.000 A 
ATOM      5  C   UNL     1       5.978   4.638  17.577  0.00  0.00    +0.000 A 
ATOM      6  C   UNL     1       5.768   5.019  18.891  0.00  0.00    +0.000 A 
ATOM      7  N   UNL     1       4.539   5.140  19.450  0.00  0.00    +0.000 NA
ATOM      8  H   UNL     1       1.812   5.986  18.863  0.00  0.00    +0.000 HD
ENDROOT
BRANCH   5   9
ATOM      9  C   UNL     1       7.370   4.525  17.096  0.00  0.00    +0.000 C 
ATOM     10  O   UNL     1       8.287   4.174  17.818  0.00  0.00    +0.000 OA
BRANCH   9  11
ATOM     11  O   UNL     1       7.520   4.803  15.787  0.00  0.00    +0.000 OA
ATOM     12  H   UNL     1       8.237   5.425  15.569  0.00  0.00    +0.000 HD
ENDBRANCH   9  11
ENDBRANCH   5   9
BRANCH   1  13
ATOM     13  C   UNL     1       2.131   5.026  20.652  0.00  0.00    +0.000 C 
BRANCH  13  15
ATOM     14  C   UNL     1       2.166   2.727  21.655  0.00  0.00    +0.000 C 
ATOM     15  C   UNL     1       1.512   3.711  21.026  0.00  0.00    +0.000 C 
ENDBRANCH  13  15
ENDBRANCH   1  13
TORSDOF 4
ENDMDL
MODEL 3
REMARK VINA RESULT:      -6.0      1.398      1.476
REMARK  Name = 
REMARK  4 active torsions:
REMARK  status: ('A' for Active; 'I' for Inactive)
REMARK    1  A    between atoms: C_2  and  C_3
REMARK    2  A    between atoms: C_3  and  N_4
REMARK    3  A    between atoms: C_8  and  C_9
REMARK    4  A    between atoms: C_9  and  O_11
REMARK                            x       y       z     vdW  Elec       q    Type
REMARK                         _______ _______ _______ _____ _____    ______ ____
ROOT
ATOM      1  N   UNL     1       2.550   5.817  19.851  0.00  0.00    +0.000 N 
ATOM      2  C   UNL     1       3.681   5.618  19.040  0.00  0.00    +0.000 A 
ATOM      3  C   UNL     1       3.828   6.410  17.903  0.00  0.00    +0.000 A 
ATOM      4  C   UNL     1       4.946   6.241  17.083  0.00  0.00    +0.000 A 
ATOM      5  C   UNL     1       5.917   5.310  17.447  0.00  0.00    +0.000 A 
ATOM      6  C   UNL     1       5.726   4.602  18.620  0.00  0.00    +0.000 A 
ATOM      7  N   UNL     1       4.623   4.724  19.400  0.00  0.00    +0.000 NA
ATOM      8  H   UNL     1       2.692   6.679  20.371  0.00  0.00    +0.000 HD
ENDROOT
BRANCH   5   9
ATOM      9  C   UNL     1       7.155   5.069  16.679  0.00  0.00    +0.000 C 
ATOM     10  O   UNL     1       7.397   5.638  15.629  0.00  0.00    +0.000 OA
BRANCH   9  11
ATOM     11  O   UNL     1       8.001   4.201  17.265  0.00  0.00    +0.000 OA
ATOM     12  H   UNL     1       7.661   3.756  18.062  0.00  0.00    +0.000 HD
ENDBRANCH   9  11
ENDBRANCH   5   9
BRANCH   1  13
ATOM     13  C   UNL     1       2.289   4.698  20.744  0.00  0.00    +0.000 C 
BRANCH  13  15
ATOM     14  C   UNL     1       0.909   2.968  19.565  0.00  0.00    +0.000 C 
ATOM     15  C   UNL     1       0.995   4.073  20.315  0.00  0.00    +0.000 C 
ENDBRANCH  13  15
ENDBRANCH   1  13
TORSDOF 4
ENDMDL
MODEL 4
REMARK VINA RESULT:      -5.8      3.532      5.627
REMARK  Name = 
REMARK  4 active torsions:
REMARK  status: ('A' for Active; 'I' for Inactive)
REMARK    1  A    between atoms: C_2  and  C_3
REMARK    2  A    between atoms: C_3  and  N_4
REMARK    3  A    between atoms: C_8  and  C_9
REMARK    4  A    between atoms: C_9  and  O_11
REMARK                            x       y       z     vdW  Elec       q    Type
REMARK                         _______ _______ _______ _____ _____    ______ ____
ROOT
ATOM      1  N   UNL     1       5.730   4.879  17.315  0.00  0.00    +0.000 N 
ATOM      2  C   UNL     1       4.750   4.460  18.230  0.00  0.00    +0.000 A 
ATOM      3  C   UNL     1       3.442   4.910  18.052  0.00  0.00    +0.000 A 
ATOM      4  C   UNL     1       2.444   4.503  18.940  0.00  0.00    +0.000 A 
ATOM      5  C   UNL     1       2.771   3.614  19.963  0.00  0.00    +0.000 A 
ATOM      6  C   UNL     1       4.079   3.169  20.039  0.00  0.00    +0.000 A 
ATOM      7  N   UNL     1       5.066   3.592  19.211  0.00  0.00    +0.000 NA
ATOM      8  H   UNL     1       5.585   4.365  16.449  0.00  0.00    +0.000 HD
ENDROOT
BRANCH   5   9
ATOM      9  C   UNL     1       1.796   3.088  20.939  0.00  0.00    +0.000 C 
ATOM     10  O   UNL     1       2.115   2.730  22.058  0.00  0.00    +0.000 OA
BRANCH   9  11
ATOM     11  O   UNL     1       0.525   3.081  20.491  0.00  0.00    +0.000 OA
ATOM     12  H   UNL     1       0.319   3.740  19.805  0.00  0.00    +0.000 HD
ENDBRANCH   9  11
ENDBRANCH   5   9
BRANCH   1  13
ATOM     13  C   UNL     1       7.085   4.699  17.814  0.00  0.00    +0.000 C 
BRANCH  13  15
ATOM     14  C   UNL     1       7.577   7.151  17.622  0.00  0.00    +0.000 C 
ATOM     15  C   UNL     1       7.549   6.024  18.344  0.00  0.00    +0.000 C 
ENDBRANCH  13  15
ENDBRANCH   1  13
TORSDOF 4
ENDMDL
MODEL 5
REMARK VINA RESULT:      -5.8      3.649      5.582
REMARK  Name = 
REMARK  4 active torsions:
REMARK  status: ('A' for Active; 'I' for Inactive)
REMARK    1  A    between atoms: C_2  and  C_3
REMARK    2  A    between atoms: C_3  and  N_4
REMARK    3  A    between atoms: C_8  and  C_9
REMARK    4  A    between atoms: C_9  and  O_11
REMARK                            x       y       z     vdW  Elec       q    Type
REMARK                         _______ _______ _______ _____ _____    ______ ____
ROOT
ATOM      1  N   UNL     1       6.288   4.209  18.267  0.00  0.00    +0.000 N 
ATOM      2  C   UNL     1       4.935   3.890  18.471  0.00  0.00    +0.000 A 
ATOM      3  C   UNL     1       4.352   2.921  17.655  0.00  0.00    +0.000 A 
ATOM      4  C   UNL     1       3.012   2.577  17.839  0.00  0.00    +0.000 A 
ATOM      5  C   UNL     1       2.294   3.180  18.871  0.00  0.00    +0.000 A 
ATOM      6  C   UNL     1       2.959   4.091  19.673  0.00  0.00    +0.000 A 
ATOM      7  N   UNL     1       4.246   4.467  19.475  0.00  0.00    +0.000 NA
ATOM      8  H   UNL     1       6.845   3.444  18.641  0.00  0.00    +0.000 HD
ENDROOT
BRANCH   5   9
ATOM      9  C   UNL     1       0.885   2.872  19.183  0.00  0.00    +0.000 C 
ATOM     10  O   UNL     1       0.192   2.171  18.466  0.00  0.00    +0.000 OA
BRANCH   9  11
ATOM     11  O   UNL     1       0.455   3.398  20.346  0.00  0.00    +0.000 OA
ATOM     12  H   UNL     1       1.102   3.394  21.073  0.00  0.00    +0.000 HD
ENDBRANCH   9  11
ENDBRANCH   5   9
BRANCH   1  13
ATOM     13  C   UNL     1       6.667   5.479  18.867  0.00  0.00    +0.000 C 
BRANCH  13  15
ATOM     14  C   UNL     1       7.660   7.530  17.818  0.00  0.00    +0.000 C 
ATOM     15  C   UNL     1       7.542   6.198  17.882  0.00  0.00    +0.000 C 
ENDBRANCH  13  15
ENDBRANCH   1  13
TORSDOF 4
ENDMDL
MODEL 6
REMARK VINA RESULT:      -5.7      1.765      2.082
REMARK  Name = 
REMARK  4 active torsions:
REMARK  status: ('A' for Active; 'I' for Inactive)
REMARK    1  A    between atoms: C_2  and  C_3
REMARK    2  A    between atoms: C_3  and  N_4
REMARK    3  A    between atoms: C_8  and  C_9
REMARK    4  A    between atoms: C_9  and  O_11
REMARK                            x       y       z     vdW  Elec       q    Type
REMARK                         _______ _______ _______ _____ _____    ______ ____
ROOT
ATOM      1  N   UNL     1       2.813   5.708  18.723  0.00  0.00    +0.000 N 
ATOM      2  C   UNL     1       3.746   5.463  17.701  0.00  0.00    +0.000 A 
ATOM      3  C   UNL     1       4.392   6.554  17.119  0.00  0.00    +0.000 A 
ATOM      4  C   UNL     1       5.331   6.341  16.107  0.00  0.00    +0.000 A 
ATOM      5  C   UNL     1       5.636   5.034  15.731  0.00  0.00    +0.000 A 
ATOM      6  C   UNL     1       4.993   4.004  16.395  0.00  0.00    +0.000 A 
ATOM      7  N   UNL     1       4.047   4.199  17.346  0.00  0.00    +0.000 NA
ATOM      8  H   UNL     1       3.333   5.951  19.563  0.00  0.00    +0.000 HD
ENDROOT
BRANCH   5   9
ATOM      9  C   UNL     1       6.634   4.686  14.700  0.00  0.00    +0.000 C 
ATOM     10  O   UNL     1       7.615   5.374  14.478  0.00  0.00    +0.000 OA
BRANCH   9  11
ATOM     11  O   UNL     1       6.382   3.526  14.065  0.00  0.00    +0.000 OA
ATOM     12  H   UNL     1       6.604   3.510  13.117  0.00  0.00    +0.000 HD
ENDBRANCH   9  11
ENDBRANCH   5   9
BRANCH   1  13
ATOM     13  C   UNL     1       1.925   4.580  18.960  0.00  0.00    +0.000 C 
BRANCH  13  15
ATOM     14  C   UNL     1       1.804   3.624  21.276  0.00  0.00    +0.000 C 
ATOM     15  C   UNL     1       1.540   4.610  20.410  0.00  0.00    +0.000 C 
ENDBRANCH  13  15
ENDBRANCH   1  13
TORSDOF 4
ENDMDL
MODEL 7
REMARK VINA RESULT:      -5.7      3.649      5.691
REMARK  Name = 
REMARK  4 active torsions:
REMARK  status: ('A' for Active; 'I' for Inactive)
REMARK    1  A    between atoms: C_2  and  C_3
REMARK    2  A    between atoms: C_3  and  N_4
REMARK    3  A    between atoms: C_8  and  C_9
REMARK    4  A    between atoms: C_9  and  O_11
REMARK                            x       y       z     vdW  Elec       q    Type
REMARK                         _______ _______ _______ _____ _____    ______ ____
ROOT
ATOM      1  N   UNL     1       5.183   3.421  16.633  0.00  0.00    +0.000 N 
ATOM      2  C   UNL     1       4.335   3.311  17.749  0.00  0.00    +0.000 A 
ATOM      3  C   UNL     1       3.517   2.187  17.851  0.00  0.00    +0.000 A 
ATOM      4  C   UNL     1       2.672   2.045  18.953  0.00  0.00    +0.000 A 
ATOM      5  C   UNL     1       2.698   3.014  19.954  0.00  0.00    +0.000 A 
ATOM      6  C   UNL     1       3.577   4.072  19.807  0.00  0.00    +0.000 A 
ATOM      7  N   UNL     1       4.370   4.244  18.720  0.00  0.00    +0.000 NA
ATOM      8  H   UNL     1       5.955   2.772  16.766  0.00  0.00    +0.000 HD
ENDROOT
BRANCH   5   9
ATOM      9  C   UNL     1       1.876   2.954  21.179  0.00  0.00    +0.000 C 
ATOM     10  O   UNL     1       2.362   2.947  22.296  0.00  0.00    +0.000 OA
BRANCH   9  11
ATOM     11  O   UNL     1       0.549   2.949  20.947  0.00  0.00    +0.000 OA
ATOM     12  H   UNL     1       0.027   2.349  21.508  0.00  0.00    +0.000 HD
ENDBRANCH   9  11
ENDBRANCH   5   9
BRANCH   1  13
ATOM     13  C   UNL     1       5.665   4.778  16.420  0.00  0.00    +0.000 C 
BRANCH  13  15
ATOM     14  C   UNL     1       5.919   4.080  14.024  0.00  0.00    +0.000 C 
ATOM     15  C   UNL     1       5.673   5.024  14.940  0.00  0.00    +0.000 C 
ENDBRANCH  13  15
ENDBRANCH   1  13
TORSDOF 4
ENDMDL
MODEL 8
REMARK VINA RESULT:      -5.7      1.820      2.316
REMARK  Name = 
REMARK  4 active torsions:
REMARK  status: ('A' for Active; 'I' for Inactive)
REMARK    1  A    between atoms: C_2  and  C_3
REMARK    2  A    between atoms: C_3  and  N_4
REMARK    3  A    between atoms: C_8  and  C_9
REMARK    4  A    between atoms: C_9  and  O_11
REMARK                            x       y       z     vdW  Elec       q    Type
REMARK                         _______ _______ _______ _____ _____    ______ ____
ROOT
ATOM      1  N   UNL     1       2.083   5.608  20.671  0.00  0.00    +0.000 N 
ATOM      2  C   UNL     1       2.969   5.869  19.612  0.00  0.00    +0.000 A 
ATOM      3  C   UNL     1       2.682   6.931  18.755  0.00  0.00    +0.000 A 
ATOM      4  C   UNL     1       3.549   7.221  17.699  0.00  0.00    +0.000 A 
ATOM      5  C   UNL     1       4.712   6.466  17.553  0.00  0.00    +0.000 A 
ATOM      6  C   UNL     1       4.954   5.465  18.477  0.00  0.00    +0.000 A 
ATOM      7  N   UNL     1       4.098   5.145  19.479  0.00  0.00    +0.000 NA
ATOM      8  H   UNL     1       2.228   6.324  21.379  0.00  0.00    +0.000 HD
ENDROOT
BRANCH   5   9
ATOM      9  C   UNL     1       5.718   6.701  16.498  0.00  0.00    +0.000 C 
ATOM     10  O   UNL     1       6.890   6.922  16.746  0.00  0.00    +0.000 OA
BRANCH   9  11
ATOM     11  O   UNL     1       5.229   6.608  15.246  0.00  0.00    +0.000 OA
ATOM     12  H   UNL     1       5.468   5.798  14.761  0.00  0.00    +0.000 HD
ENDBRANCH   9  11
ENDBRANCH   5   9
BRANCH   1  13
ATOM     13  C   UNL     1       2.246   4.274  21.230  0.00  0.00    +0.000 C 
BRANCH  13  15
ATOM     14  C   UNL     1       1.141   2.747  19.575  0.00  0.00    +0.000 C 
ATOM     15  C   UNL     1       1.111   3.434  20.724  0.00  0.00    +0.000 C 
ENDBRANCH  13  15
ENDBRANCH   1  13
TORSDOF 4
ENDMDL
MODEL 9
REMARK VINA RESULT:      -5.6      1.106      1.581
REMARK  Name = 
REMARK  4 active torsions:
REMARK  status: ('A' for Active; 'I' for Inactive)
REMARK    1  A    between atoms: C_2  and  C_3
REMARK    2  A    between atoms: C_3  and  N_4
REMARK    3  A    between atoms: C_8  and  C_9
REMARK    4  A    between atoms: C_9  and  O_11
REMARK                            x       y       z     vdW  Elec       q    Type
REMARK                         _______ _______ _______ _____ _____    ______ ____
ROOT
ATOM      1  N   UNL     1       2.035   5.258  19.085  0.00  0.00    +0.000 N 
ATOM      2  C   UNL     1       3.277   5.363  18.436  0.00  0.00    +0.000 A 
ATOM      3  C   UNL     1       3.579   6.551  17.771  0.00  0.00    +0.000 A 
ATOM      4  C   UNL     1       4.809   6.688  17.125  0.00  0.00    +0.000 A 
ATOM      5  C   UNL     1       5.731   5.645  17.198  0.00  0.00    +0.000 A 
ATOM      6  C   UNL     1       5.379   4.521  17.924  0.00  0.00    +0.000 A 
ATOM      7  N   UNL     1       4.171   4.358  18.517  0.00  0.00    +0.000 NA
ATOM      8  H   UNL     1       2.082   5.816  19.935  0.00  0.00    +0.000 HD
ENDROOT
BRANCH   5   9
ATOM      9  C   UNL     1       7.074   5.690  16.585  0.00  0.00    +0.000 C 
ATOM     10  O   UNL     1       7.611   4.706  16.109  0.00  0.00    +0.000 OA
BRANCH   9  11
ATOM     11  O   UNL     1       7.624   6.919  16.565  0.00  0.00    +0.000 OA
ATOM     12  H   UNL     1       8.101   7.152  15.749  0.00  0.00    +0.000 HD
ENDBRANCH   9  11
ENDBRANCH   5   9
BRANCH   1  13
ATOM     13  C   UNL     1       1.664   3.882  19.378  0.00  0.00    +0.000 C 
BRANCH  13  15
ATOM     14  C   UNL     1       1.480   2.678  21.571  0.00  0.00    +0.000 C 
ATOM     15  C   UNL     1       1.371   3.799  20.847  0.00  0.00    +0.000 C 
ENDBRANCH  13  15
ENDBRANCH   1  13
TORSDOF 4
ENDMDL
