MODEL 1
REMARK VINA RESULT:      -8.5      0.000      0.000
REMARK  Name = 
REMARK  3 active torsions:
REMARK  status: ('A' for Active; 'I' for Inactive)
REMARK    1  A    between atoms: C_1  and  N_2
REMARK    2  A    between atoms: C_9  and  C_10
REMARK    3  A    between atoms: C_16  and  C_17
REMARK                            x       y       z     vdW  Elec       q    Type
REMARK                         _______ _______ _______ _____ _____    ______ ____
ROOT
ATOM      1  C   UNL     1       2.096   5.866  19.964  0.00  0.00    +0.000 A 
ATOM      2  C   UNL     1       1.472   4.959  20.799  0.00  0.00    +0.000 A 
ATOM      3  N   UNL     1       1.969   3.710  20.516  0.00  0.00    +0.000 N 
ATOM      4  C   UNL     1       2.921   3.784  19.525  0.00  0.00    +0.000 A 
ATOM      5  C   UNL     1       3.691   2.780  18.926  0.00  0.00    +0.000 A 
ATOM      6  C   UNL     1       4.607   3.166  17.936  0.00  0.00    +0.000 A 
ATOM      7  C   UNL     1       4.768   4.505  17.553  0.00  0.00    +0.000 A 
ATOM      8  C   UNL     1       3.956   5.479  18.157  0.00  0.00    +0.000 A 
ATOM      9  C   UNL     1       3.024   5.123  19.160  0.00  0.00    +0.000 A 
ATOM     10  H   UNL     1       1.683   2.854  20.969  0.00  0.00    +0.000 HD
ENDROOT
BRANCH   1  19
ATOM     11  C   UNL     1      -1.510  14.782  20.488  0.00  0.00    +0.000 C 
ATOM     12  N   UNL     1      -0.424  13.899  20.070  0.00  0.00    +0.000 NA
ATOM     13  C   UNL     1      -0.913  12.910  19.073  0.00  0.00    +0.000 C 
ATOM     14  C   UNL     1       0.152  11.845  18.685  0.00  0.00    +0.000 C 
ATOM     15  N   UNL     1       0.605  11.207  19.922  0.00  0.00    +0.000 N 
ATOM     16  C   UNL     1       1.110   9.922  19.882  0.00  0.00    +0.000 A 
ATOM     17  C   UNL     1       1.044   9.128  21.033  0.00  0.00    +0.000 A 
ATOM     18  N   UNL     1       1.393   7.825  21.092  0.00  0.00    +0.000 NA
ATOM     19  C   UNL     1       1.835   7.293  19.932  0.00  0.00    +0.000 A 
ATOM     20  C   UNL     1       1.936   8.071  18.783  0.00  0.00    +0.000 A 
ATOM     21  N   UNL     1       1.567   9.383  18.730  0.00  0.00    +0.000 NA
ATOM     22  C   UNL     1       1.210  12.155  20.866  0.00  0.00    +0.000 C 
ATOM     23  C   UNL     1       0.144  13.203  21.247  0.00  0.00    +0.000 C 
ENDBRANCH   1  19
BRANCH   7  24
ATOM     24  C   UNL     1       5.779   4.858  16.545  0.00  0.00    +0.000 A 
ATOM     25  N   UNL     1       6.778   5.700  16.730  0.00  0.00    +0.000 NA
ATOM     26  N   UNL     1       7.533   5.884  15.584  0.00  0.00    +0.000 NA
ATOM     27  C   UNL     1       7.069   5.197  14.563  0.00  0.00    +0.000 A 
ATOM     28  N   UNL     1       7.598   5.214  13.326  0.00  0.00    +0.000 N 
ATOM     29  S   UNL     1       5.695   4.247  14.934  0.00  0.00    +0.000 S 
ATOM     30  H   UNL     1       8.543   5.576  13.242  0.00  0.00    +0.000 HD
ATOM     31  H   UNL     1       7.374   4.457  12.692  0.00  0.00    +0.000 HD
ENDBRANCH   7  24
TORSDOF 2
ENDMDL
MODEL 2
REMARK VINA RESULT:      -8.0      4.055      9.095
REMARK  Name = 
REMARK  3 active torsions:
REMARK  status: ('A' for Active; 'I' for Inactive)
REMARK    1  A    between atoms: C_1  and  N_2
REMARK    2  A    between atoms: C_9  and  C_10
REMARK    3  A    between atoms: C_16  and  C_17
REMARK                            x       y       z     vdW  Elec       q    Type
REMARK                         _______ _______ _______ _____ _____    ______ ____
ROOT
ATOM      1  C   UNL     1       0.392  11.456  18.797  0.00  0.00    +0.000 A 
ATOM      2  C   UNL     1      -0.979  11.627  18.766  0.00  0.00    +0.000 A 
ATOM      3  N   UNL     1      -1.238  12.975  18.706  0.00  0.00    +0.000 N 
ATOM      4  C   UNL     1      -0.062  13.690  18.678  0.00  0.00    +0.000 A 
ATOM      5  C   UNL     1       0.163  15.070  18.614  0.00  0.00    +0.000 A 
ATOM      6  C   UNL     1       1.494  15.512  18.583  0.00  0.00    +0.000 A 
ATOM      7  C   UNL     1       2.574  14.619  18.606  0.00  0.00    +0.000 A 
ATOM      8  C   UNL     1       2.308  13.243  18.702  0.00  0.00    +0.000 A 
ATOM      9  C   UNL     1       0.977  12.765  18.732  0.00  0.00    +0.000 A 
ATOM     10  H   UNL     1      -2.158  13.390  18.685  0.00  0.00    +0.000 HD
ENDROOT
BRANCH   1  19
ATOM     11  C   UNL     1       3.626   2.438  17.814  0.00  0.00    +0.000 C 
ATOM     12  N   UNL     1       3.648   3.696  18.556  0.00  0.00    +0.000 NA
ATOM     13  C   UNL     1       2.303   3.993  19.116  0.00  0.00    +0.000 C 
ATOM     14  C   UNL     1       2.212   5.387  19.799  0.00  0.00    +0.000 C 
ATOM     15  N   UNL     1       2.635   6.385  18.817  0.00  0.00    +0.000 N 
ATOM     16  C   UNL     1       2.174   7.683  18.920  0.00  0.00    +0.000 A 
ATOM     17  C   UNL     1       2.115   8.479  17.770  0.00  0.00    +0.000 A 
ATOM     18  N   UNL     1       1.578   9.716  17.716  0.00  0.00    +0.000 NA
ATOM     19  C   UNL     1       1.076  10.180  18.881  0.00  0.00    +0.000 A 
ATOM     20  C   UNL     1       1.149   9.417  20.042  0.00  0.00    +0.000 A 
ATOM     21  N   UNL     1       1.681   8.162  20.084  0.00  0.00    +0.000 NA
ATOM     22  C   UNL     1       4.012   6.180  18.349  0.00  0.00    +0.000 C 
ATOM     23  C   UNL     1       4.089   4.798  17.669  0.00  0.00    +0.000 C 
ENDBRANCH   1  19
BRANCH   7  24
ATOM     24  C   UNL     1       3.948  15.137  18.522  0.00  0.00    +0.000 A 
ATOM     25  N   UNL     1       4.966  14.508  17.964  0.00  0.00    +0.000 NA
ATOM     26  N   UNL     1       6.153  15.210  18.089  0.00  0.00    +0.000 NA
ATOM     27  C   UNL     1       6.003  16.333  18.757  0.00  0.00    +0.000 A 
ATOM     28  N   UNL     1       6.998  17.193  19.042  0.00  0.00    +0.000 N 
ATOM     29  S   UNL     1       4.393  16.634  19.253  0.00  0.00    +0.000 S 
ATOM     30  H   UNL     1       7.852  17.092  18.503  0.00  0.00    +0.000 HD
ATOM     31  H   UNL     1       6.760  18.144  19.291  0.00  0.00    +0.000 HD
ENDBRANCH   7  24
TORSDOF 2
ENDMDL
MODEL 3
REMARK VINA RESULT:      -8.0      1.008      1.554
REMARK  Name = 
REMARK  3 active torsions:
REMARK  status: ('A' for Active; 'I' for Inactive)
REMARK    1  A    between atoms: C_1  and  N_2
REMARK    2  A    between atoms: C_9  and  C_10
REMARK    3  A    between atoms: C_16  and  C_17
REMARK                            x       y       z     vdW  Elec       q    Type
REMARK                         _______ _______ _______ _____ _____    ______ ____
ROOT
ATOM      1  C   UNL     1       2.116   5.660  20.175  0.00  0.00    +0.000 A 
ATOM      2  C   UNL     1       1.594   4.737  21.061  0.00  0.00    +0.000 A 
ATOM      3  N   UNL     1       2.207   3.530  20.828  0.00  0.00    +0.000 N 
ATOM      4  C   UNL     1       3.135   3.648  19.819  0.00  0.00    +0.000 A 
ATOM      5  C   UNL     1       3.990   2.696  19.253  0.00  0.00    +0.000 A 
ATOM      6  C   UNL     1       4.853   3.121  18.232  0.00  0.00    +0.000 A 
ATOM      7  C   UNL     1       4.878   4.449  17.784  0.00  0.00    +0.000 A 
ATOM      8  C   UNL     1       3.983   5.368  18.357  0.00  0.00    +0.000 A 
ATOM      9  C   UNL     1       3.102   4.972  19.390  0.00  0.00    +0.000 A 
ATOM     10  H   UNL     1       2.010   2.673  21.324  0.00  0.00    +0.000 HD
ENDROOT
BRANCH   1  19
ATOM     11  C   UNL     1       1.470  15.197  18.996  0.00  0.00    +0.000 C 
ATOM     12  N   UNL     1       0.846  13.949  19.432  0.00  0.00    +0.000 NA
ATOM     13  C   UNL     1       1.618  13.345  20.550  0.00  0.00    +0.000 C 
ATOM     14  C   UNL     1       1.097  11.943  20.974  0.00  0.00    +0.000 C 
ATOM     15  N   UNL     1       1.096  11.096  19.781  0.00  0.00    +0.000 N 
ATOM     16  C   UNL     1       1.206   9.725  19.916  0.00  0.00    +0.000 A 
ATOM     17  C   UNL     1       1.729   8.976  18.855  0.00  0.00    +0.000 A 
ATOM     18  N   UNL     1       1.996   7.654  18.905  0.00  0.00    +0.000 NA
ATOM     19  C   UNL     1       1.718   7.052  20.082  0.00  0.00    +0.000 A 
ATOM     20  C   UNL     1       1.172   7.771  21.139  0.00  0.00    +0.000 A 
ATOM     21  N   UNL     1       0.920   9.111  21.085  0.00  0.00    +0.000 NA
ATOM     22  C   UNL     1       0.234  11.615  18.711  0.00  0.00    +0.000 C 
ATOM     23  C   UNL     1       0.763  13.002  18.296  0.00  0.00    +0.000 C 
ENDBRANCH   1  19
BRANCH   7  24
ATOM     24  C   UNL     1       5.837   4.850  16.744  0.00  0.00    +0.000 A 
ATOM     25  N   UNL     1       6.793   5.748  16.894  0.00  0.00    +0.000 NA
ATOM     26  N   UNL     1       7.503   5.964  15.725  0.00  0.00    +0.000 NA
ATOM     27  C   UNL     1       7.047   5.244  14.723  0.00  0.00    +0.000 A 
ATOM     28  N   UNL     1       7.538   5.280  13.471  0.00  0.00    +0.000 N 
ATOM     29  S   UNL     1       5.741   4.222  15.141  0.00  0.00    +0.000 S 
ATOM     30  H   UNL     1       8.459   5.694  13.356  0.00  0.00    +0.000 HD
ATOM     31  H   UNL     1       7.339   4.507  12.849  0.00  0.00    +0.000 HD
ENDBRANCH   7  24
TORSDOF 2
ENDMDL
MODEL 4
REMARK VINA RESULT:      -7.9      3.612      8.995
REMARK  Name = 
REMARK  3 active torsions:
REMARK  status: ('A' for Active; 'I' for Inactive)
REMARK    1  A    between atoms: C_1  and  N_2
REMARK    2  A    between atoms: C_9  and  C_10
REMARK    3  A    between atoms: C_16  and  C_17
REMARK                            x       y       z     vdW  Elec       q    Type
REMARK                         _______ _______ _______ _____ _____    ______ ____
ROOT
ATOM      1  C   UNL     1       0.351  11.124  18.853  0.00  0.00    +0.000 A 
ATOM      2  C   UNL     1      -0.988  11.255  18.539  0.00  0.00    +0.000 A 
ATOM      3  N   UNL     1      -1.265  12.594  18.411  0.00  0.00    +0.000 N 
ATOM      4  C   UNL     1      -0.128  13.342  18.616  0.00  0.00    +0.000 A 
ATOM      5  C   UNL     1       0.068  14.728  18.583  0.00  0.00    +0.000 A 
ATOM      6  C   UNL     1       1.364  15.208  18.821  0.00  0.00    +0.000 A 
ATOM      7  C   UNL     1       2.440  14.347  19.077  0.00  0.00    +0.000 A 
ATOM      8  C   UNL     1       2.197  12.965  19.132  0.00  0.00    +0.000 A 
ATOM      9  C   UNL     1       0.902  12.448  18.894  0.00  0.00    +0.000 A 
ATOM     10  H   UNL     1      -2.172  12.983  18.196  0.00  0.00    +0.000 HD
ENDROOT
BRANCH   1  19
ATOM     11  C   UNL     1       3.683   2.087  18.889  0.00  0.00    +0.000 C 
ATOM     12  N   UNL     1       3.660   3.410  19.509  0.00  0.00    +0.000 NA
ATOM     13  C   UNL     1       2.287   3.744  19.971  0.00  0.00    +0.000 C 
ATOM     14  C   UNL     1       2.153   5.195  20.514  0.00  0.00    +0.000 C 
ATOM     15  N   UNL     1       2.620   6.101  19.464  0.00  0.00    +0.000 N 
ATOM     16  C   UNL     1       2.147   7.398  19.421  0.00  0.00    +0.000 A 
ATOM     17  C   UNL     1       2.142   8.082  18.199  0.00  0.00    +0.000 A 
ATOM     18  N   UNL     1       1.601   9.302  18.001  0.00  0.00    +0.000 NA
ATOM     19  C   UNL     1       1.038   9.868  19.091  0.00  0.00    +0.000 A 
ATOM     20  C   UNL     1       1.056   9.219  20.321  0.00  0.00    +0.000 A 
ATOM     21  N   UNL     1       1.592   7.979  20.508  0.00  0.00    +0.000 NA
ATOM     22  C   UNL     1       4.020   5.867  19.087  0.00  0.00    +0.000 C 
ATOM     23  C   UNL     1       4.139   4.428  18.545  0.00  0.00    +0.000 C 
ENDBRANCH   1  19
BRANCH   7  24
ATOM     24  C   UNL     1       3.788  14.904  19.271  0.00  0.00    +0.000 A 
ATOM     25  N   UNL     1       4.213  15.505  20.366  0.00  0.00    +0.000 NA
ATOM     26  N   UNL     1       5.507  15.982  20.238  0.00  0.00    +0.000 NA
ATOM     27  C   UNL     1       6.010  15.750  19.045  0.00  0.00    +0.000 A 
ATOM     28  N   UNL     1       7.238  16.128  18.646  0.00  0.00    +0.000 N 
ATOM     29  S   UNL     1       4.955  14.900  18.001  0.00  0.00    +0.000 S 
ATOM     30  H   UNL     1       7.895  16.382  19.378  0.00  0.00    +0.000 HD
ATOM     31  H   UNL     1       7.651  15.669  17.845  0.00  0.00    +0.000 HD
ENDBRANCH   7  24
TORSDOF 2
ENDMDL
MODEL 5
REMARK VINA RESULT:      -7.9      3.550      9.342
REMARK  Name = 
REMARK  3 active torsions:
REMARK  status: ('A' for Active; 'I' for Inactive)
REMARK    1  A    between atoms: C_1  and  N_2
REMARK    2  A    between atoms: C_9  and  C_10
REMARK    3  A    between atoms: C_16  and  C_17
REMARK                            x       y       z     vdW  Elec       q    Type
REMARK                         _______ _______ _______ _____ _____    ______ ____
ROOT
ATOM      1  C   UNL     1       0.334  10.578  18.710  0.00  0.00    +0.000 A 
ATOM      2  C   UNL     1      -0.776  10.642  17.889  0.00  0.00    +0.000 A 
ATOM      3  N   UNL     1      -1.198  11.948  17.848  0.00  0.00    +0.000 N 
ATOM      4  C   UNL     1      -0.375  12.745  18.610  0.00  0.00    +0.000 A 
ATOM      5  C   UNL     1      -0.415  14.122  18.857  0.00  0.00    +0.000 A 
ATOM      6  C   UNL     1       0.584  14.666  19.678  0.00  0.00    +0.000 A 
ATOM      7  C   UNL     1       1.600  13.877  20.234  0.00  0.00    +0.000 A 
ATOM      8  C   UNL     1       1.588  12.494  19.988  0.00  0.00    +0.000 A 
ATOM      9  C   UNL     1       0.596  11.915  19.162  0.00  0.00    +0.000 A 
ATOM     10  H   UNL     1      -1.999  12.284  17.332  0.00  0.00    +0.000 HD
ENDROOT
BRANCH   1  19
ATOM     11  C   UNL     1       4.083   1.726  19.307  0.00  0.00    +0.000 C 
ATOM     12  N   UNL     1       3.977   3.075  19.858  0.00  0.00    +0.000 NA
ATOM     13  C   UNL     1       2.574   3.364  20.259  0.00  0.00    +0.000 C 
ATOM     14  C   UNL     1       2.354   4.832  20.724  0.00  0.00    +0.000 C 
ATOM     15  N   UNL     1       2.814   5.707  19.645  0.00  0.00    +0.000 N 
ATOM     16  C   UNL     1       2.282   6.976  19.522  0.00  0.00    +0.000 A 
ATOM     17  C   UNL     1       2.287   7.598  18.267  0.00  0.00    +0.000 A 
ATOM     18  N   UNL     1       1.696   8.780  17.992  0.00  0.00    +0.000 NA
ATOM     19  C   UNL     1       1.070   9.370  19.033  0.00  0.00    +0.000 A 
ATOM     20  C   UNL     1       1.077   8.784  20.294  0.00  0.00    +0.000 A 
ATOM     21  N   UNL     1       1.664   7.581  20.560  0.00  0.00    +0.000 NA
ATOM     22  C   UNL     1       4.235   5.523  19.325  0.00  0.00    +0.000 C 
ATOM     23  C   UNL     1       4.440   4.067  18.861  0.00  0.00    +0.000 C 
ENDBRANCH   1  19
BRANCH   7  24
ATOM     24  C   UNL     1       2.650  14.508  21.047  0.00  0.00    +0.000 A 
ATOM     25  N   UNL     1       2.540  14.820  22.325  0.00  0.00    +0.000 NA
ATOM     26  N   UNL     1       3.668  15.461  22.811  0.00  0.00    +0.000 NA
ATOM     27  C   UNL     1       4.583  15.637  21.883  0.00  0.00    +0.000 A 
ATOM     28  N   UNL     1       5.763  16.253  22.080  0.00  0.00    +0.000 N 
ATOM     29  S   UNL     1       4.151  15.001  20.354  0.00  0.00    +0.000 S 
ATOM     30  H   UNL     1       6.061  16.364  23.044  0.00  0.00    +0.000 HD
ATOM     31  H   UNL     1       6.511  16.091  21.418  0.00  0.00    +0.000 HD
ENDBRANCH   7  24
TORSDOF 2
ENDMDL
MODEL 6
REMARK VINA RESULT:      -7.7      3.060      9.082
REMARK  Name = 
REMARK  3 active torsions:
REMARK  status: ('A' for Active; 'I' for Inactive)
REMARK    1  A    between atoms: C_1  and  N_2
REMARK    2  A    between atoms: C_9  and  C_10
REMARK    3  A    between atoms: C_16  and  C_17
REMARK                            x       y       z     vdW  Elec       q    Type
REMARK                         _______ _______ _______ _____ _____    ______ ____
ROOT
ATOM      1  C   UNL     1       0.210   9.522  21.493  0.00  0.00    +0.000 A 
ATOM      2  C   UNL     1      -0.454   9.000  22.587  0.00  0.00    +0.000 A 
ATOM      3  N   UNL     1      -1.021  10.044  23.277  0.00  0.00    +0.000 N 
ATOM      4  C   UNL     1      -0.758  11.238  22.646  0.00  0.00    +0.000 A 
ATOM      5  C   UNL     1      -1.131  12.545  22.978  0.00  0.00    +0.000 A 
ATOM      6  C   UNL     1      -0.721  13.577  22.121  0.00  0.00    +0.000 A 
ATOM      7  C   UNL     1       0.029  13.329  20.964  0.00  0.00    +0.000 A 
ATOM      8  C   UNL     1       0.411  12.007  20.681  0.00  0.00    +0.000 A 
ATOM      9  C   UNL     1       0.011  10.943  21.523  0.00  0.00    +0.000 A 
ATOM     10  H   UNL     1      -1.558   9.955  24.128  0.00  0.00    +0.000 HD
ENDROOT
BRANCH   1  19
ATOM     11  C   UNL     1       6.643   4.356  16.525  0.00  0.00    +0.000 C 
ATOM     12  N   UNL     1       5.370   5.073  16.548  0.00  0.00    +0.000 NA
ATOM     13  C   UNL     1       5.589   6.510  16.862  0.00  0.00    +0.000 C 
ATOM     14  C   UNL     1       4.268   7.310  17.044  0.00  0.00    +0.000 C 
ATOM     15  N   UNL     1       3.482   6.631  18.076  0.00  0.00    +0.000 N 
ATOM     16  C   UNL     1       2.564   7.349  18.817  0.00  0.00    +0.000 A 
ATOM     17  C   UNL     1       2.216   6.894  20.095  0.00  0.00    +0.000 A 
ATOM     18  N   UNL     1       1.426   7.562  20.962  0.00  0.00    +0.000 NA
ATOM     19  C   UNL     1       0.958   8.749  20.520  0.00  0.00    +0.000 A 
ATOM     20  C   UNL     1       1.269   9.208  19.244  0.00  0.00    +0.000 A 
ATOM     21  N   UNL     1       2.081   8.533  18.380  0.00  0.00    +0.000 NA
ATOM     22  C   UNL     1       3.148   5.246  17.720  0.00  0.00    +0.000 C 
ATOM     23  C   UNL     1       4.464   4.461  17.548  0.00  0.00    +0.000 C 
ENDBRANCH   1  19
BRANCH   7  24
ATOM     24  C   UNL     1       0.390  14.444  20.076  0.00  0.00    +0.000 A 
ATOM     25  N   UNL     1      -0.465  15.173  19.382  0.00  0.00    +0.000 NA
ATOM     26  N   UNL     1       0.167  16.113  18.585  0.00  0.00    +0.000 NA
ATOM     27  C   UNL     1       1.477  16.050  18.680  0.00  0.00    +0.000 A 
ATOM     28  N   UNL     1       2.332  16.831  17.995  0.00  0.00    +0.000 N 
ATOM     29  S   UNL     1       2.036  14.861  19.777  0.00  0.00    +0.000 S 
ATOM     30  H   UNL     1       1.943  17.671  17.578  0.00  0.00    +0.000 HD
ATOM     31  H   UNL     1       3.281  16.923  18.333  0.00  0.00    +0.000 HD
ENDBRANCH   7  24
TORSDOF 2
ENDMDL
MODEL 7
REMARK VINA RESULT:      -7.7      3.582      9.226
REMARK  Name = 
REMARK  3 active torsions:
REMARK  status: ('A' for Active; 'I' for Inactive)
REMARK    1  A    between atoms: C_1  and  N_2
REMARK    2  A    between atoms: C_9  and  C_10
REMARK    3  A    between atoms: C_16  and  C_17
REMARK                            x       y       z     vdW  Elec       q    Type
REMARK                         _______ _______ _______ _____ _____    ______ ____
ROOT
ATOM      1  C   UNL     1       0.317  11.128  18.651  0.00  0.00    +0.000 A 
ATOM      2  C   UNL     1      -0.922  11.227  18.046  0.00  0.00    +0.000 A 
ATOM      3  N   UNL     1      -1.239  12.559  17.943  0.00  0.00    +0.000 N 
ATOM      4  C   UNL     1      -0.223  13.337  18.451  0.00  0.00    +0.000 A 
ATOM      5  C   UNL     1      -0.105  14.728  18.551  0.00  0.00    +0.000 A 
ATOM      6  C   UNL     1       1.074  15.242  19.110  0.00  0.00    +0.000 A 
ATOM      7  C   UNL     1       2.112  14.410  19.552  0.00  0.00    +0.000 A 
ATOM      8  C   UNL     1       1.942  13.019  19.463  0.00  0.00    +0.000 A 
ATOM      9  C   UNL     1       0.767  12.468  18.901  0.00  0.00    +0.000 A 
ATOM     10  H   UNL     1      -2.094  12.925  17.550  0.00  0.00    +0.000 HD
ENDROOT
BRANCH   1  19
ATOM     11  C   UNL     1       3.717   2.130  19.139  0.00  0.00    +0.000 C 
ATOM     12  N   UNL     1       3.656   3.473  19.712  0.00  0.00    +0.000 NA
ATOM     13  C   UNL     1       2.261   3.809  20.102  0.00  0.00    +0.000 C 
ATOM     14  C   UNL     1       2.092   5.276  20.589  0.00  0.00    +0.000 C 
ATOM     15  N   UNL     1       2.597   6.151  19.530  0.00  0.00    +0.000 N 
ATOM     16  C   UNL     1       2.116   7.441  19.423  0.00  0.00    +0.000 A 
ATOM     17  C   UNL     1       2.159   8.083  18.180  0.00  0.00    +0.000 A 
ATOM     18  N   UNL     1       1.617   9.291  17.917  0.00  0.00    +0.000 NA
ATOM     19  C   UNL     1       1.002   9.888  18.962  0.00  0.00    +0.000 A 
ATOM     20  C   UNL     1       0.972   9.281  20.212  0.00  0.00    +0.000 A 
ATOM     21  N   UNL     1       1.509   8.052  20.465  0.00  0.00    +0.000 NA
ATOM     22  C   UNL     1       4.014   5.918  19.223  0.00  0.00    +0.000 C 
ATOM     23  C   UNL     1       4.169   4.462  18.736  0.00  0.00    +0.000 C 
ENDBRANCH   1  19
BRANCH   7  24
ATOM     24  C   UNL     1       3.347  15.006  20.085  0.00  0.00    +0.000 A 
ATOM     25  N   UNL     1       4.024  15.988  19.521  0.00  0.00    +0.000 NA
ATOM     26  N   UNL     1       5.180  16.300  20.217  0.00  0.00    +0.000 NA
ATOM     27  C   UNL     1       5.354  15.531  21.269  0.00  0.00    +0.000 A 
ATOM     28  N   UNL     1       6.406  15.604  22.104  0.00  0.00    +0.000 N 
ATOM     29  S   UNL     1       4.101  14.390  21.509  0.00  0.00    +0.000 S 
ATOM     30  H   UNL     1       6.960  16.454  22.062  0.00  0.00    +0.000 HD
ATOM     31  H   UNL     1       6.323  15.195  23.026  0.00  0.00    +0.000 HD
ENDBRANCH   7  24
TORSDOF 2
ENDMDL
MODEL 8
REMARK VINA RESULT:      -7.5      3.908     10.152
REMARK  Name = 
REMARK  3 active torsions:
REMARK  status: ('A' for Active; 'I' for Inactive)
REMARK    1  A    between atoms: C_1  and  N_2
REMARK    2  A    between atoms: C_9  and  C_10
REMARK    3  A    between atoms: C_16  and  C_17
REMARK                            x       y       z     vdW  Elec       q    Type
REMARK                         _______ _______ _______ _____ _____    ______ ____
ROOT
ATOM      1  C   UNL     1       1.507  11.264  18.794  0.00  0.00    +0.000 A 
ATOM      2  C   UNL     1       2.248  12.069  17.950  0.00  0.00    +0.000 A 
ATOM      3  N   UNL     1       1.652  13.306  17.911  0.00  0.00    +0.000 N 
ATOM      4  C   UNL     1       0.544  13.332  18.727  0.00  0.00    +0.000 A 
ATOM      5  C   UNL     1      -0.359  14.365  19.002  0.00  0.00    +0.000 A 
ATOM      6  C   UNL     1      -1.400  14.097  19.904  0.00  0.00    +0.000 A 
ATOM      7  C   UNL     1      -1.543  12.849  20.524  0.00  0.00    +0.000 A 
ATOM      8  C   UNL     1      -0.634  11.828  20.199  0.00  0.00    +0.000 A 
ATOM      9  C   UNL     1       0.428  12.067  19.296  0.00  0.00    +0.000 A 
ATOM     10  H   UNL     1       1.976  14.090  17.363  0.00  0.00    +0.000 HD
ENDROOT
BRANCH   1  19
ATOM     11  C   UNL     1       2.278   1.667  19.042  0.00  0.00    +0.000 C 
ATOM     12  N   UNL     1       2.515   2.953  19.691  0.00  0.00    +0.000 NA
ATOM     13  C   UNL     1       1.227   3.646  19.959  0.00  0.00    +0.000 C 
ATOM     14  C   UNL     1       1.405   5.086  20.520  0.00  0.00    +0.000 C 
ATOM     15  N   UNL     1       2.245   5.824  19.577  0.00  0.00    +0.000 N 
ATOM     16  C   UNL     1       2.145   7.200  19.505  0.00  0.00    +0.000 A 
ATOM     17  C   UNL     1       2.502   7.848  18.316  0.00  0.00    +0.000 A 
ATOM     18  N   UNL     1       2.340   9.166  18.079  0.00  0.00    +0.000 NA
ATOM     19  C   UNL     1       1.792   9.873  19.091  0.00  0.00    +0.000 A 
ATOM     20  C   UNL     1       1.456   9.255  20.291  0.00  0.00    +0.000 A 
ATOM     21  N   UNL     1       1.610   7.918  20.517  0.00  0.00    +0.000 NA
ATOM     22  C   UNL     1       3.572   5.221  19.400  0.00  0.00    +0.000 C 
ATOM     23  C   UNL     1       3.384   3.797  18.838  0.00  0.00    +0.000 C 
ENDBRANCH   1  19
BRANCH   7  24
ATOM     24  C   UNL     1      -2.625  12.639  21.498  0.00  0.00    +0.000 A 
ATOM     25  N   UNL     1      -3.915  12.735  21.237  0.00  0.00    +0.000 NA
ATOM     26  N   UNL     1      -4.698  12.546  22.364  0.00  0.00    +0.000 NA
ATOM     27  C   UNL     1      -3.977  12.339  23.444  0.00  0.00    +0.000 A 
ATOM     28  N   UNL     1      -4.484  12.150  24.676  0.00  0.00    +0.000 N 
ATOM     29  S   UNL     1      -2.290  12.323  23.160  0.00  0.00    +0.000 S 
ATOM     30  H   UNL     1      -5.469  11.909  24.729  0.00  0.00    +0.000 HD
ATOM     31  H   UNL     1      -3.901  11.715  25.379  0.00  0.00    +0.000 HD
ENDBRANCH   7  24
TORSDOF 2
ENDMDL
MODEL 9
REMARK VINA RESULT:      -7.4      3.857     10.305
REMARK  Name = 
REMARK  3 active torsions:
REMARK  status: ('A' for Active; 'I' for Inactive)
REMARK    1  A    between atoms: C_1  and  N_2
REMARK    2  A    between atoms: C_9  and  C_10
REMARK    3  A    between atoms: C_16  and  C_17
REMARK                            x       y       z     vdW  Elec       q    Type
REMARK                         _______ _______ _______ _____ _____    ______ ____
ROOT
ATOM      1  C   UNL     1       0.821  11.864  20.320  0.00  0.00    +0.000 A 
ATOM      2  C   UNL     1       1.797  12.838  20.406  0.00  0.00    +0.000 A 
ATOM      3  N   UNL     1       1.173  14.052  20.562  0.00  0.00    +0.000 N 
ATOM      4  C   UNL     1      -0.193  13.889  20.599  0.00  0.00    +0.000 A 
ATOM      5  C   UNL     1      -1.218  14.831  20.746  0.00  0.00    +0.000 A 
ATOM      6  C   UNL     1      -2.539  14.359  20.763  0.00  0.00    +0.000 A 
ATOM      7  C   UNL     1      -2.843  12.995  20.646  0.00  0.00    +0.000 A 
ATOM      8  C   UNL     1      -1.788  12.085  20.470  0.00  0.00    +0.000 A 
ATOM      9  C   UNL     1      -0.445  12.528  20.452  0.00  0.00    +0.000 A 
ATOM     10  H   UNL     1       1.643  14.942  20.640  0.00  0.00    +0.000 HD
ENDROOT
BRANCH   1  19
ATOM     11  C   UNL     1       3.960   2.760  20.474  0.00  0.00    +0.000 C 
ATOM     12  N   UNL     1       3.089   3.768  19.875  0.00  0.00    +0.000 NA
ATOM     13  C   UNL     1       3.897   4.869  19.286  0.00  0.00    +0.000 C 
ATOM     14  C   UNL     1       3.037   6.051  18.755  0.00  0.00    +0.000 C 
ATOM     15  N   UNL     1       2.194   6.511  19.859  0.00  0.00    +0.000 N 
ATOM     16  C   UNL     1       1.743   7.817  19.874  0.00  0.00    +0.000 A 
ATOM     17  C   UNL     1       1.418   8.411  21.100  0.00  0.00    +0.000 A 
ATOM     18  N   UNL     1       1.081   9.708  21.262  0.00  0.00    +0.000 NA
ATOM     19  C   UNL     1       1.065  10.446  20.132  0.00  0.00    +0.000 A 
ATOM     20  C   UNL     1       1.356   9.870  18.900  0.00  0.00    +0.000 A 
ATOM     21  N   UNL     1       1.711   8.562  18.747  0.00  0.00    +0.000 NA
ATOM     22  C   UNL     1       1.295   5.467  20.367  0.00  0.00    +0.000 C 
ATOM     23  C   UNL     1       2.159   4.304  20.896  0.00  0.00    +0.000 C 
ENDBRANCH   1  19
BRANCH   7  24
ATOM     24  C   UNL     1      -4.243  12.552  20.720  0.00  0.00    +0.000 A 
ATOM     25  N   UNL     1      -4.936  12.397  21.833  0.00  0.00    +0.000 NA
ATOM     26  N   UNL     1      -6.210  11.909  21.598  0.00  0.00    +0.000 NA
ATOM     27  C   UNL     1      -6.433  11.685  20.321  0.00  0.00    +0.000 A 
ATOM     28  N   UNL     1      -7.579  11.188  19.821  0.00  0.00    +0.000 N 
ATOM     29  S   UNL     1      -5.116  12.088  19.307  0.00  0.00    +0.000 S 
ATOM     30  H   UNL     1      -8.392  11.223  20.428  0.00  0.00    +0.000 HD
ATOM     31  H   UNL     1      -7.776  11.320  18.837  0.00  0.00    +0.000 HD
ENDBRANCH   7  24
TORSDOF 2
ENDMDL
