MODEL 1
REMARK VINA RESULT:      -7.9      0.000      0.000
REMARK  Name = 
REMARK  5 active torsions:
REMARK  status: ('A' for Active; 'I' for Inactive)
REMARK    1  A    between atoms: C_1  and  O_2
REMARK    2  A    between atoms: O_2  and  C_3
REMARK    3  A    between atoms: C_15  and  C_16
REMARK    4  A    between atoms: C_16  and  N_17
REMARK    5  A    between atoms: C_18  and  C_19
REMARK                            x       y       z     vdW  Elec       q    Type
REMARK                         _______ _______ _______ _____ _____    ______ ____
ROOT
ATOM      1  C   UNL     1       2.230   6.400  19.877  0.00  0.00    +0.000 A 
ATOM      2  C   UNL     1       1.531   5.533  20.718  0.00  0.00    +0.000 A 
ATOM      3  C   UNL     1       1.622   4.161  20.530  0.00  0.00    +0.000 A 
ATOM      4  C   UNL     1       2.408   3.636  19.501  0.00  0.00    +0.000 A 
ATOM      5  C   UNL     1       2.491   2.246  19.352  0.00  0.00    +0.000 A 
ATOM      6  C   UNL     1       3.238   1.696  18.321  0.00  0.00    +0.000 A 
ATOM      7  C   UNL     1       3.917   2.527  17.441  0.00  0.00    +0.000 A 
ATOM      8  C   UNL     1       3.884   3.930  17.586  0.00  0.00    +0.000 A 
ATOM      9  C   UNL     1       3.103   4.501  18.612  0.00  0.00    +0.000 A 
ATOM     10  C   UNL     1       2.984   5.892  18.793  0.00  0.00    +0.000 A 
ATOM     11  C   UNL     1       3.600   6.855  17.818  0.00  0.00    +0.000 C 
ATOM     12  C   UNL     1       4.505   6.292  16.726  0.00  0.00    +0.000 C 
ATOM     13  C   UNL     1       4.712   4.769  16.625  0.00  0.00    +0.000 C 
ENDROOT
BRANCH   1  15
ATOM     14  C   UNL     1       1.293   8.232  21.035  0.00  0.00    +0.000 C 
ATOM     15  O   UNL     1       2.201   7.765  20.037  0.00  0.00    +0.000 OA
ENDBRANCH   1  15
BRANCH  13  16
ATOM     16  C   UNL     1       6.223   4.423  16.748  0.00  0.00    +0.000 C 
BRANCH  16  17
ATOM     17  N   UNL     1       7.054   5.552  17.141  0.00  0.00    +0.000 N 
ATOM     18  C   UNL     1       7.337   5.833  18.459  0.00  0.00    +0.000 C 
ATOM     19  C   UNL     1       8.192   7.058  18.661  0.00  0.00    +0.000 C 
ATOM     20  O   UNL     1       6.924   5.166  19.401  0.00  0.00    +0.000 OA
ATOM     21  H   UNL     1       7.411   6.158  16.417  0.00  0.00    +0.000 HD
ENDBRANCH  16  17
ENDBRANCH  13  16
TORSDOF 3
ENDMDL
MODEL 2
REMARK VINA RESULT:      -7.6      1.719      2.100
REMARK  Name = 
REMARK  5 active torsions:
REMARK  status: ('A' for Active; 'I' for Inactive)
REMARK    1  A    between atoms: C_1  and  O_2
REMARK    2  A    between atoms: O_2  and  C_3
REMARK    3  A    between atoms: C_15  and  C_16
REMARK    4  A    between atoms: C_16  and  N_17
REMARK    5  A    between atoms: C_18  and  C_19
REMARK                            x       y       z     vdW  Elec       q    Type
REMARK                         _______ _______ _______ _____ _____    ______ ____
ROOT
ATOM      1  C   UNL     1       2.196   6.548  19.859  0.00  0.00    +0.000 A 
ATOM      2  C   UNL     1       1.543   5.584  20.627  0.00  0.00    +0.000 A 
ATOM      3  C   UNL     1       1.714   4.236  20.341  0.00  0.00    +0.000 A 
ATOM      4  C   UNL     1       2.535   3.834  19.283  0.00  0.00    +0.000 A 
ATOM      5  C   UNL     1       2.698   2.466  19.035  0.00  0.00    +0.000 A 
ATOM      6  C   UNL     1       3.481   2.036  17.974  0.00  0.00    +0.000 A 
ATOM      7  C   UNL     1       4.116   2.968  17.163  0.00  0.00    +0.000 A 
ATOM      8  C   UNL     1       4.001   4.352  17.409  0.00  0.00    +0.000 A 
ATOM      9  C   UNL     1       3.183   4.800  18.467  0.00  0.00    +0.000 A 
ATOM     10  C   UNL     1       2.983   6.166  18.747  0.00  0.00    +0.000 A 
ATOM     11  C   UNL     1       3.547   7.230  17.851  0.00  0.00    +0.000 C 
ATOM     12  C   UNL     1       4.490   6.802  16.729  0.00  0.00    +0.000 C 
ATOM     13  C   UNL     1       4.785   5.304  16.520  0.00  0.00    +0.000 C 
ENDROOT
BRANCH   1  15
ATOM     14  C   UNL     1       1.184   8.231  21.170  0.00  0.00    +0.000 C 
ATOM     15  O   UNL     1       2.087   7.894  20.118  0.00  0.00    +0.000 OA
ENDBRANCH   1  15
BRANCH  13  16
ATOM     16  C   UNL     1       6.312   5.037  16.632  0.00  0.00    +0.000 C 
BRANCH  16  17
ATOM     17  N   UNL     1       7.066   5.434  15.451  0.00  0.00    +0.000 N 
ATOM     18  C   UNL     1       6.997   4.737  14.266  0.00  0.00    +0.000 C 
ATOM     19  C   UNL     1       7.871   5.292  13.170  0.00  0.00    +0.000 C 
ATOM     20  O   UNL     1       6.304   3.739  14.102  0.00  0.00    +0.000 OA
ATOM     21  H   UNL     1       7.676   6.237  15.520  0.00  0.00    +0.000 HD
ENDBRANCH  16  17
ENDBRANCH  13  16
TORSDOF 3
ENDMDL
MODEL 3
REMARK VINA RESULT:      -7.6      1.019      1.119
REMARK  Name = 
REMARK  5 active torsions:
REMARK  status: ('A' for Active; 'I' for Inactive)
REMARK    1  A    between atoms: C_1  and  O_2
REMARK    2  A    between atoms: O_2  and  C_3
REMARK    3  A    between atoms: C_15  and  C_16
REMARK    4  A    between atoms: C_16  and  N_17
REMARK    5  A    between atoms: C_18  and  C_19
REMARK                            x       y       z     vdW  Elec       q    Type
REMARK                         _______ _______ _______ _____ _____    ______ ____
ROOT
ATOM      1  C   UNL     1       1.947   6.934  19.944  0.00  0.00    +0.000 A 
ATOM      2  C   UNL     1       1.432   5.933  20.767  0.00  0.00    +0.000 A 
ATOM      3  C   UNL     1       1.786   4.607  20.554  0.00  0.00    +0.000 A 
ATOM      4  C   UNL     1       2.655   4.264  19.514  0.00  0.00    +0.000 A 
ATOM      5  C   UNL     1       3.005   2.920  19.339  0.00  0.00    +0.000 A 
ATOM      6  C   UNL     1       3.840   2.544  18.298  0.00  0.00    +0.000 A 
ATOM      7  C   UNL     1       4.342   3.508  17.434  0.00  0.00    +0.000 A 
ATOM      8  C   UNL     1       4.039   4.875  17.605  0.00  0.00    +0.000 A 
ATOM      9  C   UNL     1       3.166   5.264  18.643  0.00  0.00    +0.000 A 
ATOM     10  C   UNL     1       2.780   6.602  18.850  0.00  0.00    +0.000 A 
ATOM     11  C   UNL     1       3.195   7.684  17.893  0.00  0.00    +0.000 C 
ATOM     12  C   UNL     1       4.188   7.328  16.790  0.00  0.00    +0.000 C 
ATOM     13  C   UNL     1       4.686   5.875  16.661  0.00  0.00    +0.000 C 
ENDROOT
BRANCH   1  15
ATOM     14  C   UNL     1       1.277   8.614  21.461  0.00  0.00    +0.000 C 
ATOM     15  O   UNL     1       1.655   8.265  20.130  0.00  0.00    +0.000 OA
ENDBRANCH   1  15
BRANCH  13  16
ATOM     16  C   UNL     1       6.235   5.826  16.777  0.00  0.00    +0.000 C 
BRANCH  16  17
ATOM     17  N   UNL     1       6.854   7.134  16.943  0.00  0.00    +0.000 N 
ATOM     18  C   UNL     1       7.732   7.407  17.966  0.00  0.00    +0.000 C 
ATOM     19  C   UNL     1       8.244   8.825  17.981  0.00  0.00    +0.000 C 
ATOM     20  O   UNL     1       8.069   6.586  18.812  0.00  0.00    +0.000 OA
ATOM     21  H   UNL     1       6.605   7.867  16.293  0.00  0.00    +0.000 HD
ENDBRANCH  16  17
ENDBRANCH  13  16
TORSDOF 3
ENDMDL
MODEL 4
REMARK VINA RESULT:      -7.2      1.262      1.509
REMARK  Name = 
REMARK  5 active torsions:
REMARK  status: ('A' for Active; 'I' for Inactive)
REMARK    1  A    between atoms: C_1  and  O_2
REMARK    2  A    between atoms: O_2  and  C_3
REMARK    3  A    between atoms: C_15  and  C_16
REMARK    4  A    between atoms: C_16  and  N_17
REMARK    5  A    between atoms: C_18  and  C_19
REMARK                            x       y       z     vdW  Elec       q    Type
REMARK                         _______ _______ _______ _____ _____    ______ ____
ROOT
ATOM      1  C   UNL     1       2.498   7.653  18.826  0.00  0.00    +0.000 A 
ATOM      2  C   UNL     1       1.737   7.365  19.959  0.00  0.00    +0.000 A 
ATOM      3  C   UNL     1       1.794   6.101  20.530  0.00  0.00    +0.000 A 
ATOM      4  C   UNL     1       2.609   5.108  19.977  0.00  0.00    +0.000 A 
ATOM      5  C   UNL     1       2.656   3.851  20.590  0.00  0.00    +0.000 A 
ATOM      6  C   UNL     1       3.430   2.836  20.048  0.00  0.00    +0.000 A 
ATOM      7  C   UNL     1       4.173   3.074  18.898  0.00  0.00    +0.000 A 
ATOM      8  C   UNL     1       4.176   4.341  18.278  0.00  0.00    +0.000 A 
ATOM      9  C   UNL     1       3.368   5.370  18.805  0.00  0.00    +0.000 A 
ATOM     10  C   UNL     1       3.283   6.647  18.216  0.00  0.00    +0.000 A 
ATOM     11  C   UNL     1       3.970   6.946  16.914  0.00  0.00    +0.000 C 
ATOM     12  C   UNL     1       4.906   5.888  16.334  0.00  0.00    +0.000 C 
ATOM     13  C   UNL     1       5.071   4.542  17.066  0.00  0.00    +0.000 C 
ENDROOT
BRANCH   1  15
ATOM     14  C   UNL     1       1.210   9.442  17.980  0.00  0.00    +0.000 C 
ATOM     15  O   UNL     1       2.504   8.897  18.239  0.00  0.00    +0.000 OA
ENDBRANCH   1  15
BRANCH  13  16
ATOM     16  C   UNL     1       6.563   4.310  17.433  0.00  0.00    +0.000 C 
BRANCH  16  17
ATOM     17  N   UNL     1       7.324   5.539  17.603  0.00  0.00    +0.000 N 
ATOM     18  C   UNL     1       7.628   6.051  18.844  0.00  0.00    +0.000 C 
ATOM     19  C   UNL     1       8.400   7.345  18.809  0.00  0.00    +0.000 C 
ATOM     20  O   UNL     1       7.292   5.522  19.899  0.00  0.00    +0.000 OA
ATOM     21  H   UNL     1       7.615   6.040  16.775  0.00  0.00    +0.000 HD
ENDBRANCH  16  17
ENDBRANCH  13  16
TORSDOF 3
ENDMDL
MODEL 5
REMARK VINA RESULT:      -7.1      1.326      1.593
REMARK  Name = 
REMARK  5 active torsions:
REMARK  status: ('A' for Active; 'I' for Inactive)
REMARK    1  A    between atoms: C_1  and  O_2
REMARK    2  A    between atoms: O_2  and  C_3
REMARK    3  A    between atoms: C_15  and  C_16
REMARK    4  A    between atoms: C_16  and  N_17
REMARK    5  A    between atoms: C_18  and  C_19
REMARK                            x       y       z     vdW  Elec       q    Type
REMARK                         _______ _______ _______ _____ _____    ______ ____
ROOT
ATOM      1  C   UNL     1       2.856   7.437  18.398  0.00  0.00    +0.000 A 
ATOM      2  C   UNL     1       2.053   7.004  19.454  0.00  0.00    +0.000 A 
ATOM      3  C   UNL     1       2.006   5.656  19.783  0.00  0.00    +0.000 A 
ATOM      4  C   UNL     1       2.756   4.723  19.061  0.00  0.00    +0.000 A 
ATOM      5  C   UNL     1       2.699   3.375  19.431  0.00  0.00    +0.000 A 
ATOM      6  C   UNL     1       3.407   2.421  18.715  0.00  0.00    +0.000 A 
ATOM      7  C   UNL     1       4.186   2.809  17.634  0.00  0.00    +0.000 A 
ATOM      8  C   UNL     1       4.295   4.164  17.257  0.00  0.00    +0.000 A 
ATOM      9  C   UNL     1       3.555   5.137  17.961  0.00  0.00    +0.000 A 
ATOM     10  C   UNL     1       3.576   6.503  17.617  0.00  0.00    +0.000 A 
ATOM     11  C   UNL     1       4.308   6.983  16.397  0.00  0.00    +0.000 C 
ATOM     12  C   UNL     1       5.174   5.982  15.637  0.00  0.00    +0.000 C 
ATOM     13  C   UNL     1       5.226   4.516  16.108  0.00  0.00    +0.000 C 
ENDROOT
BRANCH   1  15
ATOM     14  C   UNL     1       1.737   9.491  18.078  0.00  0.00    +0.000 C 
ATOM     15  O   UNL     1       2.964   8.763  18.051  0.00  0.00    +0.000 OA
ENDBRANCH   1  15
BRANCH  13  16
ATOM     16  C   UNL     1       6.689   4.107  16.434  0.00  0.00    +0.000 C 
BRANCH  16  17
ATOM     17  N   UNL     1       7.079   4.370  17.812  0.00  0.00    +0.000 N 
ATOM     18  C   UNL     1       7.621   5.573  18.206  0.00  0.00    +0.000 C 
ATOM     19  C   UNL     1       7.982   5.640  19.668  0.00  0.00    +0.000 C 
ATOM     20  O   UNL     1       7.816   6.514  17.445  0.00  0.00    +0.000 OA
ATOM     21  H   UNL     1       6.967   3.630  18.491  0.00  0.00    +0.000 HD
ENDBRANCH  16  17
ENDBRANCH  13  16
TORSDOF 3
ENDMDL
MODEL 6
REMARK VINA RESULT:      -6.9      1.401      1.918
REMARK  Name = 
REMARK  5 active torsions:
REMARK  status: ('A' for Active; 'I' for Inactive)
REMARK    1  A    between atoms: C_1  and  O_2
REMARK    2  A    between atoms: O_2  and  C_3
REMARK    3  A    between atoms: C_15  and  C_16
REMARK    4  A    between atoms: C_16  and  N_17
REMARK    5  A    between atoms: C_18  and  C_19
REMARK                            x       y       z     vdW  Elec       q    Type
REMARK                         _______ _______ _______ _____ _____    ______ ____
ROOT
ATOM      1  C   UNL     1       2.295   7.651  19.195  0.00  0.00    +0.000 A 
ATOM      2  C   UNL     1       1.509   7.596  20.346  0.00  0.00    +0.000 A 
ATOM      3  C   UNL     1       1.276   6.378  20.971  0.00  0.00    +0.000 A 
ATOM      4  C   UNL     1       1.822   5.200  20.454  0.00  0.00    +0.000 A 
ATOM      5  C   UNL     1       1.582   3.992  21.119  0.00  0.00    +0.000 A 
ATOM      6  C   UNL     1       2.084   2.802  20.614  0.00  0.00    +0.000 A 
ATOM      7  C   UNL     1       2.839   2.812  19.449  0.00  0.00    +0.000 A 
ATOM      8  C   UNL     1       3.131   4.016  18.775  0.00  0.00    +0.000 A 
ATOM      9  C   UNL     1       2.600   5.227  19.264  0.00  0.00    +0.000 A 
ATOM     10  C   UNL     1       2.808   6.463  18.622  0.00  0.00    +0.000 A 
ATOM     11  C   UNL     1       3.522   6.539  17.302  0.00  0.00    +0.000 C 
ATOM     12  C   UNL     1       4.169   5.267  16.760  0.00  0.00    +0.000 C 
ATOM     13  C   UNL     1       4.024   3.950  17.547  0.00  0.00    +0.000 C 
ENDROOT
BRANCH   1  15
ATOM     14  C   UNL     1       1.444   9.553  18.086  0.00  0.00    +0.000 C 
ATOM     15  O   UNL     1       2.584   8.833  18.555  0.00  0.00    +0.000 OA
ENDBRANCH   1  15
BRANCH  13  16
ATOM     16  C   UNL     1       5.426   3.385  17.911  0.00  0.00    +0.000 C 
BRANCH  16  17
ATOM     17  N   UNL     1       6.242   4.300  18.696  0.00  0.00    +0.000 N 
ATOM     18  C   UNL     1       7.381   4.887  18.193  0.00  0.00    +0.000 C 
ATOM     19  C   UNL     1       8.101   5.781  19.170  0.00  0.00    +0.000 C 
ATOM     20  O   UNL     1       7.800   4.696  17.056  0.00  0.00    +0.000 OA
ATOM     21  H   UNL     1       5.969   4.486  19.651  0.00  0.00    +0.000 HD
ENDBRANCH  16  17
ENDBRANCH  13  16
TORSDOF 3
ENDMDL
MODEL 7
REMARK VINA RESULT:      -6.8      1.485      2.040
REMARK  Name = 
REMARK  5 active torsions:
REMARK  status: ('A' for Active; 'I' for Inactive)
REMARK    1  A    between atoms: C_1  and  O_2
REMARK    2  A    between atoms: O_2  and  C_3
REMARK    3  A    between atoms: C_15  and  C_16
REMARK    4  A    between atoms: C_16  and  N_17
REMARK    5  A    between atoms: C_18  and  C_19
REMARK                            x       y       z     vdW  Elec       q    Type
REMARK                         _______ _______ _______ _____ _____    ______ ____
ROOT
ATOM      1  C   UNL     1       1.831   8.237  19.447  0.00  0.00    +0.000 A 
ATOM      2  C   UNL     1       1.100   7.919  20.592  0.00  0.00    +0.000 A 
ATOM      3  C   UNL     1       1.173   6.642  21.130  0.00  0.00    +0.000 A 
ATOM      4  C   UNL     1       1.973   5.664  20.531  0.00  0.00    +0.000 A 
ATOM      5  C   UNL     1       2.037   4.392  21.111  0.00  0.00    +0.000 A 
ATOM      6  C   UNL     1       2.796   3.392  20.523  0.00  0.00    +0.000 A 
ATOM      7  C   UNL     1       3.508   3.659  19.361  0.00  0.00    +0.000 A 
ATOM      8  C   UNL     1       3.494   4.941  18.772  0.00  0.00    +0.000 A 
ATOM      9  C   UNL     1       2.701   5.956  19.346  0.00  0.00    +0.000 A 
ATOM     10  C   UNL     1       2.600   7.247  18.791  0.00  0.00    +0.000 A 
ATOM     11  C   UNL     1       3.252   7.578  17.479  0.00  0.00    +0.000 C 
ATOM     12  C   UNL     1       4.172   6.536  16.849  0.00  0.00    +0.000 C 
ATOM     13  C   UNL     1       4.356   5.172  17.542  0.00  0.00    +0.000 C 
ENDROOT
BRANCH   1  15
ATOM     14  C   UNL     1       0.749  10.332  19.324  0.00  0.00    +0.000 C 
ATOM     15  O   UNL     1       1.821   9.494  18.891  0.00  0.00    +0.000 OA
ENDBRANCH   1  15
BRANCH  13  16
ATOM     16  C   UNL     1       5.858   4.932  17.863  0.00  0.00    +0.000 C 
BRANCH  16  17
ATOM     17  N   UNL     1       6.575   6.137  18.256  0.00  0.00    +0.000 N 
ATOM     18  C   UNL     1       7.414   6.807  17.396  0.00  0.00    +0.000 C 
ATOM     19  C   UNL     1       8.082   8.017  17.998  0.00  0.00    +0.000 C 
ATOM     20  O   UNL     1       7.626   6.456  16.240  0.00  0.00    +0.000 OA
ATOM     21  H   UNL     1       6.464   6.472  19.203  0.00  0.00    +0.000 HD
ENDBRANCH  16  17
ENDBRANCH  13  16
TORSDOF 3
ENDMDL
MODEL 8
REMARK VINA RESULT:      -6.5      2.178      4.175
REMARK  Name = 
REMARK  5 active torsions:
REMARK  status: ('A' for Active; 'I' for Inactive)
REMARK    1  A    between atoms: C_1  and  O_2
REMARK    2  A    between atoms: O_2  and  C_3
REMARK    3  A    between atoms: C_15  and  C_16
REMARK    4  A    between atoms: C_16  and  N_17
REMARK    5  A    between atoms: C_18  and  C_19
REMARK                            x       y       z     vdW  Elec       q    Type
REMARK                         _______ _______ _______ _____ _____    ______ ____
ROOT
ATOM      1  C   UNL     1       3.562   3.474  19.681  0.00  0.00    +0.000 A 
ATOM      2  C   UNL     1       2.322   3.759  20.254  0.00  0.00    +0.000 A 
ATOM      3  C   UNL     1       1.720   4.990  20.031  0.00  0.00    +0.000 A 
ATOM      4  C   UNL     1       2.349   5.953  19.237  0.00  0.00    +0.000 A 
ATOM      5  C   UNL     1       1.705   7.177  19.019  0.00  0.00    +0.000 A 
ATOM      6  C   UNL     1       2.317   8.165  18.262  0.00  0.00    +0.000 A 
ATOM      7  C   UNL     1       3.569   7.933  17.708  0.00  0.00    +0.000 A 
ATOM      8  C   UNL     1       4.228   6.698  17.878  0.00  0.00    +0.000 A 
ATOM      9  C   UNL     1       3.627   5.698  18.671  0.00  0.00    +0.000 A 
ATOM     10  C   UNL     1       4.243   4.456  18.925  0.00  0.00    +0.000 A 
ATOM     11  C   UNL     1       5.640   4.174  18.450  0.00  0.00    +0.000 C 
ATOM     12  C   UNL     1       6.310   5.197  17.537  0.00  0.00    +0.000 C 
ATOM     13  C   UNL     1       5.563   6.496  17.179  0.00  0.00    +0.000 C 
ENDROOT
BRANCH   1  15
ATOM     14  C   UNL     1       3.764   1.243  18.937  0.00  0.00    +0.000 C 
ATOM     15  O   UNL     1       4.188   2.261  19.843  0.00  0.00    +0.000 OA
ENDBRANCH   1  15
BRANCH  13  16
ATOM     16  C   UNL     1       5.407   6.619  15.638  0.00  0.00    +0.000 C 
BRANCH  16  17
ATOM     17  N   UNL     1       5.403   5.339  14.944  0.00  0.00    +0.000 N 
ATOM     18  C   UNL     1       6.503   4.867  14.265  0.00  0.00    +0.000 C 
ATOM     19  C   UNL     1       6.291   3.535  13.592  0.00  0.00    +0.000 C 
ATOM     20  O   UNL     1       7.567   5.471  14.190  0.00  0.00    +0.000 OA
ATOM     21  H   UNL     1       4.550   4.796  14.946  0.00  0.00    +0.000 HD
ENDBRANCH  16  17
ENDBRANCH  13  16
TORSDOF 3
ENDMDL
MODEL 9
REMARK VINA RESULT:      -6.3      2.519      5.227
REMARK  Name = 
REMARK  5 active torsions:
REMARK  status: ('A' for Active; 'I' for Inactive)
REMARK    1  A    between atoms: C_1  and  O_2
REMARK    2  A    between atoms: O_2  and  C_3
REMARK    3  A    between atoms: C_15  and  C_16
REMARK    4  A    between atoms: C_16  and  N_17
REMARK    5  A    between atoms: C_18  and  C_19
REMARK                            x       y       z     vdW  Elec       q    Type
REMARK                         _______ _______ _______ _____ _____    ______ ____
ROOT
ATOM      1  C   UNL     1       4.421   4.065  16.818  0.00  0.00    +0.000 A 
ATOM      2  C   UNL     1       4.082   2.887  17.485  0.00  0.00    +0.000 A 
ATOM      3  C   UNL     1       3.272   2.936  18.612  0.00  0.00    +0.000 A 
ATOM      4  C   UNL     1       2.794   4.160  19.089  0.00  0.00    +0.000 A 
ATOM      5  C   UNL     1       1.965   4.170  20.217  0.00  0.00    +0.000 A 
ATOM      6  C   UNL     1       1.499   5.370  20.733  0.00  0.00    +0.000 A 
ATOM      7  C   UNL     1       1.846   6.566  20.119  0.00  0.00    +0.000 A 
ATOM      8  C   UNL     1       2.650   6.588  18.959  0.00  0.00    +0.000 A 
ATOM      9  C   UNL     1       3.152   5.375  18.445  0.00  0.00    +0.000 A 
ATOM     10  C   UNL     1       3.997   5.318  17.318  0.00  0.00    +0.000 A 
ATOM     11  C   UNL     1       4.502   6.574  16.667  0.00  0.00    +0.000 C 
ATOM     12  C   UNL     1       3.940   7.910  17.146  0.00  0.00    +0.000 C 
ATOM     13  C   UNL     1       2.926   7.932  18.305  0.00  0.00    +0.000 C 
ENDROOT
BRANCH   1  15
ATOM     14  C   UNL     1       6.601   4.078  15.912  0.00  0.00    +0.000 C 
ATOM     15  O   UNL     1       5.193   4.071  15.680  0.00  0.00    +0.000 OA
ENDBRANCH   1  15
BRANCH  13  16
ATOM     16  C   UNL     1       1.603   8.608  17.848  0.00  0.00    +0.000 C 
BRANCH  16  17
ATOM     17  N   UNL     1       1.659  10.063  17.842  0.00  0.00    +0.000 N 
ATOM     18  C   UNL     1       1.263  10.818  18.923  0.00  0.00    +0.000 C 
ATOM     19  C   UNL     1       1.373  12.307  18.711  0.00  0.00    +0.000 C 
ATOM     20  O   UNL     1       0.840  10.340  19.969  0.00  0.00    +0.000 OA
ATOM     21  H   UNL     1       1.978  10.527  17.003  0.00  0.00    +0.000 HD
ENDBRANCH  16  17
ENDBRANCH  13  16
TORSDOF 3
ENDMDL
