MODEL 1
REMARK VINA RESULT:      -8.5      0.000      0.000
REMARK  Name = 
REMARK  6 active torsions:
REMARK  status: ('A' for Active; 'I' for Inactive)
REMARK    1  A    between atoms: C_1  and  C_2
REMARK    2  A    between atoms: N_4  and  C_5
REMARK    3  A    between atoms: N_4  and  C_17
REMARK    4  A    between atoms: C_5  and  C_6
REMARK    5  A    between atoms: C_8  and  O_9
REMARK    6  A    between atoms: C_20  and  C_21
REMARK                            x       y       z     vdW  Elec       q    Type
REMARK                         _______ _______ _______ _____ _____    ______ ____
ROOT
ATOM      1  C   UNL     1       4.766   3.893  18.985  0.00  0.00    +0.000 C 
ENDROOT
BRANCH   1   2
ATOM      2  C   UNL     1       5.875   4.677  18.292  0.00  0.00    +0.000 A 
ATOM      3  C   UNL     1       6.703   5.554  19.003  0.00  0.00    +0.000 A 
ATOM      4  C   UNL     1       7.579   6.357  18.301  0.00  0.00    +0.000 A 
ATOM      5  N   UNL     1       7.698   6.354  16.969  0.00  0.00    +0.000 NA
ATOM      6  C   UNL     1       6.975   5.466  16.276  0.00  0.00    +0.000 A 
ATOM      7  C   UNL     1       7.101   5.460  14.893  0.00  0.00    +0.000 A 
ATOM      8  C   UNL     1       6.421   4.534  14.091  0.00  0.00    +0.000 A 
ATOM      9  C   UNL     1       5.646   3.557  14.690  0.00  0.00    +0.000 A 
ATOM     10  C   UNL     1       5.471   3.567  16.076  0.00  0.00    +0.000 A 
ATOM     11  C   UNL     1       6.088   4.549  16.889  0.00  0.00    +0.000 A 
BRANCH   4  12
ATOM     12  O   UNL     1       8.401   7.234  18.942  0.00  0.00    +0.000 OA
ATOM     13  H   UNL     1       8.326   8.094  18.503  0.00  0.00    +0.000 HD
ENDBRANCH   4  12
ENDBRANCH   1   2
BRANCH   1  17
ATOM     14  C   UNL     1       2.862   2.107  17.659  0.00  0.00    +0.000 C 
ATOM     15  C   UNL     1       2.417   3.474  18.112  0.00  0.00    +0.000 C 
ATOM     16  O   UNL     1       1.239   3.790  17.927  0.00  0.00    +0.000 OA
ATOM     17  N   UNL     1       3.388   4.320  18.668  0.00  0.00    +0.000 N 
BRANCH  17  18
ATOM     18  C   UNL     1       3.066   5.719  18.747  0.00  0.00    +0.000 A 
ATOM     19  C   UNL     1       2.449   6.225  19.899  0.00  0.00    +0.000 A 
ATOM     20  C   UNL     1       1.961   7.531  19.939  0.00  0.00    +0.000 A 
ATOM     21  C   UNL     1       2.054   8.347  18.811  0.00  0.00    +0.000 A 
ATOM     22  C   UNL     1       1.381   9.688  18.788  0.00  0.00    +0.000 C 
ATOM     23  C   UNL     1       2.724   7.870  17.680  0.00  0.00    +0.000 A 
ATOM     24  C   UNL     1       3.248   6.570  17.652  0.00  0.00    +0.000 A 
ENDBRANCH  17  18
ENDBRANCH   1  17
TORSDOF 4
ENDMDL
MODEL 2
REMARK VINA RESULT:      -7.8      0.486      1.111
REMARK  Name = 
REMARK  6 active torsions:
REMARK  status: ('A' for Active; 'I' for Inactive)
REMARK    1  A    between atoms: C_1  and  C_2
REMARK    2  A    between atoms: N_4  and  C_5
REMARK    3  A    between atoms: N_4  and  C_17
REMARK    4  A    between atoms: C_5  and  C_6
REMARK    5  A    between atoms: C_8  and  O_9
REMARK    6  A    between atoms: C_20  and  C_21
REMARK                            x       y       z     vdW  Elec       q    Type
REMARK                         _______ _______ _______ _____ _____    ______ ____
ROOT
ATOM      1  C   UNL     1       5.076   3.921  19.226  0.00  0.00    +0.000 C 
ENDROOT
BRANCH   1   2
ATOM      2  C   UNL     1       6.059   4.762  18.419  0.00  0.00    +0.000 A 
ATOM      3  C   UNL     1       6.856   5.739  19.029  0.00  0.00    +0.000 A 
ATOM      4  C   UNL     1       7.606   6.579  18.232  0.00  0.00    +0.000 A 
ATOM      5  N   UNL     1       7.629   6.523  16.896  0.00  0.00    +0.000 NA
ATOM      6  C   UNL     1       6.940   5.545  16.295  0.00  0.00    +0.000 A 
ATOM      7  C   UNL     1       6.967   5.484  14.909  0.00  0.00    +0.000 A 
ATOM      8  C   UNL     1       6.316   4.467  14.199  0.00  0.00    +0.000 A 
ATOM      9  C   UNL     1       5.674   3.456  14.894  0.00  0.00    +0.000 A 
ATOM     10  C   UNL     1       5.598   3.518  16.287  0.00  0.00    +0.000 A 
ATOM     11  C   UNL     1       6.183   4.586  17.011  0.00  0.00    +0.000 A 
BRANCH   4  12
ATOM     12  O   UNL     1       8.390   7.553  18.773  0.00  0.00    +0.000 OA
ATOM     13  H   UNL     1       7.823   8.301  19.010  0.00  0.00    +0.000 HD
ENDBRANCH   4  12
ENDBRANCH   1   2
BRANCH   1  17
ATOM     14  C   UNL     1       3.504   1.652  18.251  0.00  0.00    +0.000 C 
ATOM     15  C   UNL     1       2.841   2.989  18.457  0.00  0.00    +0.000 C 
ATOM     16  O   UNL     1       1.632   3.077  18.228  0.00  0.00    +0.000 OA
ATOM     17  N   UNL     1       3.655   4.062  18.847  0.00  0.00    +0.000 N 
BRANCH  17  18
ATOM     18  C   UNL     1       3.116   5.384  18.679  0.00  0.00    +0.000 A 
ATOM     19  C   UNL     1       3.299   6.060  17.465  0.00  0.00    +0.000 A 
ATOM     20  C   UNL     1       2.951   7.403  17.329  0.00  0.00    +0.000 A 
ATOM     21  C   UNL     1       2.439   8.106  18.421  0.00  0.00    +0.000 A 
ATOM     22  C   UNL     1       2.223   9.589  18.334  0.00  0.00    +0.000 C 
ATOM     23  C   UNL     1       2.194   7.422  19.616  0.00  0.00    +0.000 A 
ATOM     24  C   UNL     1       2.510   6.062  19.742  0.00  0.00    +0.000 A 
ENDBRANCH  17  18
ENDBRANCH   1  17
TORSDOF 4
ENDMDL
MODEL 3
REMARK VINA RESULT:      -7.7      2.042      5.537
REMARK  Name = 
REMARK  6 active torsions:
REMARK  status: ('A' for Active; 'I' for Inactive)
REMARK    1  A    between atoms: C_1  and  C_2
REMARK    2  A    between atoms: N_4  and  C_5
REMARK    3  A    between atoms: N_4  and  C_17
REMARK    4  A    between atoms: C_5  and  C_6
REMARK    5  A    between atoms: C_8  and  O_9
REMARK    6  A    between atoms: C_20  and  C_21
REMARK                            x       y       z     vdW  Elec       q    Type
REMARK                         _______ _______ _______ _____ _____    ______ ____
ROOT
ATOM      1  C   UNL     1       4.563   5.122  16.337  0.00  0.00    +0.000 C 
ENDROOT
BRANCH   1   2
ATOM      2  C   UNL     1       4.312   4.630  17.758  0.00  0.00    +0.000 A 
ATOM      3  C   UNL     1       4.838   3.415  18.213  0.00  0.00    +0.000 A 
ATOM      4  C   UNL     1       4.446   2.942  19.449  0.00  0.00    +0.000 A 
ATOM      5  N   UNL     1       3.589   3.574  20.257  0.00  0.00    +0.000 NA
ATOM      6  C   UNL     1       3.137   4.776  19.878  0.00  0.00    +0.000 A 
ATOM      7  C   UNL     1       2.251   5.434  20.719  0.00  0.00    +0.000 A 
ATOM      8  C   UNL     1       1.765   6.715  20.428  0.00  0.00    +0.000 A 
ATOM      9  C   UNL     1       2.224   7.376  19.301  0.00  0.00    +0.000 A 
ATOM     10  C   UNL     1       3.084   6.719  18.419  0.00  0.00    +0.000 A 
ATOM     11  C   UNL     1       3.517   5.391  18.662  0.00  0.00    +0.000 A 
BRANCH   4  12
ATOM     12  O   UNL     1       4.919   1.760  19.935  0.00  0.00    +0.000 OA
ATOM     13  H   UNL     1       5.864   1.865  20.117  0.00  0.00    +0.000 HD
ENDBRANCH   4  12
ENDBRANCH   1   2
BRANCH   1  17
ATOM     14  C   UNL     1       6.217   3.724  14.366  0.00  0.00    +0.000 C 
ATOM     15  C   UNL     1       6.747   4.959  15.048  0.00  0.00    +0.000 C 
ATOM     16  O   UNL     1       7.870   5.359  14.730  0.00  0.00    +0.000 OA
ATOM     17  N   UNL     1       5.948   5.543  16.043  0.00  0.00    +0.000 N 
BRANCH  17  18
ATOM     18  C   UNL     1       6.592   6.465  16.938  0.00  0.00    +0.000 A 
ATOM     19  C   UNL     1       6.410   7.844  16.763  0.00  0.00    +0.000 A 
ATOM     20  C   UNL     1       7.158   8.766  17.495  0.00  0.00    +0.000 A 
ATOM     21  C   UNL     1       8.127   8.323  18.396  0.00  0.00    +0.000 A 
ATOM     22  C   UNL     1       9.051   9.303  19.057  0.00  0.00    +0.000 C 
ATOM     23  C   UNL     1       8.269   6.950  18.621  0.00  0.00    +0.000 A 
ATOM     24  C   UNL     1       7.492   6.023  17.913  0.00  0.00    +0.000 A 
ENDBRANCH  17  18
ENDBRANCH   1  17
TORSDOF 4
ENDMDL
MODEL 4
REMARK VINA RESULT:      -7.7      1.263      1.376
REMARK  Name = 
REMARK  6 active torsions:
REMARK  status: ('A' for Active; 'I' for Inactive)
REMARK    1  A    between atoms: C_1  and  C_2
REMARK    2  A    between atoms: N_4  and  C_5
REMARK    3  A    between atoms: N_4  and  C_17
REMARK    4  A    between atoms: C_5  and  C_6
REMARK    5  A    between atoms: C_8  and  O_9
REMARK    6  A    between atoms: C_20  and  C_21
REMARK                            x       y       z     vdW  Elec       q    Type
REMARK                         _______ _______ _______ _____ _____    ______ ____
ROOT
ATOM      1  C   UNL     1       3.365   4.087  17.987  0.00  0.00    +0.000 C 
ENDROOT
BRANCH   1   2
ATOM      2  C   UNL     1       4.847   4.445  17.969  0.00  0.00    +0.000 A 
ATOM      3  C   UNL     1       5.536   4.758  19.146  0.00  0.00    +0.000 A 
ATOM      4  C   UNL     1       6.829   5.232  19.054  0.00  0.00    +0.000 A 
ATOM      5  N   UNL     1       7.482   5.412  17.901  0.00  0.00    +0.000 NA
ATOM      6  C   UNL     1       6.871   5.043  16.768  0.00  0.00    +0.000 A 
ATOM      7  C   UNL     1       7.550   5.227  15.572  0.00  0.00    +0.000 A 
ATOM      8  C   UNL     1       7.009   4.825  14.344  0.00  0.00    +0.000 A 
ATOM      9  C   UNL     1       5.790   4.171  14.320  0.00  0.00    +0.000 A 
ATOM     10  C   UNL     1       5.069   4.011  15.506  0.00  0.00    +0.000 A 
ATOM     11  C   UNL     1       5.570   4.487  16.743  0.00  0.00    +0.000 A 
BRANCH   4  12
ATOM     12  O   UNL     1       7.542   5.560  20.168  0.00  0.00    +0.000 OA
ATOM     13  H   UNL     1       7.871   4.743  20.568  0.00  0.00    +0.000 HD
ENDBRANCH   4  12
ENDBRANCH   1   2
BRANCH   1  17
ATOM     14  C   UNL     1       1.691   2.470  19.764  0.00  0.00    +0.000 C 
ATOM     15  C   UNL     1       1.829   3.951  20.006  0.00  0.00    +0.000 C 
ATOM     16  O   UNL     1       1.240   4.435  20.976  0.00  0.00    +0.000 OA
ATOM     17  N   UNL     1       2.575   4.692  19.079  0.00  0.00    +0.000 N 
BRANCH  17  18
ATOM     18  C   UNL     1       2.398   6.119  19.091  0.00  0.00    +0.000 A 
ATOM     19  C   UNL     1       2.040   6.764  20.282  0.00  0.00    +0.000 A 
ATOM     20  C   UNL     1       1.685   8.113  20.291  0.00  0.00    +0.000 A 
ATOM     21  C   UNL     1       1.651   8.835  19.097  0.00  0.00    +0.000 A 
ATOM     22  C   UNL     1       1.107  10.233  19.072  0.00  0.00    +0.000 C 
ATOM     23  C   UNL     1       2.068   8.214  17.915  0.00  0.00    +0.000 A 
ATOM     24  C   UNL     1       2.461   6.868  17.912  0.00  0.00    +0.000 A 
ENDBRANCH  17  18
ENDBRANCH   1  17
TORSDOF 4
ENDMDL
MODEL 5
REMARK VINA RESULT:      -7.5      1.767      6.588
REMARK  Name = 
REMARK  6 active torsions:
REMARK  status: ('A' for Active; 'I' for Inactive)
REMARK    1  A    between atoms: C_1  and  C_2
REMARK    2  A    between atoms: N_4  and  C_5
REMARK    3  A    between atoms: N_4  and  C_17
REMARK    4  A    between atoms: C_5  and  C_6
REMARK    5  A    between atoms: C_8  and  O_9
REMARK    6  A    between atoms: C_20  and  C_21
REMARK                            x       y       z     vdW  Elec       q    Type
REMARK                         _______ _______ _______ _____ _____    ______ ____
ROOT
ATOM      1  C   UNL     1       4.666   5.533  17.020  0.00  0.00    +0.000 C 
ENDROOT
BRANCH   1   2
ATOM      2  C   UNL     1       3.862   4.619  17.938  0.00  0.00    +0.000 A 
ATOM      3  C   UNL     1       3.906   3.226  17.802  0.00  0.00    +0.000 A 
ATOM      4  C   UNL     1       3.037   2.457  18.549  0.00  0.00    +0.000 A 
ATOM      5  N   UNL     1       2.144   2.955  19.411  0.00  0.00    +0.000 NA
ATOM      6  C   UNL     1       2.140   4.278  19.617  0.00  0.00    +0.000 A 
ATOM      7  C   UNL     1       1.216   4.796  20.514  0.00  0.00    +0.000 A 
ATOM      8  C   UNL     1       1.173   6.160  20.828  0.00  0.00    +0.000 A 
ATOM      9  C   UNL     1       2.113   7.014  20.279  0.00  0.00    +0.000 A 
ATOM     10  C   UNL     1       3.026   6.525  19.343  0.00  0.00    +0.000 A 
ATOM     11  C   UNL     1       3.026   5.162  18.956  0.00  0.00    +0.000 A 
BRANCH   4  12
ATOM     12  O   UNL     1       3.031   1.098  18.448  0.00  0.00    +0.000 OA
ATOM     13  H   UNL     1       3.630   0.742  19.120  0.00  0.00    +0.000 HD
ENDBRANCH   4  12
ENDBRANCH   1   2
BRANCH   1  17
ATOM     14  C   UNL     1       7.006   5.522  18.780  0.00  0.00    +0.000 C 
ATOM     15  C   UNL     1       7.095   4.899  17.410  0.00  0.00    +0.000 C 
ATOM     16  O   UNL     1       8.163   4.376  17.081  0.00  0.00    +0.000 OA
ATOM     17  N   UNL     1       5.972   5.003  16.577  0.00  0.00    +0.000 N 
BRANCH  17  18
ATOM     18  C   UNL     1       6.174   4.758  15.175  0.00  0.00    +0.000 A 
ATOM     19  C   UNL     1       5.327   3.871  14.496  0.00  0.00    +0.000 A 
ATOM     20  C   UNL     1       5.602   3.472  13.189  0.00  0.00    +0.000 A 
ATOM     21  C   UNL     1       6.753   3.931  12.545  0.00  0.00    +0.000 A 
ATOM     22  C   UNL     1       7.146   3.375  11.208  0.00  0.00    +0.000 C 
ATOM     23  C   UNL     1       7.568   4.864  13.193  0.00  0.00    +0.000 A 
ATOM     24  C   UNL     1       7.271   5.295  14.494  0.00  0.00    +0.000 A 
ENDBRANCH  17  18
ENDBRANCH   1  17
TORSDOF 4
ENDMDL
MODEL 6
REMARK VINA RESULT:      -7.4      1.368      1.793
REMARK  Name = 
REMARK  6 active torsions:
REMARK  status: ('A' for Active; 'I' for Inactive)
REMARK    1  A    between atoms: C_1  and  C_2
REMARK    2  A    between atoms: N_4  and  C_5
REMARK    3  A    between atoms: N_4  and  C_17
REMARK    4  A    between atoms: C_5  and  C_6
REMARK    5  A    between atoms: C_8  and  O_9
REMARK    6  A    between atoms: C_20  and  C_21
REMARK                            x       y       z     vdW  Elec       q    Type
REMARK                         _______ _______ _______ _____ _____    ______ ____
ROOT
ATOM      1  C   UNL     1       3.510   4.400  18.103  0.00  0.00    +0.000 C 
ENDROOT
BRANCH   1   2
ATOM      2  C   UNL     1       5.008   4.644  17.957  0.00  0.00    +0.000 A 
ATOM      3  C   UNL     1       5.810   4.942  19.065  0.00  0.00    +0.000 A 
ATOM      4  C   UNL     1       7.123   5.314  18.855  0.00  0.00    +0.000 A 
ATOM      5  N   UNL     1       7.693   5.407  17.649  0.00  0.00    +0.000 NA
ATOM      6  C   UNL     1       6.968   5.049  16.582  0.00  0.00    +0.000 A 
ATOM      7  C   UNL     1       7.561   5.142  15.330  0.00  0.00    +0.000 A 
ATOM      8  C   UNL     1       6.896   4.743  14.164  0.00  0.00    +0.000 A 
ATOM      9  C   UNL     1       5.634   4.182  14.259  0.00  0.00    +0.000 A 
ATOM     10  C   UNL     1       5.001   4.116  15.502  0.00  0.00    +0.000 A 
ATOM     11  C   UNL     1       5.632   4.592  16.678  0.00  0.00    +0.000 A 
BRANCH   4  12
ATOM     12  O   UNL     1       7.944   5.623  19.897  0.00  0.00    +0.000 OA
ATOM     13  H   UNL     1       8.210   6.550  19.807  0.00  0.00    +0.000 HD
ENDBRANCH   4  12
ENDBRANCH   1   2
BRANCH   1  17
ATOM     14  C   UNL     1       2.871   2.774  20.453  0.00  0.00    +0.000 C 
ATOM     15  C   UNL     1       2.638   4.263  20.485  0.00  0.00    +0.000 C 
ATOM     16  O   UNL     1       2.200   4.758  21.527  0.00  0.00    +0.000 OA
ATOM     17  N   UNL     1       2.883   4.982  19.307  0.00  0.00    +0.000 N 
BRANCH  17  18
ATOM     18  C   UNL     1       2.315   6.300  19.217  0.00  0.00    +0.000 A 
ATOM     19  C   UNL     1       2.339   6.984  17.993  0.00  0.00    +0.000 A 
ATOM     20  C   UNL     1       1.963   8.324  17.911  0.00  0.00    +0.000 A 
ATOM     21  C   UNL     1       1.585   9.016  19.063  0.00  0.00    +0.000 A 
ATOM     22  C   UNL     1       1.345  10.497  19.014  0.00  0.00    +0.000 C 
ATOM     23  C   UNL     1       1.497   8.323  20.275  0.00  0.00    +0.000 A 
ATOM     24  C   UNL     1       1.839   6.965  20.351  0.00  0.00    +0.000 A 
ENDBRANCH  17  18
ENDBRANCH   1  17
TORSDOF 4
ENDMDL
MODEL 7
REMARK VINA RESULT:      -7.4      1.752      6.576
REMARK  Name = 
REMARK  6 active torsions:
REMARK  status: ('A' for Active; 'I' for Inactive)
REMARK    1  A    between atoms: C_1  and  C_2
REMARK    2  A    between atoms: N_4  and  C_5
REMARK    3  A    between atoms: N_4  and  C_17
REMARK    4  A    between atoms: C_5  and  C_6
REMARK    5  A    between atoms: C_8  and  O_9
REMARK    6  A    between atoms: C_20  and  C_21
REMARK                            x       y       z     vdW  Elec       q    Type
REMARK                         _______ _______ _______ _____ _____    ______ ____
ROOT
ATOM      1  C   UNL     1       4.768   5.332  16.998  0.00  0.00    +0.000 C 
ENDROOT
BRANCH   1   2
ATOM      2  C   UNL     1       3.917   4.467  17.922  0.00  0.00    +0.000 A 
ATOM      3  C   UNL     1       3.916   3.070  17.818  0.00  0.00    +0.000 A 
ATOM      4  C   UNL     1       3.008   2.348  18.566  0.00  0.00    +0.000 A 
ATOM      5  N   UNL     1       2.117   2.896  19.399  0.00  0.00    +0.000 NA
ATOM      6  C   UNL     1       2.155   4.223  19.575  0.00  0.00    +0.000 A 
ATOM      7  C   UNL     1       1.232   4.791  20.442  0.00  0.00    +0.000 A 
ATOM      8  C   UNL     1       1.229   6.163  20.724  0.00  0.00    +0.000 A 
ATOM      9  C   UNL     1       2.207   6.973  20.174  0.00  0.00    +0.000 A 
ATOM     10  C   UNL     1       3.120   6.432  19.267  0.00  0.00    +0.000 A 
ATOM     11  C   UNL     1       3.082   5.061  18.910  0.00  0.00    +0.000 A 
BRANCH   4  12
ATOM     12  O   UNL     1       2.959   0.989  18.495  0.00  0.00    +0.000 OA
ATOM     13  H   UNL     1       3.699   0.687  17.950  0.00  0.00    +0.000 HD
ENDBRANCH   4  12
ENDBRANCH   1   2
BRANCH   1  17
ATOM     14  C   UNL     1       6.903   5.422  19.000  0.00  0.00    +0.000 C 
ATOM     15  C   UNL     1       7.152   4.764  17.667  0.00  0.00    +0.000 C 
ATOM     16  O   UNL     1       8.259   4.256  17.471  0.00  0.00    +0.000 OA
ATOM     17  N   UNL     1       6.124   4.820  16.715  0.00  0.00    +0.000 N 
BRANCH  17  18
ATOM     18  C   UNL     1       6.482   4.540  15.351  0.00  0.00    +0.000 A 
ATOM     19  C   UNL     1       7.493   5.288  14.731  0.00  0.00    +0.000 A 
ATOM     20  C   UNL     1       7.741   5.168  13.364  0.00  0.00    +0.000 A 
ATOM     21  C   UNL     1       6.958   4.316  12.584  0.00  0.00    +0.000 A 
ATOM     22  C   UNL     1       7.103   4.309  11.090  0.00  0.00    +0.000 C 
ATOM     23  C   UNL     1       5.991   3.520  13.207  0.00  0.00    +0.000 A 
ATOM     24  C   UNL     1       5.766   3.613  14.587  0.00  0.00    +0.000 A 
ENDBRANCH  17  18
ENDBRANCH   1  17
TORSDOF 4
ENDMDL
MODEL 8
REMARK VINA RESULT:      -7.3      2.215      5.494
REMARK  Name = 
REMARK  6 active torsions:
REMARK  status: ('A' for Active; 'I' for Inactive)
REMARK    1  A    between atoms: C_1  and  C_2
REMARK    2  A    between atoms: N_4  and  C_5
REMARK    3  A    between atoms: N_4  and  C_17
REMARK    4  A    between atoms: C_5  and  C_6
REMARK    5  A    between atoms: C_8  and  O_9
REMARK    6  A    between atoms: C_20  and  C_21
REMARK                            x       y       z     vdW  Elec       q    Type
REMARK                         _______ _______ _______ _____ _____    ______ ____
ROOT
ATOM      1  C   UNL     1       4.858   4.441  16.762  0.00  0.00    +0.000 C 
ENDROOT
BRANCH   1   2
ATOM      2  C   UNL     1       3.888   5.226  17.638  0.00  0.00    +0.000 A 
ATOM      3  C   UNL     1       3.562   6.558  17.353  0.00  0.00    +0.000 A 
ATOM      4  C   UNL     1       2.810   7.268  18.267  0.00  0.00    +0.000 A 
ATOM      5  N   UNL     1       2.360   6.766  19.422  0.00  0.00    +0.000 NA
ATOM      6  C   UNL     1       2.591   5.472  19.676  0.00  0.00    +0.000 A 
ATOM      7  C   UNL     1       2.121   4.949  20.873  0.00  0.00    +0.000 A 
ATOM      8  C   UNL     1       2.273   3.596  21.201  0.00  0.00    +0.000 A 
ATOM      9  C   UNL     1       2.854   2.736  20.286  0.00  0.00    +0.000 A 
ATOM     10  C   UNL     1       3.372   3.245  19.093  0.00  0.00    +0.000 A 
ATOM     11  C   UNL     1       3.296   4.627  18.787  0.00  0.00    +0.000 A 
BRANCH   4  12
ATOM     12  O   UNL     1       2.473   8.569  18.044  0.00  0.00    +0.000 OA
ATOM     13  H   UNL     1       1.935   8.874  18.789  0.00  0.00    +0.000 HD
ENDBRANCH   4  12
ENDBRANCH   1   2
BRANCH   1  17
ATOM     14  C   UNL     1       6.227   3.651  14.298  0.00  0.00    +0.000 C 
ATOM     15  C   UNL     1       6.627   4.921  15.004  0.00  0.00    +0.000 C 
ATOM     16  O   UNL     1       7.518   5.608  14.497  0.00  0.00    +0.000 OA
ATOM     17  N   UNL     1       5.997   5.211  16.222  0.00  0.00    +0.000 N 
BRANCH  17  18
ATOM     18  C   UNL     1       6.626   6.190  17.065  0.00  0.00    +0.000 A 
ATOM     19  C   UNL     1       6.511   7.552  16.753  0.00  0.00    +0.000 A 
ATOM     20  C   UNL     1       7.253   8.513  17.439  0.00  0.00    +0.000 A 
ATOM     21  C   UNL     1       8.151   8.123  18.434  0.00  0.00    +0.000 A 
ATOM     22  C   UNL     1       9.076   9.128  19.057  0.00  0.00    +0.000 C 
ATOM     23  C   UNL     1       8.224   6.773  18.794  0.00  0.00    +0.000 A 
ATOM     24  C   UNL     1       7.450   5.811  18.129  0.00  0.00    +0.000 A 
ENDBRANCH  17  18
ENDBRANCH   1  17
TORSDOF 4
ENDMDL
MODEL 9
REMARK VINA RESULT:      -7.3      2.275      5.567
REMARK  Name = 
REMARK  6 active torsions:
REMARK  status: ('A' for Active; 'I' for Inactive)
REMARK    1  A    between atoms: C_1  and  C_2
REMARK    2  A    between atoms: N_4  and  C_5
REMARK    3  A    between atoms: N_4  and  C_17
REMARK    4  A    between atoms: C_5  and  C_6
REMARK    5  A    between atoms: C_8  and  O_9
REMARK    6  A    between atoms: C_20  and  C_21
REMARK                            x       y       z     vdW  Elec       q    Type
REMARK                         _______ _______ _______ _____ _____    ______ ____
ROOT
ATOM      1  C   UNL     1       5.617   4.596  17.955  0.00  0.00    +0.000 C 
ENDROOT
BRANCH   1   2
ATOM      2  C   UNL     1       4.304   5.278  18.327  0.00  0.00    +0.000 A 
ATOM      3  C   UNL     1       3.955   6.525  17.796  0.00  0.00    +0.000 A 
ATOM      4  C   UNL     1       2.838   7.169  18.290  0.00  0.00    +0.000 A 
ATOM      5  N   UNL     1       2.051   6.675  19.252  0.00  0.00    +0.000 NA
ATOM      6  C   UNL     1       2.320   5.448  19.717  0.00  0.00    +0.000 A 
ATOM      7  C   UNL     1       1.502   4.934  20.713  0.00  0.00    +0.000 A 
ATOM      8  C   UNL     1       1.679   3.642  21.223  0.00  0.00    +0.000 A 
ATOM      9  C   UNL     1       2.656   2.825  20.682  0.00  0.00    +0.000 A 
ATOM     10  C   UNL     1       3.519   3.334  19.708  0.00  0.00    +0.000 A 
ATOM     11  C   UNL     1       3.401   4.667  19.243  0.00  0.00    +0.000 A 
BRANCH   4  12
ATOM     12  O   UNL     1       2.458   8.388  17.816  0.00  0.00    +0.000 OA
ATOM     13  H   UNL     1       2.833   8.498  16.931  0.00  0.00    +0.000 HD
ENDBRANCH   4  12
ENDBRANCH   1   2
BRANCH   1  17
ATOM     14  C   UNL     1       6.163   3.552  15.274  0.00  0.00    +0.000 C 
ATOM     15  C   UNL     1       6.684   4.909  15.671  0.00  0.00    +0.000 C 
ATOM     16  O   UNL     1       7.314   5.556  14.830  0.00  0.00    +0.000 OA
ATOM     17  N   UNL     1       6.465   5.327  16.991  0.00  0.00    +0.000 N 
BRANCH  17  18
ATOM     18  C   UNL     1       7.267   6.419  17.472  0.00  0.00    +0.000 A 
ATOM     19  C   UNL     1       7.971   6.285  18.676  0.00  0.00    +0.000 A 
ATOM     20  C   UNL     1       8.610   7.379  19.261  0.00  0.00    +0.000 A 
ATOM     21  C   UNL     1       8.528   8.638  18.664  0.00  0.00    +0.000 A 
ATOM     22  C   UNL     1       9.063   9.848  19.372  0.00  0.00    +0.000 C 
ATOM     23  C   UNL     1       7.881   8.765  17.431  0.00  0.00    +0.000 A 
ATOM     24  C   UNL     1       7.271   7.658  16.824  0.00  0.00    +0.000 A 
ENDBRANCH  17  18
ENDBRANCH   1  17
TORSDOF 4
ENDMDL
