MODEL 1
REMARK VINA RESULT:      -7.9      0.000      0.000
REMARK  Name = 
REMARK  7 active torsions:
REMARK  status: ('A' for Active; 'I' for Inactive)
REMARK    1  A    between atoms: O_1  and  C_2
REMARK    2  A    between atoms: C_2  and  C_3
REMARK    3  A    between atoms: C_3  and  C_4
REMARK    4  A    between atoms: C_4  and  O_5
REMARK    5  A    between atoms: O_5  and  C_6
REMARK    6  A    between atoms: C_10  and  C_11
REMARK    7  A    between atoms: N_14  and  C_15
REMARK                            x       y       z     vdW  Elec       q    Type
REMARK                         _______ _______ _______ _____ _____    ______ ____
ROOT
ATOM      1  C   UNL     1       1.715   6.908  20.458  0.00  0.00    +0.000 A 
ATOM      2  C   UNL     1       2.536   7.251  19.393  0.00  0.00    +0.000 A 
ATOM      3  C   UNL     1       3.392   6.304  18.842  0.00  0.00    +0.000 A 
ATOM      4  C   UNL     1       3.486   4.995  19.364  0.00  0.00    +0.000 A 
ATOM      5  C   UNL     1       4.389   4.004  18.892  0.00  0.00    +0.000 A 
ATOM      6  C   UNL     1       4.340   2.723  19.450  0.00  0.00    +0.000 A 
ATOM      7  C   UNL     1       3.424   2.474  20.452  0.00  0.00    +0.000 A 
ATOM      8  N   UNL     1       2.583   3.402  20.946  0.00  0.00    +0.000 NA
ATOM      9  C   UNL     1       2.614   4.639  20.420  0.00  0.00    +0.000 A 
ATOM     10  C   UNL     1       1.753   5.598  20.942  0.00  0.00    +0.000 A 
ENDROOT
BRANCH   5  11
ATOM     11  C   UNL     1       5.395   4.278  17.868  0.00  0.00    +0.000 A 
ATOM     12  C   UNL     1       6.725   4.739  17.950  0.00  0.00    +0.000 A 
ATOM     13  N   UNL     1       7.306   4.874  16.759  0.00  0.00    +0.000 NA
ATOM     14  N   UNL     1       6.370   4.450  15.874  0.00  0.00    +0.000 N 
ATOM     15  C   UNL     1       5.206   4.082  16.514  0.00  0.00    +0.000 A 
BRANCH  14  16
ATOM     16  C   UNL     1       6.642   4.429  14.477  0.00  0.00    +0.000 A 
ATOM     17  C   UNL     1       5.946   3.532  13.652  0.00  0.00    +0.000 A 
ATOM     18  C   UNL     1       6.212   3.489  12.282  0.00  0.00    +0.000 A 
ATOM     19  C   UNL     1       7.167   4.339  11.729  0.00  0.00    +0.000 A 
ATOM     20  C   UNL     1       7.854   5.239  12.541  0.00  0.00    +0.000 A 
ATOM     21  C   UNL     1       7.596   5.287  13.913  0.00  0.00    +0.000 A 
ENDBRANCH  14  16
ENDBRANCH   5  11
BRANCH   1  22
ATOM     22  O   UNL     1       0.843   7.763  21.083  0.00  0.00    +0.000 OA
BRANCH  22  23
ATOM     23  C   UNL     1       0.770   9.076  20.513  0.00  0.00    +0.000 C 
BRANCH  23  24
ATOM     24  C   UNL     1       0.791  10.127  21.613  0.00  0.00    +0.000 C 
BRANCH  24  25
ATOM     25  C   UNL     1       0.473   9.502  22.964  0.00  0.00    +0.000 C 
BRANCH  25  26
ATOM     26  O   UNL     1      -0.855   8.996  22.964  0.00  0.00    +0.000 OA
ATOM     27  H   UNL     1      -0.798   8.029  23.046  0.00  0.00    +0.000 HD
ENDBRANCH  25  26
ENDBRANCH  24  25
ENDBRANCH  23  24
ENDBRANCH  22  23
ENDBRANCH   1  22
TORSDOF 7
ENDMDL
MODEL 2
REMARK VINA RESULT:      -7.9      3.605      8.913
REMARK  Name = 
REMARK  7 active torsions:
REMARK  status: ('A' for Active; 'I' for Inactive)
REMARK    1  A    between atoms: O_1  and  C_2
REMARK    2  A    between atoms: C_2  and  C_3
REMARK    3  A    between atoms: C_3  and  C_4
REMARK    4  A    between atoms: C_4  and  O_5
REMARK    5  A    between atoms: O_5  and  C_6
REMARK    6  A    between atoms: C_10  and  C_11
REMARK    7  A    between atoms: N_14  and  C_15
REMARK                            x       y       z     vdW  Elec       q    Type
REMARK                         _______ _______ _______ _____ _____    ______ ____
ROOT
ATOM      1  C   UNL     1       6.380   5.227  16.380  0.00  0.00    +0.000 A 
ATOM      2  C   UNL     1       5.841   6.501  16.499  0.00  0.00    +0.000 A 
ATOM      3  C   UNL     1       4.823   6.742  17.414  0.00  0.00    +0.000 A 
ATOM      4  C   UNL     1       4.283   5.710  18.213  0.00  0.00    +0.000 A 
ATOM      5  C   UNL     1       3.197   5.877  19.115  0.00  0.00    +0.000 A 
ATOM      6  C   UNL     1       2.796   4.791  19.899  0.00  0.00    +0.000 A 
ATOM      7  C   UNL     1       3.462   3.590  19.754  0.00  0.00    +0.000 A 
ATOM      8  N   UNL     1       4.467   3.392  18.881  0.00  0.00    +0.000 NA
ATOM      9  C   UNL     1       4.868   4.426  18.121  0.00  0.00    +0.000 A 
ATOM     10  C   UNL     1       5.898   4.213  17.211  0.00  0.00    +0.000 A 
ENDROOT
BRANCH   5  11
ATOM     11  C   UNL     1       2.457   7.131  19.235  0.00  0.00    +0.000 A 
ATOM     12  C   UNL     1       2.151   8.140  18.298  0.00  0.00    +0.000 A 
ATOM     13  N   UNL     1       1.456   9.148  18.822  0.00  0.00    +0.000 NA
ATOM     14  N   UNL     1       1.253   8.785  20.113  0.00  0.00    +0.000 N 
ATOM     15  C   UNL     1       1.844   7.571  20.391  0.00  0.00    +0.000 A 
BRANCH  14  16
ATOM     16  C   UNL     1       0.515   9.619  20.999  0.00  0.00    +0.000 A 
ATOM     17  C   UNL     1       0.240   9.172  22.300  0.00  0.00    +0.000 A 
ATOM     18  C   UNL     1      -0.496   9.973  23.176  0.00  0.00    +0.000 A 
ATOM     19  C   UNL     1      -0.955  11.222  22.762  0.00  0.00    +0.000 A 
ATOM     20  C   UNL     1      -0.676  11.676  21.475  0.00  0.00    +0.000 A 
ATOM     21  C   UNL     1       0.057  10.880  20.592  0.00  0.00    +0.000 A 
ENDBRANCH  14  16
ENDBRANCH   5  11
BRANCH   1  22
ATOM     22  O   UNL     1       7.378   4.876  15.506  0.00  0.00    +0.000 OA
BRANCH  22  23
ATOM     23  C   UNL     1       7.031   4.981  14.120  0.00  0.00    +0.000 C 
BRANCH  23  24
ATOM     24  C   UNL     1       6.100   3.845  13.724  0.00  0.00    +0.000 C 
BRANCH  24  25
ATOM     25  C   UNL     1       6.254   3.510  12.247  0.00  0.00    +0.000 C 
BRANCH  25  26
ATOM     26  O   UNL     1       6.246   2.100  12.065  0.00  0.00    +0.000 OA
ATOM     27  H   UNL     1       7.040   1.747  12.502  0.00  0.00    +0.000 HD
ENDBRANCH  25  26
ENDBRANCH  24  25
ENDBRANCH  23  24
ENDBRANCH  22  23
ENDBRANCH   1  22
TORSDOF 7
ENDMDL
MODEL 3
REMARK VINA RESULT:      -7.7      1.879      2.157
REMARK  Name = 
REMARK  7 active torsions:
REMARK  status: ('A' for Active; 'I' for Inactive)
REMARK    1  A    between atoms: O_1  and  C_2
REMARK    2  A    between atoms: C_2  and  C_3
REMARK    3  A    between atoms: C_3  and  C_4
REMARK    4  A    between atoms: C_4  and  O_5
REMARK    5  A    between atoms: O_5  and  C_6
REMARK    6  A    between atoms: C_10  and  C_11
REMARK    7  A    between atoms: N_14  and  C_15
REMARK                            x       y       z     vdW  Elec       q    Type
REMARK                         _______ _______ _______ _____ _____    ______ ____
ROOT
ATOM      1  C   UNL     1       1.762   8.318  19.193  0.00  0.00    +0.000 A 
ATOM      2  C   UNL     1       2.658   8.276  18.134  0.00  0.00    +0.000 A 
ATOM      3  C   UNL     1       3.441   7.146  17.931  0.00  0.00    +0.000 A 
ATOM      4  C   UNL     1       3.386   6.037  18.804  0.00  0.00    +0.000 A 
ATOM      5  C   UNL     1       4.209   4.884  18.692  0.00  0.00    +0.000 A 
ATOM      6  C   UNL     1       4.012   3.823  19.581  0.00  0.00    +0.000 A 
ATOM      7  C   UNL     1       3.033   3.944  20.547  0.00  0.00    +0.000 A 
ATOM      8  N   UNL     1       2.265   5.039  20.701  0.00  0.00    +0.000 NA
ATOM      9  C   UNL     1       2.438   6.068  19.854  0.00  0.00    +0.000 A 
ATOM     10  C   UNL     1       1.651   7.202  20.026  0.00  0.00    +0.000 A 
ENDROOT
BRANCH   5  11
ATOM     11  C   UNL     1       5.280   4.772  17.704  0.00  0.00    +0.000 A 
ATOM     12  C   UNL     1       6.682   4.695  17.836  0.00  0.00    +0.000 A 
ATOM     13  N   UNL     1       7.315   4.618  16.667  0.00  0.00    +0.000 NA
ATOM     14  N   UNL     1       6.321   4.592  15.744  0.00  0.00    +0.000 N 
ATOM     15  C   UNL     1       5.081   4.683  16.341  0.00  0.00    +0.000 A 
BRANCH  14  16
ATOM     16  C   UNL     1       6.615   4.491  14.356  0.00  0.00    +0.000 A 
ATOM     17  C   UNL     1       5.922   3.558  13.569  0.00  0.00    +0.000 A 
ATOM     18  C   UNL     1       6.210   3.436  12.208  0.00  0.00    +0.000 A 
ATOM     19  C   UNL     1       7.185   4.244  11.626  0.00  0.00    +0.000 A 
ATOM     20  C   UNL     1       7.869   5.180  12.399  0.00  0.00    +0.000 A 
ATOM     21  C   UNL     1       7.588   5.306  13.761  0.00  0.00    +0.000 A 
ENDBRANCH  14  16
ENDBRANCH   5  11
BRANCH   1  22
ATOM     22  O   UNL     1       0.949   9.383  19.491  0.00  0.00    +0.000 OA
BRANCH  22  23
ATOM     23  C   UNL     1       0.581  10.195  18.370  0.00  0.00    +0.000 C 
BRANCH  23  24
ATOM     24  C   UNL     1      -0.928  10.381  18.329  0.00  0.00    +0.000 C 
BRANCH  24  25
ATOM     25  C   UNL     1      -1.298  11.841  18.552  0.00  0.00    +0.000 C 
BRANCH  25  26
ATOM     26  O   UNL     1      -1.365  12.522  17.306  0.00  0.00    +0.000 OA
ATOM     27  H   UNL     1      -0.454  12.750  17.051  0.00  0.00    +0.000 HD
ENDBRANCH  25  26
ENDBRANCH  24  25
ENDBRANCH  23  24
ENDBRANCH  22  23
ENDBRANCH   1  22
TORSDOF 7
ENDMDL
MODEL 4
REMARK VINA RESULT:      -7.6      3.590      9.034
REMARK  Name = 
REMARK  7 active torsions:
REMARK  status: ('A' for Active; 'I' for Inactive)
REMARK    1  A    between atoms: O_1  and  C_2
REMARK    2  A    between atoms: C_2  and  C_3
REMARK    3  A    between atoms: C_3  and  C_4
REMARK    4  A    between atoms: C_4  and  O_5
REMARK    5  A    between atoms: O_5  and  C_6
REMARK    6  A    between atoms: C_10  and  C_11
REMARK    7  A    between atoms: N_14  and  C_15
REMARK                            x       y       z     vdW  Elec       q    Type
REMARK                         _______ _______ _______ _____ _____    ______ ____
ROOT
ATOM      1  C   UNL     1       5.748   5.362  15.474  0.00  0.00    +0.000 A 
ATOM      2  C   UNL     1       5.175   6.615  15.645  0.00  0.00    +0.000 A 
ATOM      3  C   UNL     1       4.384   6.871  16.758  0.00  0.00    +0.000 A 
ATOM      4  C   UNL     1       4.105   5.873  17.718  0.00  0.00    +0.000 A 
ATOM      5  C   UNL     1       3.249   6.051  18.838  0.00  0.00    +0.000 A 
ATOM      6  C   UNL     1       3.106   5.004  19.753  0.00  0.00    +0.000 A 
ATOM      7  C   UNL     1       3.790   3.828  19.523  0.00  0.00    +0.000 A 
ATOM      8  N   UNL     1       4.576   3.616  18.451  0.00  0.00    +0.000 NA
ATOM      9  C   UNL     1       4.729   4.613  17.562  0.00  0.00    +0.000 A 
ATOM     10  C   UNL     1       5.532   4.385  16.449  0.00  0.00    +0.000 A 
ENDROOT
BRANCH   5  11
ATOM     11  C   UNL     1       2.484   7.276  19.058  0.00  0.00    +0.000 A 
ATOM     12  C   UNL     1       2.169   8.358  18.209  0.00  0.00    +0.000 A 
ATOM     13  N   UNL     1       1.449   9.303  18.811  0.00  0.00    +0.000 NA
ATOM     14  N   UNL     1       1.237   8.824  20.062  0.00  0.00    +0.000 N 
ATOM     15  C   UNL     1       1.848   7.600  20.240  0.00  0.00    +0.000 A 
BRANCH  14  16
ATOM     16  C   UNL     1       0.473   9.562  21.008  0.00  0.00    +0.000 A 
ATOM     17  C   UNL     1      -0.101  10.786  20.629  0.00  0.00    +0.000 A 
ATOM     18  C   UNL     1      -0.840  11.530  21.550  0.00  0.00    +0.000 A 
ATOM     19  C   UNL     1      -1.015  11.057  22.849  0.00  0.00    +0.000 A 
ATOM     20  C   UNL     1      -0.457   9.838  23.229  0.00  0.00    +0.000 A 
ATOM     21  C   UNL     1       0.286   9.089  22.314  0.00  0.00    +0.000 A 
ENDBRANCH  14  16
ENDBRANCH   5  11
BRANCH   1  22
ATOM     22  O   UNL     1       6.535   4.997  14.411  0.00  0.00    +0.000 OA
BRANCH  22  23
ATOM     23  C   UNL     1       6.280   3.687  13.890  0.00  0.00    +0.000 C 
BRANCH  23  24
ATOM     24  C   UNL     1       6.308   3.712  12.369  0.00  0.00    +0.000 C 
BRANCH  24  25
ATOM     25  C   UNL     1       5.408   2.627  11.795  0.00  0.00    +0.000 C 
BRANCH  25  26
ATOM     26  O   UNL     1       4.236   3.211  11.242  0.00  0.00    +0.000 OA
ATOM     27  H   UNL     1       4.514   3.770  10.497  0.00  0.00    +0.000 HD
ENDBRANCH  25  26
ENDBRANCH  24  25
ENDBRANCH  23  24
ENDBRANCH  22  23
ENDBRANCH   1  22
TORSDOF 7
ENDMDL
MODEL 5
REMARK VINA RESULT:      -7.6      1.029      1.579
REMARK  Name = 
REMARK  7 active torsions:
REMARK  status: ('A' for Active; 'I' for Inactive)
REMARK    1  A    between atoms: O_1  and  C_2
REMARK    2  A    between atoms: C_2  and  C_3
REMARK    3  A    between atoms: C_3  and  C_4
REMARK    4  A    between atoms: C_4  and  O_5
REMARK    5  A    between atoms: O_5  and  C_6
REMARK    6  A    between atoms: C_10  and  C_11
REMARK    7  A    between atoms: N_14  and  C_15
REMARK                            x       y       z     vdW  Elec       q    Type
REMARK                         _______ _______ _______ _____ _____    ______ ____
ROOT
ATOM      1  C   UNL     1       1.736   8.527  19.155  0.00  0.00    +0.000 A 
ATOM      2  C   UNL     1       2.643   8.465  18.106  0.00  0.00    +0.000 A 
ATOM      3  C   UNL     1       3.401   7.317  17.909  0.00  0.00    +0.000 A 
ATOM      4  C   UNL     1       3.308   6.207  18.778  0.00  0.00    +0.000 A 
ATOM      5  C   UNL     1       4.104   5.034  18.672  0.00  0.00    +0.000 A 
ATOM      6  C   UNL     1       3.870   3.977  19.556  0.00  0.00    +0.000 A 
ATOM      7  C   UNL     1       2.883   4.119  20.510  0.00  0.00    +0.000 A 
ATOM      8  N   UNL     1       2.141   5.232  20.659  0.00  0.00    +0.000 NA
ATOM      9  C   UNL     1       2.349   6.258  19.817  0.00  0.00    +0.000 A 
ATOM     10  C   UNL     1       1.588   7.411  19.983  0.00  0.00    +0.000 A 
ENDROOT
BRANCH   5  11
ATOM     11  C   UNL     1       5.184   4.900  17.696  0.00  0.00    +0.000 A 
ATOM     12  C   UNL     1       6.587   4.862  17.840  0.00  0.00    +0.000 A 
ATOM     13  N   UNL     1       7.228   4.742  16.679  0.00  0.00    +0.000 NA
ATOM     14  N   UNL     1       6.241   4.648  15.753  0.00  0.00    +0.000 N 
ATOM     15  C   UNL     1       4.995   4.738  16.339  0.00  0.00    +0.000 A 
BRANCH  14  16
ATOM     16  C   UNL     1       6.546   4.485  14.373  0.00  0.00    +0.000 A 
ATOM     17  C   UNL     1       7.550   5.274  13.790  0.00  0.00    +0.000 A 
ATOM     18  C   UNL     1       7.850   5.137  12.434  0.00  0.00    +0.000 A 
ATOM     19  C   UNL     1       7.157   4.212  11.655  0.00  0.00    +0.000 A 
ATOM     20  C   UNL     1       6.167   3.420  12.230  0.00  0.00    +0.000 A 
ATOM     21  C   UNL     1       5.858   3.552  13.586  0.00  0.00    +0.000 A 
ENDBRANCH  14  16
ENDBRANCH   5  11
BRANCH   1  22
ATOM     22  O   UNL     1       0.946   9.610  19.447  0.00  0.00    +0.000 OA
BRANCH  22  23
ATOM     23  C   UNL     1       1.046  10.086  20.794  0.00  0.00    +0.000 C 
BRANCH  23  24
ATOM     24  C   UNL     1      -0.339  10.202  21.414  0.00  0.00    +0.000 C 
BRANCH  24  25
ATOM     25  C   UNL     1      -0.469   9.283  22.621  0.00  0.00    +0.000 C 
BRANCH  25  26
ATOM     26  O   UNL     1       0.261   9.817  23.718  0.00  0.00    +0.000 OA
ATOM     27  H   UNL     1      -0.192  10.630  24.000  0.00  0.00    +0.000 HD
ENDBRANCH  25  26
ENDBRANCH  24  25
ENDBRANCH  23  24
ENDBRANCH  22  23
ENDBRANCH   1  22
TORSDOF 7
ENDMDL
MODEL 6
REMARK VINA RESULT:      -7.5      3.351      8.925
REMARK  Name = 
REMARK  7 active torsions:
REMARK  status: ('A' for Active; 'I' for Inactive)
REMARK    1  A    between atoms: O_1  and  C_2
REMARK    2  A    between atoms: C_2  and  C_3
REMARK    3  A    between atoms: C_3  and  C_4
REMARK    4  A    between atoms: C_4  and  O_5
REMARK    5  A    between atoms: O_5  and  C_6
REMARK    6  A    between atoms: C_10  and  C_11
REMARK    7  A    between atoms: N_14  and  C_15
REMARK                            x       y       z     vdW  Elec       q    Type
REMARK                         _______ _______ _______ _____ _____    ______ ____
ROOT
ATOM      1  C   UNL     1       5.314   4.617  16.388  0.00  0.00    +0.000 A 
ATOM      2  C   UNL     1       4.911   5.945  16.417  0.00  0.00    +0.000 A 
ATOM      3  C   UNL     1       4.102   6.404  17.450  0.00  0.00    +0.000 A 
ATOM      4  C   UNL     1       3.635   5.543  18.466  0.00  0.00    +0.000 A 
ATOM      5  C   UNL     1       2.750   5.934  19.508  0.00  0.00    +0.000 A 
ATOM      6  C   UNL     1       2.412   5.002  20.494  0.00  0.00    +0.000 A 
ATOM      7  C   UNL     1       2.939   3.729  20.407  0.00  0.00    +0.000 A 
ATOM      8  N   UNL     1       3.747   3.319  19.412  0.00  0.00    +0.000 NA
ATOM      9  C   UNL     1       4.085   4.202  18.457  0.00  0.00    +0.000 A 
ATOM     10  C   UNL     1       4.910   3.770  17.423  0.00  0.00    +0.000 A 
ENDROOT
BRANCH   5  11
ATOM     11  C   UNL     1       2.151   7.265  19.575  0.00  0.00    +0.000 A 
ATOM     12  C   UNL     1       2.070   8.313  18.633  0.00  0.00    +0.000 A 
ATOM     13  N   UNL     1       1.441   9.389  19.101  0.00  0.00    +0.000 NA
ATOM     14  N   UNL     1       1.053   9.039  20.352  0.00  0.00    +0.000 N 
ATOM     15  C   UNL     1       1.466   7.761  20.666  0.00  0.00    +0.000 A 
BRANCH  14  16
ATOM     16  C   UNL     1       0.321   9.944  21.171  0.00  0.00    +0.000 A 
ATOM     17  C   UNL     1       0.164  11.277  20.758  0.00  0.00    +0.000 A 
ATOM     18  C   UNL     1      -0.538  12.180  21.557  0.00  0.00    +0.000 A 
ATOM     19  C   UNL     1      -1.090  11.761  22.766  0.00  0.00    +0.000 A 
ATOM     20  C   UNL     1      -0.947  10.438  23.177  0.00  0.00    +0.000 A 
ATOM     21  C   UNL     1      -0.243   9.528  22.384  0.00  0.00    +0.000 A 
ENDBRANCH  14  16
ENDBRANCH   5  11
BRANCH   1  22
ATOM     22  O   UNL     1       6.101   4.057  15.415  0.00  0.00    +0.000 OA
BRANCH  22  23
ATOM     23  C   UNL     1       5.604   4.198  14.079  0.00  0.00    +0.000 C 
BRANCH  23  24
ATOM     24  C   UNL     1       6.695   3.861  13.074  0.00  0.00    +0.000 C 
BRANCH  24  25
ATOM     25  C   UNL     1       7.600   5.061  12.836  0.00  0.00    +0.000 C 
BRANCH  25  26
ATOM     26  O   UNL     1       7.970   5.645  14.078  0.00  0.00    +0.000 OA
ATOM     27  H   UNL     1       7.261   5.447  14.714  0.00  0.00    +0.000 HD
ENDBRANCH  25  26
ENDBRANCH  24  25
ENDBRANCH  23  24
ENDBRANCH  22  23
ENDBRANCH   1  22
TORSDOF 7
ENDMDL
MODEL 7
REMARK VINA RESULT:      -7.5      1.141      1.774
REMARK  Name = 
REMARK  7 active torsions:
REMARK  status: ('A' for Active; 'I' for Inactive)
REMARK    1  A    between atoms: O_1  and  C_2
REMARK    2  A    between atoms: C_2  and  C_3
REMARK    3  A    between atoms: C_3  and  C_4
REMARK    4  A    between atoms: C_4  and  O_5
REMARK    5  A    between atoms: O_5  and  C_6
REMARK    6  A    between atoms: C_10  and  C_11
REMARK    7  A    between atoms: N_14  and  C_15
REMARK                            x       y       z     vdW  Elec       q    Type
REMARK                         _______ _______ _______ _____ _____    ______ ____
ROOT
ATOM      1  C   UNL     1       1.638   7.238  20.435  0.00  0.00    +0.000 A 
ATOM      2  C   UNL     1       2.472   7.533  19.365  0.00  0.00    +0.000 A 
ATOM      3  C   UNL     1       3.278   6.542  18.817  0.00  0.00    +0.000 A 
ATOM      4  C   UNL     1       3.309   5.233  19.346  0.00  0.00    +0.000 A 
ATOM      5  C   UNL     1       4.161   4.196  18.877  0.00  0.00    +0.000 A 
ATOM      6  C   UNL     1       4.050   2.923  19.442  0.00  0.00    +0.000 A 
ATOM      7  C   UNL     1       3.126   2.725  20.449  0.00  0.00    +0.000 A 
ATOM      8  N   UNL     1       2.334   3.696  20.939  0.00  0.00    +0.000 NA
ATOM      9  C   UNL     1       2.424   4.926  20.407  0.00  0.00    +0.000 A 
ATOM     10  C   UNL     1       1.613   5.930  20.926  0.00  0.00    +0.000 A 
ENDROOT
BRANCH   5  11
ATOM     11  C   UNL     1       5.175   4.414  17.848  0.00  0.00    +0.000 A 
ATOM     12  C   UNL     1       6.501   4.891  17.915  0.00  0.00    +0.000 A 
ATOM     13  N   UNL     1       7.094   4.957  16.724  0.00  0.00    +0.000 NA
ATOM     14  N   UNL     1       6.171   4.471  15.857  0.00  0.00    +0.000 N 
ATOM     15  C   UNL     1       5.002   4.133  16.508  0.00  0.00    +0.000 A 
BRANCH  14  16
ATOM     16  C   UNL     1       6.457   4.365  14.468  0.00  0.00    +0.000 A 
ATOM     17  C   UNL     1       7.481   5.148  13.912  0.00  0.00    +0.000 A 
ATOM     18  C   UNL     1       7.764   5.066  12.548  0.00  0.00    +0.000 A 
ATOM     19  C   UNL     1       7.033   4.204  11.733  0.00  0.00    +0.000 A 
ATOM     20  C   UNL     1       6.022   3.417  12.280  0.00  0.00    +0.000 A 
ATOM     21  C   UNL     1       5.731   3.494  13.644  0.00  0.00    +0.000 A 
ENDBRANCH  14  16
ENDBRANCH   5  11
BRANCH   1  22
ATOM     22  O   UNL     1       0.811   8.138  21.057  0.00  0.00    +0.000 OA
BRANCH  22  23
ATOM     23  C   UNL     1       1.003   9.504  20.669  0.00  0.00    +0.000 C 
BRANCH  23  24
ATOM     24  C   UNL     1      -0.181   9.987  19.845  0.00  0.00    +0.000 C 
BRANCH  24  25
ATOM     25  C   UNL     1       0.288  10.586  18.526  0.00  0.00    +0.000 C 
BRANCH  25  26
ATOM     26  O   UNL     1      -0.801  10.669  17.616  0.00  0.00    +0.000 OA
ATOM     27  H   UNL     1      -1.138   9.766  17.483  0.00  0.00    +0.000 HD
ENDBRANCH  25  26
ENDBRANCH  24  25
ENDBRANCH  23  24
ENDBRANCH  22  23
ENDBRANCH   1  22
TORSDOF 7
ENDMDL
MODEL 8
REMARK VINA RESULT:      -7.3      1.419      1.543
REMARK  Name = 
REMARK  7 active torsions:
REMARK  status: ('A' for Active; 'I' for Inactive)
REMARK    1  A    between atoms: O_1  and  C_2
REMARK    2  A    between atoms: C_2  and  C_3
REMARK    3  A    between atoms: C_3  and  C_4
REMARK    4  A    between atoms: C_4  and  O_5
REMARK    5  A    between atoms: O_5  and  C_6
REMARK    6  A    between atoms: C_10  and  C_11
REMARK    7  A    between atoms: N_14  and  C_15
REMARK                            x       y       z     vdW  Elec       q    Type
REMARK                         _______ _______ _______ _____ _____    ______ ____
ROOT
ATOM      1  C   UNL     1       1.797   8.177  19.379  0.00  0.00    +0.000 A 
ATOM      2  C   UNL     1       2.683   8.189  18.311  0.00  0.00    +0.000 A 
ATOM      3  C   UNL     1       3.459   7.069  18.039  0.00  0.00    +0.000 A 
ATOM      4  C   UNL     1       3.405   5.913  18.850  0.00  0.00    +0.000 A 
ATOM      5  C   UNL     1       4.221   4.764  18.667  0.00  0.00    +0.000 A 
ATOM      6  C   UNL     1       4.026   3.657  19.498  0.00  0.00    +0.000 A 
ATOM      7  C   UNL     1       3.057   3.729  20.478  0.00  0.00    +0.000 A 
ATOM      8  N   UNL     1       2.296   4.817  20.699  0.00  0.00    +0.000 NA
ATOM      9  C   UNL     1       2.467   5.891  19.908  0.00  0.00    +0.000 A 
ATOM     10  C   UNL     1       1.688   7.017  20.150  0.00  0.00    +0.000 A 
ENDROOT
BRANCH   5  11
ATOM     11  C   UNL     1       5.283   4.703  17.664  0.00  0.00    +0.000 A 
ATOM     12  C   UNL     1       6.689   4.732  17.775  0.00  0.00    +0.000 A 
ATOM     13  N   UNL     1       7.308   4.667  16.598  0.00  0.00    +0.000 NA
ATOM     14  N   UNL     1       6.305   4.542  15.693  0.00  0.00    +0.000 N 
ATOM     15  C   UNL     1       5.070   4.559  16.308  0.00  0.00    +0.000 A 
BRANCH  14  16
ATOM     16  C   UNL     1       6.585   4.422  14.303  0.00  0.00    +0.000 A 
ATOM     17  C   UNL     1       5.854   3.510  13.527  0.00  0.00    +0.000 A 
ATOM     18  C   UNL     1       6.127   3.370  12.165  0.00  0.00    +0.000 A 
ATOM     19  C   UNL     1       7.126   4.139  11.571  0.00  0.00    +0.000 A 
ATOM     20  C   UNL     1       7.848   5.054  12.333  0.00  0.00    +0.000 A 
ATOM     21  C   UNL     1       7.582   5.198  13.697  0.00  0.00    +0.000 A 
ENDBRANCH  14  16
ENDBRANCH   5  11
BRANCH   1  22
ATOM     22  O   UNL     1       0.992   9.228  19.743  0.00  0.00    +0.000 OA
BRANCH  22  23
ATOM     23  C   UNL     1       1.045  10.361  18.868  0.00  0.00    +0.000 C 
BRANCH  23  24
ATOM     24  C   UNL     1      -0.056  11.350  19.223  0.00  0.00    +0.000 C 
BRANCH  24  25
ATOM     25  C   UNL     1       0.362  12.224  20.397  0.00  0.00    +0.000 C 
BRANCH  25  26
ATOM     26  O   UNL     1       1.214  11.493  21.269  0.00  0.00    +0.000 OA
ATOM     27  H   UNL     1       1.252  10.579  20.939  0.00  0.00    +0.000 HD
ENDBRANCH  25  26
ENDBRANCH  24  25
ENDBRANCH  23  24
ENDBRANCH  22  23
ENDBRANCH   1  22
TORSDOF 7
ENDMDL
MODEL 9
REMARK VINA RESULT:      -7.3      2.038      2.585
REMARK  Name = 
REMARK  7 active torsions:
REMARK  status: ('A' for Active; 'I' for Inactive)
REMARK    1  A    between atoms: O_1  and  C_2
REMARK    2  A    between atoms: C_2  and  C_3
REMARK    3  A    between atoms: C_3  and  C_4
REMARK    4  A    between atoms: C_4  and  O_5
REMARK    5  A    between atoms: O_5  and  C_6
REMARK    6  A    between atoms: C_10  and  C_11
REMARK    7  A    between atoms: N_14  and  C_15
REMARK                            x       y       z     vdW  Elec       q    Type
REMARK                         _______ _______ _______ _____ _____    ______ ____
ROOT
ATOM      1  C   UNL     1       1.685   9.015  18.845  0.00  0.00    +0.000 A 
ATOM      2  C   UNL     1       2.611   8.797  17.834  0.00  0.00    +0.000 A 
ATOM      3  C   UNL     1       3.297   7.589  17.769  0.00  0.00    +0.000 A 
ATOM      4  C   UNL     1       3.110   6.575  18.735  0.00  0.00    +0.000 A 
ATOM      5  C   UNL     1       3.830   5.350  18.764  0.00  0.00    +0.000 A 
ATOM      6  C   UNL     1       3.506   4.398  19.735  0.00  0.00    +0.000 A 
ATOM      7  C   UNL     1       2.507   4.693  20.641  0.00  0.00    +0.000 A 
ATOM      8  N   UNL     1       1.836   5.860  20.662  0.00  0.00    +0.000 NA
ATOM      9  C   UNL     1       2.132   6.786  19.735  0.00  0.00    +0.000 A 
ATOM     10  C   UNL     1       1.444   7.995  19.769  0.00  0.00    +0.000 A 
ENDROOT
BRANCH   5  11
ATOM     11  C   UNL     1       4.921   5.055  17.838  0.00  0.00    +0.000 A 
ATOM     12  C   UNL     1       6.289   4.778  18.048  0.00  0.00    +0.000 A 
ATOM     13  N   UNL     1       6.961   4.575  16.917  0.00  0.00    +0.000 NA
ATOM     14  N   UNL     1       6.022   4.668  15.942  0.00  0.00    +0.000 N 
ATOM     15  C   UNL     1       4.780   4.955  16.469  0.00  0.00    +0.000 A 
BRANCH  14  16
ATOM     16  C   UNL     1       6.369   4.484  14.574  0.00  0.00    +0.000 A 
ATOM     17  C   UNL     1       7.422   5.228  14.022  0.00  0.00    +0.000 A 
ATOM     18  C   UNL     1       7.764   5.070  12.678  0.00  0.00    +0.000 A 
ATOM     19  C   UNL     1       7.062   4.168  11.881  0.00  0.00    +0.000 A 
ATOM     20  C   UNL     1       6.021   3.419  12.425  0.00  0.00    +0.000 A 
ATOM     21  C   UNL     1       5.672   3.573  13.768  0.00  0.00    +0.000 A 
ENDBRANCH  14  16
ENDBRANCH   5  11
BRANCH   1  22
ATOM     22  O   UNL     1       0.961  10.169  19.009  0.00  0.00    +0.000 OA
BRANCH  22  23
ATOM     23  C   UNL     1      -0.461   9.999  18.992  0.00  0.00    +0.000 C 
BRANCH  23  24
ATOM     24  C   UNL     1      -1.152  11.323  19.279  0.00  0.00    +0.000 C 
BRANCH  24  25
ATOM     25  C   UNL     1      -0.385  12.480  18.654  0.00  0.00    +0.000 C 
BRANCH  25  26
ATOM     26  O   UNL     1      -1.029  12.900  17.458  0.00  0.00    +0.000 OA
ATOM     27  H   UNL     1      -1.953  12.598  17.505  0.00  0.00    +0.000 HD
ENDBRANCH  25  26
ENDBRANCH  24  25
ENDBRANCH  23  24
ENDBRANCH  22  23
ENDBRANCH   1  22
TORSDOF 7
ENDMDL
