MODEL 1
REMARK VINA RESULT:      -9.0      0.000      0.000
REMARK  Name = 
REMARK  8 active torsions:
REMARK  status: ('A' for Active; 'I' for Inactive)
REMARK    1  A    between atoms: C_1  and  C_2
REMARK    2  A    between atoms: C_2  and  O_3
REMARK    3  A    between atoms: O_3  and  C_4
REMARK    4  A    between atoms: C_4  and  C_6
REMARK    5  A    between atoms: C_9  and  N_10
REMARK    6  A    between atoms: C_14  and  N_15
REMARK    7  A    between atoms: N_15  and  C_16
REMARK    8  A    between atoms: C_20  and  C_22
REMARK                            x       y       z     vdW  Elec       q    Type
REMARK                         _______ _______ _______ _____ _____    ______ ____
ROOT
ATOM      1  N   UNL     1       3.197   5.812  18.864  0.00  0.00    +0.000 N 
ATOM      2  C   UNL     1       2.957   4.866  19.828  0.00  0.00    +0.000 C 
ATOM      3  O   UNL     1       3.430   3.750  19.982  0.00  0.00    +0.000 OA
ATOM      4  C   UNL     1       2.005   5.409  20.819  0.00  0.00    +0.000 C 
ATOM      5  C   UNL     1       1.635   6.795  20.369  0.00  0.00    +0.000 C 
ATOM      6  C   UNL     1       2.497   6.975  19.114  0.00  0.00    +0.000 C 
ATOM      7  O   UNL     1       2.465   8.022  18.473  0.00  0.00    +0.000 OA
ENDROOT
BRANCH   1  11
ATOM      8  C   UNL     1       5.850   5.111  15.620  0.00  0.00    +0.000 A 
ATOM      9  C   UNL     1       4.830   4.206  15.902  0.00  0.00    +0.000 A 
ATOM     10  C   UNL     1       3.962   4.450  16.963  0.00  0.00    +0.000 A 
ATOM     11  C   UNL     1       4.083   5.595  17.773  0.00  0.00    +0.000 A 
ATOM     12  C   UNL     1       5.118   6.492  17.475  0.00  0.00    +0.000 A 
ATOM     13  C   UNL     1       5.993   6.255  16.411  0.00  0.00    +0.000 A 
BRANCH   8  14
ATOM     14  C   UNL     1       6.799   4.751  14.544  0.00  0.00    +0.000 C 
ATOM     15  O   UNL     1       7.770   5.425  14.242  0.00  0.00    +0.000 OA
BRANCH  14  16
ATOM     16  O   UNL     1       6.318   3.681  13.868  0.00  0.00    +0.000 OA
BRANCH  16  18
ATOM     17  C   UNL     1       5.541   2.742  11.827  0.00  0.00    +0.000 C 
ATOM     18  C   UNL     1       6.482   3.758  12.450  0.00  0.00    +0.000 C 
ENDBRANCH  16  18
ENDBRANCH  14  16
ENDBRANCH   8  14
ENDBRANCH   1  11
BRANCH   5  19
ATOM     19  N   UNL     1       1.929   7.870  21.324  0.00  0.00    +0.000 NA
ATOM     20  H   UNL     1       2.609   8.494  20.870  0.00  0.00    +0.000 HD
BRANCH  19  21
ATOM     21  C   UNL     1       0.867   8.704  21.918  0.00  0.00    +0.000 C 
ATOM     22  C   UNL     1      -0.552   8.494  21.400  0.00  0.00    +0.000 C 
ATOM     23  C   UNL     1      -0.945   9.372  20.221  0.00  0.00    +0.000 C 
ATOM     24  N   UNL     1      -0.488  10.752  20.241  0.00  0.00    +0.000 N 
ATOM     25  C   UNL     1      -0.968  11.708  19.321  0.00  0.00    +0.000 C 
ATOM     26  O   UNL     1      -0.610  12.884  19.334  0.00  0.00    +0.000 OA
ATOM     27  C   UNL     1       0.818  11.034  20.840  0.00  0.00    +0.000 C 
ATOM     28  C   UNL     1       1.138  10.204  22.076  0.00  0.00    +0.000 C 
BRANCH  25  29
ATOM     29  C   UNL     1      -1.939  11.300  18.258  0.00  0.00    +0.000 A 
ATOM     30  C   UNL     1      -1.491  10.502  17.201  0.00  0.00    +0.000 A 
ATOM     31  C   UNL     1      -2.372  10.153  16.172  0.00  0.00    +0.000 A 
ATOM     32  C   UNL     1      -3.686  10.613  16.195  0.00  0.00    +0.000 A 
ATOM     33  F   UNL     1      -4.512  10.316  15.186  0.00  0.00    +0.000 F 
ATOM     34  C   UNL     1      -4.158  11.362  17.262  0.00  0.00    +0.000 A 
ATOM     35  C   UNL     1      -3.295  11.657  18.318  0.00  0.00    +0.000 A 
ENDBRANCH  25  29
ENDBRANCH  19  21
ENDBRANCH   5  19
TORSDOF 7
ENDMDL
MODEL 2
REMARK VINA RESULT:      -8.7      0.482      1.239
REMARK  Name = 
REMARK  8 active torsions:
REMARK  status: ('A' for Active; 'I' for Inactive)
REMARK    1  A    between atoms: C_1  and  C_2
REMARK    2  A    between atoms: C_2  and  O_3
REMARK    3  A    between atoms: O_3  and  C_4
REMARK    4  A    between atoms: C_4  and  C_6
REMARK    5  A    between atoms: C_9  and  N_10
REMARK    6  A    between atoms: C_14  and  N_15
REMARK    7  A    between atoms: N_15  and  C_16
REMARK    8  A    between atoms: C_20  and  C_22
REMARK                            x       y       z     vdW  Elec       q    Type
REMARK                         _______ _______ _______ _____ _____    ______ ____
ROOT
ATOM      1  N   UNL     1       3.164   5.723  18.886  0.00  0.00    +0.000 N 
ATOM      2  C   UNL     1       2.824   4.825  19.866  0.00  0.00    +0.000 C 
ATOM      3  O   UNL     1       3.214   3.685  20.070  0.00  0.00    +0.000 OA
ATOM      4  C   UNL     1       1.876   5.461  20.804  0.00  0.00    +0.000 C 
ATOM      5  C   UNL     1       1.618   6.854  20.300  0.00  0.00    +0.000 C 
ATOM      6  C   UNL     1       2.535   6.937  19.075  0.00  0.00    +0.000 C 
ATOM      7  O   UNL     1       2.598   7.963  18.404  0.00  0.00    +0.000 OA
ENDROOT
BRANCH   1  11
ATOM      8  C   UNL     1       5.858   4.840  15.721  0.00  0.00    +0.000 A 
ATOM      9  C   UNL     1       5.704   6.150  16.168  0.00  0.00    +0.000 A 
ATOM     10  C   UNL     1       4.824   6.427  17.211  0.00  0.00    +0.000 A 
ATOM     11  C   UNL     1       4.073   5.413  17.836  0.00  0.00    +0.000 A 
ATOM     12  C   UNL     1       4.239   4.102  17.369  0.00  0.00    +0.000 A 
ATOM     13  C   UNL     1       5.122   3.816  16.323  0.00  0.00    +0.000 A 
BRANCH   8  14
ATOM     14  C   UNL     1       6.733   4.622  14.547  0.00  0.00    +0.000 C 
ATOM     15  O   UNL     1       7.635   5.377  14.224  0.00  0.00    +0.000 OA
BRANCH  14  16
ATOM     16  O   UNL     1       6.259   3.576  13.830  0.00  0.00    +0.000 OA
BRANCH  16  18
ATOM     17  C   UNL     1       5.285   2.971  11.747  0.00  0.00    +0.000 C 
ATOM     18  C   UNL     1       6.434   3.705  12.417  0.00  0.00    +0.000 C 
ENDBRANCH  16  18
ENDBRANCH  14  16
ENDBRANCH   8  14
ENDBRANCH   1  11
BRANCH   5  19
ATOM     19  N   UNL     1       1.949   7.936  21.235  0.00  0.00    +0.000 NA
ATOM     20  H   UNL     1       2.522   8.613  20.715  0.00  0.00    +0.000 HD
BRANCH  19  21
ATOM     21  C   UNL     1       0.910   8.683  21.969  0.00  0.00    +0.000 C 
ATOM     22  C   UNL     1      -0.526   8.547  21.472  0.00  0.00    +0.000 C 
ATOM     23  C   UNL     1      -0.950   9.576  20.436  0.00  0.00    +0.000 C 
ATOM     24  N   UNL     1      -0.485  10.940  20.628  0.00  0.00    +0.000 N 
ATOM     25  C   UNL     1      -0.988  12.013  19.861  0.00  0.00    +0.000 C 
ATOM     26  O   UNL     1      -0.624  13.176  20.022  0.00  0.00    +0.000 OA
ATOM     27  C   UNL     1       0.840  11.138  21.218  0.00  0.00    +0.000 C 
ATOM     28  C   UNL     1       1.194  10.147  22.320  0.00  0.00    +0.000 C 
BRANCH  25  29
ATOM     29  C   UNL     1      -1.995  11.753  18.784  0.00  0.00    +0.000 A 
ATOM     30  C   UNL     1      -3.350  11.953  19.062  0.00  0.00    +0.000 A 
ATOM     31  C   UNL     1      -4.310  11.667  18.085  0.00  0.00    +0.000 A 
ATOM     32  C   UNL     1      -3.913  11.169  16.846  0.00  0.00    +0.000 A 
ATOM     33  F   UNL     1      -4.836  10.852  15.931  0.00  0.00    +0.000 F 
ATOM     34  C   UNL     1      -2.571  11.013  16.540  0.00  0.00    +0.000 A 
ATOM     35  C   UNL     1      -1.612  11.359  17.493  0.00  0.00    +0.000 A 
ENDBRANCH  25  29
ENDBRANCH  19  21
ENDBRANCH   5  19
TORSDOF 7
ENDMDL
MODEL 3
REMARK VINA RESULT:      -8.1      2.779      3.669
REMARK  Name = 
REMARK  8 active torsions:
REMARK  status: ('A' for Active; 'I' for Inactive)
REMARK    1  A    between atoms: C_1  and  C_2
REMARK    2  A    between atoms: C_2  and  O_3
REMARK    3  A    between atoms: O_3  and  C_4
REMARK    4  A    between atoms: C_4  and  C_6
REMARK    5  A    between atoms: C_9  and  N_10
REMARK    6  A    between atoms: C_14  and  N_15
REMARK    7  A    between atoms: N_15  and  C_16
REMARK    8  A    between atoms: C_20  and  C_22
REMARK                            x       y       z     vdW  Elec       q    Type
REMARK                         _______ _______ _______ _____ _____    ______ ____
ROOT
ATOM      1  N   UNL     1       3.219   5.978  18.562  0.00  0.00    +0.000 N 
ATOM      2  C   UNL     1       3.250   5.289  19.748  0.00  0.00    +0.000 C 
ATOM      3  O   UNL     1       4.007   4.413  20.140  0.00  0.00    +0.000 OA
ATOM      4  C   UNL     1       2.196   5.810  20.643  0.00  0.00    +0.000 C 
ATOM      5  C   UNL     1       1.464   6.885  19.890  0.00  0.00    +0.000 C 
ATOM      6  C   UNL     1       2.234   6.944  18.567  0.00  0.00    +0.000 C 
ATOM      7  O   UNL     1       1.917   7.741  17.689  0.00  0.00    +0.000 OA
ENDROOT
BRANCH   1  11
ATOM      8  C   UNL     1       5.928   5.151  15.395  0.00  0.00    +0.000 A 
ATOM      9  C   UNL     1       5.050   4.168  15.843  0.00  0.00    +0.000 A 
ATOM     10  C   UNL     1       4.161   4.452  16.877  0.00  0.00    +0.000 A 
ATOM     11  C   UNL     1       4.122   5.717  17.494  0.00  0.00    +0.000 A 
ATOM     12  C   UNL     1       5.016   6.691  17.031  0.00  0.00    +0.000 A 
ATOM     13  C   UNL     1       5.911   6.414  15.993  0.00  0.00    +0.000 A 
BRANCH   8  14
ATOM     14  C   UNL     1       6.914   4.761  14.362  0.00  0.00    +0.000 C 
ATOM     15  O   UNL     1       7.839   5.472  14.006  0.00  0.00    +0.000 OA
BRANCH  14  16
ATOM     16  O   UNL     1       6.518   3.603  13.786  0.00  0.00    +0.000 OA
BRANCH  16  18
ATOM     17  C   UNL     1       5.091   3.191  11.929  0.00  0.00    +0.000 C 
ATOM     18  C   UNL     1       6.477   3.639  12.357  0.00  0.00    +0.000 C 
ENDBRANCH  16  18
ENDBRANCH  14  16
ENDBRANCH   8  14
ENDBRANCH   1  11
BRANCH   5  19
ATOM     19  N   UNL     1       1.466   8.211  20.519  0.00  0.00    +0.000 NA
ATOM     20  H   UNL     1       2.276   8.719  20.140  0.00  0.00    +0.000 HD
BRANCH  19  21
ATOM     21  C   UNL     1       0.296   9.108  20.464  0.00  0.00    +0.000 C 
ATOM     22  C   UNL     1       0.226  10.087  19.296  0.00  0.00    +0.000 C 
ATOM     23  C   UNL     1       0.869  11.442  19.550  0.00  0.00    +0.000 C 
ATOM     24  N   UNL     1       0.679  12.029  20.867  0.00  0.00    +0.000 N 
ATOM     25  C   UNL     1       1.040  13.365  21.145  0.00  0.00    +0.000 C 
ATOM     26  O   UNL     1       0.868  13.887  22.245  0.00  0.00    +0.000 OA
ATOM     27  C   UNL     1       0.614  11.128  22.018  0.00  0.00    +0.000 C 
ATOM     28  C   UNL     1      -0.122   9.821  21.755  0.00  0.00    +0.000 C 
BRANCH  25  29
ATOM     29  C   UNL     1       1.680  14.202  20.083  0.00  0.00    +0.000 A 
ATOM     30  C   UNL     1       0.955  15.259  19.524  0.00  0.00    +0.000 A 
ATOM     31  C   UNL     1       1.517  16.021  18.494  0.00  0.00    +0.000 A 
ATOM     32  C   UNL     1       2.789  15.714  18.017  0.00  0.00    +0.000 A 
ATOM     33  F   UNL     1       3.304  16.414  17.001  0.00  0.00    +0.000 F 
ATOM     34  C   UNL     1       3.539  14.701  18.595  0.00  0.00    +0.000 A 
ATOM     35  C   UNL     1       3.002  13.984  19.664  0.00  0.00    +0.000 A 
ENDBRANCH  25  29
ENDBRANCH  19  21
ENDBRANCH   5  19
TORSDOF 7
ENDMDL
MODEL 4
REMARK VINA RESULT:      -8.0      3.117      4.003
REMARK  Name = 
REMARK  8 active torsions:
REMARK  status: ('A' for Active; 'I' for Inactive)
REMARK    1  A    between atoms: C_1  and  C_2
REMARK    2  A    between atoms: C_2  and  O_3
REMARK    3  A    between atoms: O_3  and  C_4
REMARK    4  A    between atoms: C_4  and  C_6
REMARK    5  A    between atoms: C_9  and  N_10
REMARK    6  A    between atoms: C_14  and  N_15
REMARK    7  A    between atoms: N_15  and  C_16
REMARK    8  A    between atoms: C_20  and  C_22
REMARK                            x       y       z     vdW  Elec       q    Type
REMARK                         _______ _______ _______ _____ _____    ______ ____
ROOT
ATOM      1  N   UNL     1       2.940   6.865  18.560  0.00  0.00    +0.000 N 
ATOM      2  C   UNL     1       2.582   6.293  19.754  0.00  0.00    +0.000 C 
ATOM      3  O   UNL     1       2.996   5.286  20.309  0.00  0.00    +0.000 OA
ATOM      4  C   UNL     1       1.572   7.141  20.420  0.00  0.00    +0.000 C 
ATOM      5  C   UNL     1       1.297   8.304  19.507  0.00  0.00    +0.000 C 
ATOM      6  C   UNL     1       2.267   8.051  18.348  0.00  0.00    +0.000 C 
ATOM      7  O   UNL     1       2.330   8.828  17.400  0.00  0.00    +0.000 OA
ENDROOT
BRANCH   1  11
ATOM      8  C   UNL     1       5.824   5.198  15.922  0.00  0.00    +0.000 A 
ATOM      9  C   UNL     1       5.981   6.494  16.405  0.00  0.00    +0.000 A 
ATOM     10  C   UNL     1       5.033   7.028  17.276  0.00  0.00    +0.000 A 
ATOM     11  C   UNL     1       3.906   6.291  17.687  0.00  0.00    +0.000 A 
ATOM     12  C   UNL     1       3.765   4.990  17.186  0.00  0.00    +0.000 A 
ATOM     13  C   UNL     1       4.712   4.447  16.313  0.00  0.00    +0.000 A 
BRANCH   8  14
ATOM     14  C   UNL     1       6.810   4.721  14.926  0.00  0.00    +0.000 C 
ATOM     15  O   UNL     1       7.814   5.340  14.617  0.00  0.00    +0.000 OA
BRANCH  14  16
ATOM     16  O   UNL     1       6.326   3.612  14.320  0.00  0.00    +0.000 OA
BRANCH  16  18
ATOM     17  C   UNL     1       5.029   3.610  12.326  0.00  0.00    +0.000 C 
ATOM     18  C   UNL     1       6.438   3.624  12.894  0.00  0.00    +0.000 C 
ENDBRANCH  16  18
ENDBRANCH  14  16
ENDBRANCH   8  14
ENDBRANCH   1  11
BRANCH   5  19
ATOM     19  N   UNL     1       1.551   9.631  20.080  0.00  0.00    +0.000 NA
ATOM     20  H   UNL     1       2.563   9.694  20.246  0.00  0.00    +0.000 HD
BRANCH  19  21
ATOM     21  C   UNL     1       1.118  10.872  19.408  0.00  0.00    +0.000 C 
ATOM     22  C   UNL     1       1.028  12.130  20.266  0.00  0.00    +0.000 C 
ATOM     23  C   UNL     1      -0.326  12.372  20.917  0.00  0.00    +0.000 C 
ATOM     24  N   UNL     1      -1.506  12.075  20.120  0.00  0.00    +0.000 N 
ATOM     25  C   UNL     1      -2.799  12.461  20.534  0.00  0.00    +0.000 C 
ATOM     26  O   UNL     1      -3.806  12.239  19.865  0.00  0.00    +0.000 OA
ATOM     27  C   UNL     1      -1.438  10.952  19.185  0.00  0.00    +0.000 C 
ATOM     28  C   UNL     1      -0.097  10.797  18.480  0.00  0.00    +0.000 C 
BRANCH  25  29
ATOM     29  C   UNL     1      -2.986  13.155  21.846  0.00  0.00    +0.000 A 
ATOM     30  C   UNL     1      -2.780  14.536  21.919  0.00  0.00    +0.000 A 
ATOM     31  C   UNL     1      -2.901  15.194  23.148  0.00  0.00    +0.000 A 
ATOM     32  C   UNL     1      -3.210  14.470  24.296  0.00  0.00    +0.000 A 
ATOM     33  F   UNL     1      -3.278  15.095  25.477  0.00  0.00    +0.000 F 
ATOM     34  C   UNL     1      -3.466  13.109  24.231  0.00  0.00    +0.000 A 
ATOM     35  C   UNL     1      -3.407  12.466  22.994  0.00  0.00    +0.000 A 
ENDBRANCH  25  29
ENDBRANCH  19  21
ENDBRANCH   5  19
TORSDOF 7
ENDMDL
MODEL 5
REMARK VINA RESULT:      -7.8      3.336      4.195
REMARK  Name = 
REMARK  8 active torsions:
REMARK  status: ('A' for Active; 'I' for Inactive)
REMARK    1  A    between atoms: C_1  and  C_2
REMARK    2  A    between atoms: C_2  and  O_3
REMARK    3  A    between atoms: O_3  and  C_4
REMARK    4  A    between atoms: C_4  and  C_6
REMARK    5  A    between atoms: C_9  and  N_10
REMARK    6  A    between atoms: C_14  and  N_15
REMARK    7  A    between atoms: N_15  and  C_16
REMARK    8  A    between atoms: C_20  and  C_22
REMARK                            x       y       z     vdW  Elec       q    Type
REMARK                         _______ _______ _______ _____ _____    ______ ____
ROOT
ATOM      1  N   UNL     1       2.618   7.303  18.721  0.00  0.00    +0.000 N 
ATOM      2  C   UNL     1       2.165   6.875  19.943  0.00  0.00    +0.000 C 
ATOM      3  O   UNL     1       2.493   5.911  20.619  0.00  0.00    +0.000 OA
ATOM      4  C   UNL     1       1.169   7.836  20.460  0.00  0.00    +0.000 C 
ATOM      5  C   UNL     1       1.007   8.911  19.421  0.00  0.00    +0.000 C 
ATOM      6  C   UNL     1       2.023   8.493  18.353  0.00  0.00    +0.000 C 
ATOM      7  O   UNL     1       2.180   9.164  17.337  0.00  0.00    +0.000 OA
ENDROOT
BRANCH   1  11
ATOM      8  C   UNL     1       5.540   5.151  16.511  0.00  0.00    +0.000 A 
ATOM      9  C   UNL     1       4.423   4.496  17.022  0.00  0.00    +0.000 A 
ATOM     10  C   UNL     1       3.467   5.213  17.738  0.00  0.00    +0.000 A 
ATOM     11  C   UNL     1       3.596   6.596  17.968  0.00  0.00    +0.000 A 
ATOM     12  C   UNL     1       4.730   7.236  17.450  0.00  0.00    +0.000 A 
ATOM     13  C   UNL     1       5.693   6.524  16.728  0.00  0.00    +0.000 A 
BRANCH   8  14
ATOM     14  C   UNL     1       6.568   4.321  15.844  0.00  0.00    +0.000 C 
ATOM     15  O   UNL     1       7.768   4.465  16.010  0.00  0.00    +0.000 OA
BRANCH  14  16
ATOM     16  O   UNL     1       5.969   3.530  14.924  0.00  0.00    +0.000 OA
BRANCH  16  18
ATOM     17  C   UNL     1       6.363   3.555  12.579  0.00  0.00    +0.000 C 
ATOM     18  C   UNL     1       5.597   4.204  13.719  0.00  0.00    +0.000 C 
ENDBRANCH  16  18
ENDBRANCH  14  16
ENDBRANCH   8  14
ENDBRANCH   1  11
BRANCH   5  19
ATOM     19  N   UNL     1       1.303  10.276  19.873  0.00  0.00    +0.000 NA
ATOM     20  H   UNL     1       2.326  10.372  19.878  0.00  0.00    +0.000 HD
BRANCH  19  21
ATOM     21  C   UNL     1       0.734  11.463  19.207  0.00  0.00    +0.000 C 
ATOM     22  C   UNL     1       0.601  12.732  20.045  0.00  0.00    +0.000 C 
ATOM     23  C   UNL     1      -0.724  12.885  20.776  0.00  0.00    +0.000 C 
ATOM     24  N   UNL     1      -1.925  12.480  20.063  0.00  0.00    +0.000 N 
ATOM     25  C   UNL     1      -3.216  12.776  20.551  0.00  0.00    +0.000 C 
ATOM     26  O   UNL     1      -4.243  12.462  19.953  0.00  0.00    +0.000 OA
ATOM     27  C   UNL     1      -1.830  11.343  19.147  0.00  0.00    +0.000 C 
ATOM     28  C   UNL     1      -0.528  11.274  18.360  0.00  0.00    +0.000 C 
BRANCH  25  29
ATOM     29  C   UNL     1      -3.374  13.485  21.860  0.00  0.00    +0.000 A 
ATOM     30  C   UNL     1      -3.445  14.881  21.870  0.00  0.00    +0.000 A 
ATOM     31  C   UNL     1      -3.541  15.564  23.088  0.00  0.00    +0.000 A 
ATOM     32  C   UNL     1      -3.551  14.852  24.285  0.00  0.00    +0.000 A 
ATOM     33  F   UNL     1      -3.596  15.510  25.448  0.00  0.00    +0.000 F 
ATOM     34  C   UNL     1      -3.532  13.467  24.287  0.00  0.00    +0.000 A 
ATOM     35  C   UNL     1      -3.500  12.786  23.070  0.00  0.00    +0.000 A 
ENDBRANCH  25  29
ENDBRANCH  19  21
ENDBRANCH   5  19
TORSDOF 7
ENDMDL
MODEL 6
REMARK VINA RESULT:      -7.8      1.846      2.564
REMARK  Name = 
REMARK  8 active torsions:
REMARK  status: ('A' for Active; 'I' for Inactive)
REMARK    1  A    between atoms: C_1  and  C_2
REMARK    2  A    between atoms: C_2  and  O_3
REMARK    3  A    between atoms: O_3  and  C_4
REMARK    4  A    between atoms: C_4  and  C_6
REMARK    5  A    between atoms: C_9  and  N_10
REMARK    6  A    between atoms: C_14  and  N_15
REMARK    7  A    between atoms: N_15  and  C_16
REMARK    8  A    between atoms: C_20  and  C_22
REMARK                            x       y       z     vdW  Elec       q    Type
REMARK                         _______ _______ _______ _____ _____    ______ ____
ROOT
ATOM      1  N   UNL     1       3.579   4.067  18.255  0.00  0.00    +0.000 N 
ATOM      2  C   UNL     1       4.069   3.599  19.448  0.00  0.00    +0.000 C 
ATOM      3  O   UNL     1       5.207   3.302  19.779  0.00  0.00    +0.000 OA
ATOM      4  C   UNL     1       2.973   3.539  20.437  0.00  0.00    +0.000 C 
ATOM      5  C   UNL     1       1.719   3.989  19.739  0.00  0.00    +0.000 C 
ATOM      6  C   UNL     1       2.231   4.348  18.340  0.00  0.00    +0.000 C 
ATOM      7  O   UNL     1       1.466   4.777  17.481  0.00  0.00    +0.000 OA
ENDROOT
BRANCH   1  11
ATOM      8  C   UNL     1       6.049   4.573  14.835  0.00  0.00    +0.000 A 
ATOM      9  C   UNL     1       5.703   3.296  15.268  0.00  0.00    +0.000 A 
ATOM     10  C   UNL     1       4.886   3.142  16.387  0.00  0.00    +0.000 A 
ATOM     11  C   UNL     1       4.395   4.249  17.103  0.00  0.00    +0.000 A 
ATOM     12  C   UNL     1       4.757   5.526  16.653  0.00  0.00    +0.000 A 
ATOM     13  C   UNL     1       5.575   5.689  15.531  0.00  0.00    +0.000 A 
BRANCH   8  14
ATOM     14  C   UNL     1       6.996   4.672  13.702  0.00  0.00    +0.000 C 
ATOM     15  O   UNL     1       7.643   5.674  13.445  0.00  0.00    +0.000 OA
BRANCH  14  16
ATOM     16  O   UNL     1       6.887   3.563  12.935  0.00  0.00    +0.000 OA
BRANCH  16  18
ATOM     17  C   UNL     1       5.574   2.166  11.527  0.00  0.00    +0.000 C 
ATOM     18  C   UNL     1       5.790   3.588  12.017  0.00  0.00    +0.000 C 
ENDBRANCH  16  18
ENDBRANCH  14  16
ENDBRANCH   8  14
ENDBRANCH   1  11
BRANCH   5  19
ATOM     19  N   UNL     1       1.049   5.152  20.331  0.00  0.00    +0.000 NA
ATOM     20  H   UNL     1       0.485   4.804  21.117  0.00  0.00    +0.000 HD
BRANCH  19  21
ATOM     21  C   UNL     1       1.796   6.338  20.793  0.00  0.00    +0.000 C 
ATOM     22  C   UNL     1       1.005   7.412  21.534  0.00  0.00    +0.000 C 
ATOM     23  C   UNL     1       0.418   8.504  20.652  0.00  0.00    +0.000 C 
ATOM     24  N   UNL     1       1.243   8.984  19.555  0.00  0.00    +0.000 N 
ATOM     25  C   UNL     1       0.898  10.133  18.812  0.00  0.00    +0.000 C 
ATOM     26  O   UNL     1       1.592  10.567  17.895  0.00  0.00    +0.000 OA
ATOM     27  C   UNL     1       2.119   8.023  18.882  0.00  0.00    +0.000 C 
ATOM     28  C   UNL     1       2.765   7.002  19.810  0.00  0.00    +0.000 C 
BRANCH  25  29
ATOM     29  C   UNL     1      -0.371  10.865  19.116  0.00  0.00    +0.000 A 
ATOM     30  C   UNL     1      -1.507  10.602  18.345  0.00  0.00    +0.000 A 
ATOM     31  C   UNL     1      -2.689  11.313  18.581  0.00  0.00    +0.000 A 
ATOM     32  C   UNL     1      -2.725  12.291  19.571  0.00  0.00    +0.000 A 
ATOM     33  F   UNL     1      -3.842  13.002  19.763  0.00  0.00    +0.000 F 
ATOM     34  C   UNL     1      -1.622  12.528  20.377  0.00  0.00    +0.000 A 
ATOM     35  C   UNL     1      -0.465  11.774  20.182  0.00  0.00    +0.000 A 
ENDBRANCH  25  29
ENDBRANCH  19  21
ENDBRANCH   5  19
TORSDOF 7
ENDMDL
MODEL 7
REMARK VINA RESULT:      -7.6      2.974      3.857
REMARK  Name = 
REMARK  8 active torsions:
REMARK  status: ('A' for Active; 'I' for Inactive)
REMARK    1  A    between atoms: C_1  and  C_2
REMARK    2  A    between atoms: C_2  and  O_3
REMARK    3  A    between atoms: O_3  and  C_4
REMARK    4  A    between atoms: C_4  and  C_6
REMARK    5  A    between atoms: C_9  and  N_10
REMARK    6  A    between atoms: C_14  and  N_15
REMARK    7  A    between atoms: N_15  and  C_16
REMARK    8  A    between atoms: C_20  and  C_22
REMARK                            x       y       z     vdW  Elec       q    Type
REMARK                         _______ _______ _______ _____ _____    ______ ____
ROOT
ATOM      1  N   UNL     1       3.113   6.077  18.511  0.00  0.00    +0.000 N 
ATOM      2  C   UNL     1       3.009   5.456  19.729  0.00  0.00    +0.000 C 
ATOM      3  O   UNL     1       3.661   4.544  20.216  0.00  0.00    +0.000 OA
ATOM      4  C   UNL     1       1.948   6.111  20.523  0.00  0.00    +0.000 C 
ATOM      5  C   UNL     1       1.360   7.198  19.667  0.00  0.00    +0.000 C 
ATOM      6  C   UNL     1       2.216   7.119  18.399  0.00  0.00    +0.000 C 
ATOM      7  O   UNL     1       2.025   7.889  17.462  0.00  0.00    +0.000 OA
ENDROOT
BRANCH   1  11
ATOM      8  C   UNL     1       5.916   4.945  15.525  0.00  0.00    +0.000 A 
ATOM      9  C   UNL     1       5.853   6.264  15.965  0.00  0.00    +0.000 A 
ATOM     10  C   UNL     1       4.935   6.623  16.950  0.00  0.00    +0.000 A 
ATOM     11  C   UNL     1       4.057   5.683  17.521  0.00  0.00    +0.000 A 
ATOM     12  C   UNL     1       4.133   4.362  17.062  0.00  0.00    +0.000 A 
ATOM     13  C   UNL     1       5.052   3.994  16.075  0.00  0.00    +0.000 A 
BRANCH   8  14
ATOM     14  C   UNL     1       6.842   4.645  14.410  0.00  0.00    +0.000 C 
ATOM     15  O   UNL     1       7.709   5.411  14.024  0.00  0.00    +0.000 OA
BRANCH  14  16
ATOM     16  O   UNL     1       6.454   3.496  13.810  0.00  0.00    +0.000 OA
BRANCH  16  18
ATOM     17  C   UNL     1       6.214   2.398  11.714  0.00  0.00    +0.000 C 
ATOM     18  C   UNL     1       5.925   3.669  12.493  0.00  0.00    +0.000 C 
ENDBRANCH  16  18
ENDBRANCH  14  16
ENDBRANCH   8  14
ENDBRANCH   1  11
BRANCH   5  19
ATOM     19  N   UNL     1       1.436   8.553  20.227  0.00  0.00    +0.000 NA
ATOM     20  H   UNL     1       2.208   9.031  19.745  0.00  0.00    +0.000 HD
BRANCH  19  21
ATOM     21  C   UNL     1       0.273   9.462  20.243  0.00  0.00    +0.000 C 
ATOM     22  C   UNL     1       0.172  10.480  19.112  0.00  0.00    +0.000 C 
ATOM     23  C   UNL     1       0.837  11.820  19.389  0.00  0.00    +0.000 C 
ATOM     24  N   UNL     1       0.698  12.364  20.731  0.00  0.00    +0.000 N 
ATOM     25  C   UNL     1       1.081  13.686  21.042  0.00  0.00    +0.000 C 
ATOM     26  O   UNL     1       0.952  14.171  22.164  0.00  0.00    +0.000 OA
ATOM     27  C   UNL     1       0.664  11.424  21.853  0.00  0.00    +0.000 C 
ATOM     28  C   UNL     1      -0.093  10.133  21.571  0.00  0.00    +0.000 C 
BRANCH  25  29
ATOM     29  C   UNL     1       1.692  14.553  19.986  0.00  0.00    +0.000 A 
ATOM     30  C   UNL     1       3.047  14.395  19.680  0.00  0.00    +0.000 A 
ATOM     31  C   UNL     1       3.649  15.231  18.733  0.00  0.00    +0.000 A 
ATOM     32  C   UNL     1       2.901  16.227  18.111  0.00  0.00    +0.000 A 
ATOM     33  F   UNL     1       3.491  17.055  17.240  0.00  0.00    +0.000 F 
ATOM     34  C   UNL     1       1.546  16.363  18.367  0.00  0.00    +0.000 A 
ATOM     35  C   UNL     1       0.934  15.488  19.265  0.00  0.00    +0.000 A 
ENDBRANCH  25  29
ENDBRANCH  19  21
ENDBRANCH   5  19
TORSDOF 7
ENDMDL
MODEL 8
REMARK VINA RESULT:      -7.6      1.886      2.716
REMARK  Name = 
REMARK  8 active torsions:
REMARK  status: ('A' for Active; 'I' for Inactive)
REMARK    1  A    between atoms: C_1  and  C_2
REMARK    2  A    between atoms: C_2  and  O_3
REMARK    3  A    between atoms: O_3  and  C_4
REMARK    4  A    between atoms: C_4  and  C_6
REMARK    5  A    between atoms: C_9  and  N_10
REMARK    6  A    between atoms: C_14  and  N_15
REMARK    7  A    between atoms: N_15  and  C_16
REMARK    8  A    between atoms: C_20  and  C_22
REMARK                            x       y       z     vdW  Elec       q    Type
REMARK                         _______ _______ _______ _____ _____    ______ ____
ROOT
ATOM      1  N   UNL     1       3.408   4.017  18.428  0.00  0.00    +0.000 N 
ATOM      2  C   UNL     1       3.800   3.533  19.650  0.00  0.00    +0.000 C 
ATOM      3  O   UNL     1       4.895   3.160  20.044  0.00  0.00    +0.000 OA
ATOM      4  C   UNL     1       2.652   3.567  20.580  0.00  0.00    +0.000 C 
ATOM      5  C   UNL     1       1.472   4.095  19.811  0.00  0.00    +0.000 C 
ATOM      6  C   UNL     1       2.081   4.396  18.437  0.00  0.00    +0.000 C 
ATOM      7  O   UNL     1       1.395   4.865  17.534  0.00  0.00    +0.000 OA
ENDROOT
BRANCH   1  11
ATOM      8  C   UNL     1       6.020   4.374  15.095  0.00  0.00    +0.000 A 
ATOM      9  C   UNL     1       5.561   5.512  15.753  0.00  0.00    +0.000 A 
ATOM     10  C   UNL     1       4.711   5.383  16.849  0.00  0.00    +0.000 A 
ATOM     11  C   UNL     1       4.294   4.123  17.319  0.00  0.00    +0.000 A 
ATOM     12  C   UNL     1       4.764   2.991  16.642  0.00  0.00    +0.000 A 
ATOM     13  C   UNL     1       5.618   3.111  15.542  0.00  0.00    +0.000 A 
BRANCH   8  14
ATOM     14  C   UNL     1       6.841   4.576  13.880  0.00  0.00    +0.000 C 
ATOM     15  O   UNL     1       7.375   5.634  13.592  0.00  0.00    +0.000 OA
BRANCH  14  16
ATOM     16  O   UNL     1       6.748   3.478  13.095  0.00  0.00    +0.000 OA
BRANCH  16  18
ATOM     17  C   UNL     1       4.770   3.247  11.794  0.00  0.00    +0.000 C 
ATOM     18  C   UNL     1       6.211   3.728  11.794  0.00  0.00    +0.000 C 
ENDBRANCH  16  18
ENDBRANCH  14  16
ENDBRANCH   8  14
ENDBRANCH   1  11
BRANCH   5  19
ATOM     19  N   UNL     1       0.858   5.312  20.353  0.00  0.00    +0.000 NA
ATOM     20  H   UNL     1       0.252   5.019  21.130  0.00  0.00    +0.000 HD
BRANCH  19  21
ATOM     21  C   UNL     1       1.663   6.462  20.808  0.00  0.00    +0.000 C 
ATOM     22  C   UNL     1       0.925   7.580  21.540  0.00  0.00    +0.000 C 
ATOM     23  C   UNL     1       0.395   8.693  20.649  0.00  0.00    +0.000 C 
ATOM     24  N   UNL     1       1.245   9.123  19.549  0.00  0.00    +0.000 N 
ATOM     25  C   UNL     1       0.959  10.283  18.797  0.00  0.00    +0.000 C 
ATOM     26  O   UNL     1       1.675  10.675  17.878  0.00  0.00    +0.000 OA
ATOM     27  C   UNL     1       2.072   8.115  18.886  0.00  0.00    +0.000 C 
ATOM     28  C   UNL     1       2.665   7.070  19.822  0.00  0.00    +0.000 C 
BRANCH  25  29
ATOM     29  C   UNL     1      -0.273  11.080  19.094  0.00  0.00    +0.000 A 
ATOM     30  C   UNL     1      -0.216  12.073  20.077  0.00  0.00    +0.000 A 
ATOM     31  C   UNL     1      -1.370  12.794  20.404  0.00  0.00    +0.000 A 
ATOM     32  C   UNL     1      -2.573  12.509  19.763  0.00  0.00    +0.000 A 
ATOM     33  F   UNL     1      -3.684  13.168  20.111  0.00  0.00    +0.000 F 
ATOM     34  C   UNL     1      -2.632  11.563  18.752  0.00  0.00    +0.000 A 
ATOM     35  C   UNL     1      -1.467  10.889  18.383  0.00  0.00    +0.000 A 
ENDBRANCH  25  29
ENDBRANCH  19  21
ENDBRANCH   5  19
TORSDOF 7
ENDMDL
MODEL 9
REMARK VINA RESULT:      -7.6      0.739      1.390
REMARK  Name = 
REMARK  8 active torsions:
REMARK  status: ('A' for Active; 'I' for Inactive)
REMARK    1  A    between atoms: C_1  and  C_2
REMARK    2  A    between atoms: C_2  and  O_3
REMARK    3  A    between atoms: O_3  and  C_4
REMARK    4  A    between atoms: C_4  and  C_6
REMARK    5  A    between atoms: C_9  and  N_10
REMARK    6  A    between atoms: C_14  and  N_15
REMARK    7  A    between atoms: N_15  and  C_16
REMARK    8  A    between atoms: C_20  and  C_22
REMARK                            x       y       z     vdW  Elec       q    Type
REMARK                         _______ _______ _______ _____ _____    ______ ____
ROOT
ATOM      1  N   UNL     1       3.118   5.563  18.860  0.00  0.00    +0.000 N 
ATOM      2  C   UNL     1       2.922   4.694  19.903  0.00  0.00    +0.000 C 
ATOM      3  O   UNL     1       3.395   3.588  20.116  0.00  0.00    +0.000 OA
ATOM      4  C   UNL     1       2.027   5.320  20.899  0.00  0.00    +0.000 C 
ATOM      5  C   UNL     1       1.644   6.672  20.365  0.00  0.00    +0.000 C 
ATOM      6  C   UNL     1       2.439   6.749  19.058  0.00  0.00    +0.000 C 
ATOM      7  O   UNL     1       2.381   7.745  18.343  0.00  0.00    +0.000 OA
ENDROOT
BRANCH   1  11
ATOM      8  C   UNL     1       5.561   4.685  15.496  0.00  0.00    +0.000 A 
ATOM      9  C   UNL     1       5.366   6.004  15.898  0.00  0.00    +0.000 A 
ATOM     10  C   UNL     1       4.570   6.280  17.007  0.00  0.00    +0.000 A 
ATOM     11  C   UNL     1       3.945   5.256  17.744  0.00  0.00    +0.000 A 
ATOM     12  C   UNL     1       4.150   3.936  17.321  0.00  0.00    +0.000 A 
ATOM     13  C   UNL     1       4.948   3.650  16.210  0.00  0.00    +0.000 A 
BRANCH   8  14
ATOM     14  C   UNL     1       6.336   4.460  14.256  0.00  0.00    +0.000 C 
ATOM     15  O   UNL     1       6.267   3.441  13.589  0.00  0.00    +0.000 OA
BRANCH  14  16
ATOM     16  O   UNL     1       7.225   5.469  14.100  0.00  0.00    +0.000 OA
BRANCH  16  18
ATOM     17  C   UNL     1       9.294   5.960  13.035  0.00  0.00    +0.000 C 
ATOM     18  C   UNL     1       7.862   5.499  12.820  0.00  0.00    +0.000 C 
ENDBRANCH  16  18
ENDBRANCH  14  16
ENDBRANCH   8  14
ENDBRANCH   1  11
BRANCH   5  19
ATOM     19  N   UNL     1       1.994   7.812  21.221  0.00  0.00    +0.000 NA
ATOM     20  H   UNL     1       2.617   8.417  20.670  0.00  0.00    +0.000 HD
BRANCH  19  21
ATOM     21  C   UNL     1       0.969   8.664  21.853  0.00  0.00    +0.000 C 
ATOM     22  C   UNL     1      -0.470   8.486  21.377  0.00  0.00    +0.000 C 
ATOM     23  C   UNL     1      -0.881   9.381  20.217  0.00  0.00    +0.000 C 
ATOM     24  N   UNL     1      -0.394  10.751  20.232  0.00  0.00    +0.000 N 
ATOM     25  C   UNL     1      -0.882  11.724  19.334  0.00  0.00    +0.000 C 
ATOM     26  O   UNL     1      -0.500  12.892  19.344  0.00  0.00    +0.000 OA
ATOM     27  C   UNL     1       0.935  11.002  20.792  0.00  0.00    +0.000 C 
ATOM     28  C   UNL     1       1.275  10.156  22.012  0.00  0.00    +0.000 C 
BRANCH  25  29
ATOM     29  C   UNL     1      -1.894  11.343  18.299  0.00  0.00    +0.000 A 
ATOM     30  C   UNL     1      -1.502  10.521  17.238  0.00  0.00    +0.000 A 
ATOM     31  C   UNL     1      -2.421  10.196  16.234  0.00  0.00    +0.000 A 
ATOM     32  C   UNL     1      -3.716  10.705  16.286  0.00  0.00    +0.000 A 
ATOM     33  F   UNL     1      -4.578  10.431  15.300  0.00  0.00    +0.000 F 
ATOM     34  C   UNL     1      -4.133  11.480  17.357  0.00  0.00    +0.000 A 
ATOM     35  C   UNL     1      -3.234  11.751  18.389  0.00  0.00    +0.000 A 
ENDBRANCH  25  29
ENDBRANCH  19  21
ENDBRANCH   5  19
TORSDOF 7
ENDMDL
