MODEL 1
REMARK VINA RESULT:     -10.4      0.000      0.000
REMARK  Name = 
REMARK  5 active torsions:
REMARK  status: ('A' for Active; 'I' for Inactive)
REMARK    1  A    between atoms: C_1  and  C_2
REMARK    2  A    between atoms: C_10  and  N_11
REMARK    3  A    between atoms: C_12  and  C_14
REMARK    4  A    between atoms: C_15  and  C_16
REMARK    5  A    between atoms: C_25  and  C_26
REMARK                            x       y       z     vdW  Elec       q    Type
REMARK                         _______ _______ _______ _____ _____    ______ ____
ROOT
ATOM      1  N   UNL     1       2.709   6.505  19.757  0.00  0.00    +0.000 N 
ATOM      2  C   UNL     1       2.494   5.308  19.084  0.00  0.00    +0.000 C 
ATOM      3  O   UNL     1       1.774   5.171  18.102  0.00  0.00    +0.000 OA
ATOM      4  H   UNL     1       3.442   6.517  20.454  0.00  0.00    +0.000 HD
ENDROOT
BRANCH   1  14
ATOM      5  C   UNL     1       0.122   9.340  23.215  0.00  0.00    +0.000 C 
ATOM      6  C   UNL     1      -0.326  10.476  22.347  0.00  0.00    +0.000 C 
ATOM      7  O   UNL     1      -1.005  11.381  22.851  0.00  0.00    +0.000 OA
ATOM      8  N   UNL     1       0.038  10.512  21.019  0.00  0.00    +0.000 N 
ATOM      9  C   UNL     1      -0.306  11.712  20.237  0.00  0.00    +0.000 C 
ATOM     10  C   UNL     1       0.126  11.468  18.796  0.00  0.00    +0.000 C 
ATOM     11  C   UNL     1       0.895  10.196  18.924  0.00  0.00    +0.000 A 
ATOM     12  C   UNL     1       1.603   9.576  17.913  0.00  0.00    +0.000 A 
ATOM     13  C   UNL     1       2.210   8.352  18.183  0.00  0.00    +0.000 A 
ATOM     14  C   UNL     1       2.106   7.752  19.452  0.00  0.00    +0.000 A 
ATOM     15  C   UNL     1       1.376   8.406  20.466  0.00  0.00    +0.000 A 
ATOM     16  C   UNL     1       0.786   9.639  20.202  0.00  0.00    +0.000 A 
ENDBRANCH   1  14
BRANCH   2  17
ATOM     17  C   UNL     1       3.273   4.182  19.564  0.00  0.00    +0.000 A 
ATOM     18  C   UNL     1       4.479   3.642  18.992  0.00  0.00    +0.000 A 
ATOM     19  N   UNL     1       4.879   2.576  19.703  0.00  0.00    +0.000 NA
ATOM     20  O   UNL     1       3.946   2.383  20.692  0.00  0.00    +0.000 OA
ATOM     21  C   UNL     1       2.993   3.345  20.625  0.00  0.00    +0.000 A 
ATOM     22  C   UNL     1       1.919   3.245  21.632  0.00  0.00    +0.000 C 
BRANCH  18  23
ATOM     23  C   UNL     1       5.290   4.162  17.879  0.00  0.00    +0.000 A 
ATOM     24  C   UNL     1       4.931   3.814  16.561  0.00  0.00    +0.000 A 
ATOM     25  C   UNL     1       5.651   4.279  15.456  0.00  0.00    +0.000 A 
ATOM     26  C   UNL     1       6.729   5.133  15.643  0.00  0.00    +0.000 A 
ATOM     27  C   UNL     1       7.096   5.506  16.933  0.00  0.00    +0.000 A 
ATOM     28  C   UNL     1       6.394   5.019  18.049  0.00  0.00    +0.000 A 
ATOM     29 CL   UNL     1       7.003   5.502  19.597  0.00  0.00    +0.000 Cl
ENDBRANCH  18  23
ENDBRANCH   2  17
TORSDOF 3
ENDMDL
MODEL 2
REMARK VINA RESULT:     -10.4      1.056      1.458
REMARK  Name = 
REMARK  5 active torsions:
REMARK  status: ('A' for Active; 'I' for Inactive)
REMARK    1  A    between atoms: C_1  and  C_2
REMARK    2  A    between atoms: C_10  and  N_11
REMARK    3  A    between atoms: C_12  and  C_14
REMARK    4  A    between atoms: C_15  and  C_16
REMARK    5  A    between atoms: C_25  and  C_26
REMARK                            x       y       z     vdW  Elec       q    Type
REMARK                         _______ _______ _______ _____ _____    ______ ____
ROOT
ATOM      1  N   UNL     1       2.749   6.463  19.836  0.00  0.00    +0.000 N 
ATOM      2  C   UNL     1       2.408   5.208  19.347  0.00  0.00    +0.000 C 
ATOM      3  O   UNL     1       1.527   4.986  18.526  0.00  0.00    +0.000 OA
ATOM      4  H   UNL     1       3.593   6.530  20.390  0.00  0.00    +0.000 HD
ENDROOT
BRANCH   1  14
ATOM      5  C   UNL     1       0.166   9.351  23.253  0.00  0.00    +0.000 C 
ATOM      6  C   UNL     1      -0.324  10.449  22.359  0.00  0.00    +0.000 C 
ATOM      7  O   UNL     1      -1.013  11.355  22.847  0.00  0.00    +0.000 OA
ATOM      8  N   UNL     1       0.014  10.450  21.023  0.00  0.00    +0.000 N 
ATOM      9  C   UNL     1      -0.372  11.617  20.211  0.00  0.00    +0.000 C 
ATOM     10  C   UNL     1       0.038  11.336  18.770  0.00  0.00    +0.000 C 
ATOM     11  C   UNL     1       0.837  10.086  18.922  0.00  0.00    +0.000 A 
ATOM     12  C   UNL     1       1.539   9.449  17.918  0.00  0.00    +0.000 A 
ATOM     13  C   UNL     1       2.178   8.248  18.215  0.00  0.00    +0.000 A 
ATOM     14  C   UNL     1       2.113   7.687  19.503  0.00  0.00    +0.000 A 
ATOM     15  C   UNL     1       1.387   8.357  20.511  0.00  0.00    +0.000 A 
ATOM     16  C   UNL     1       0.765   9.568  20.219  0.00  0.00    +0.000 A 
ENDBRANCH   1  14
BRANCH   2  17
ATOM     17  C   UNL     1       3.250   4.119  19.807  0.00  0.00    +0.000 A 
ATOM     18  C   UNL     1       4.621   3.859  19.451  0.00  0.00    +0.000 A 
ATOM     19  N   UNL     1       5.039   2.735  20.054  0.00  0.00    +0.000 NA
ATOM     20  O   UNL     1       3.969   2.235  20.754  0.00  0.00    +0.000 OA
ATOM     21  C   UNL     1       2.903   3.062  20.623  0.00  0.00    +0.000 A 
ATOM     22  C   UNL     1       1.677   2.631  21.324  0.00  0.00    +0.000 C 
BRANCH  18  23
ATOM     23  C   UNL     1       5.544   4.686  18.656  0.00  0.00    +0.000 A 
ATOM     24  C   UNL     1       6.565   5.392  19.325  0.00  0.00    +0.000 A 
ATOM     25  C   UNL     1       7.481   6.188  18.632  0.00  0.00    +0.000 A 
ATOM     26  C   UNL     1       7.420   6.270  17.248  0.00  0.00    +0.000 A 
ATOM     27  C   UNL     1       6.431   5.570  16.560  0.00  0.00    +0.000 A 
ATOM     28  C   UNL     1       5.489   4.791  17.253  0.00  0.00    +0.000 A 
ATOM     29 CL   UNL     1       4.270   4.036  16.282  0.00  0.00    +0.000 Cl
ENDBRANCH  18  23
ENDBRANCH   2  17
TORSDOF 3
ENDMDL
MODEL 3
REMARK VINA RESULT:      -9.4      1.891      3.602
REMARK  Name = 
REMARK  5 active torsions:
REMARK  status: ('A' for Active; 'I' for Inactive)
REMARK    1  A    between atoms: C_1  and  C_2
REMARK    2  A    between atoms: C_10  and  N_11
REMARK    3  A    between atoms: C_12  and  C_14
REMARK    4  A    between atoms: C_15  and  C_16
REMARK    5  A    between atoms: C_25  and  C_26
REMARK                            x       y       z     vdW  Elec       q    Type
REMARK                         _______ _______ _______ _____ _____    ______ ____
ROOT
ATOM      1  N   UNL     1       2.954   7.081  19.172  0.00  0.00    +0.000 N 
ATOM      2  C   UNL     1       3.868   6.716  18.192  0.00  0.00    +0.000 C 
ATOM      3  O   UNL     1       4.002   7.273  17.109  0.00  0.00    +0.000 OA
ATOM      4  H   UNL     1       3.048   6.643  20.079  0.00  0.00    +0.000 HD
ENDROOT
BRANCH   1  14
ATOM      5  C   UNL     1       0.679   9.262  23.266  0.00  0.00    +0.000 C 
ATOM      6  C   UNL     1      -0.243  10.223  22.579  0.00  0.00    +0.000 C 
ATOM      7  O   UNL     1      -0.982  10.939  23.269  0.00  0.00    +0.000 OA
ATOM      8  N   UNL     1      -0.243  10.312  21.204  0.00  0.00    +0.000 N 
ATOM      9  C   UNL     1      -1.063  11.363  20.577  0.00  0.00    +0.000 C 
ATOM     10  C   UNL     1      -0.957  11.196  19.066  0.00  0.00    +0.000 C 
ATOM     11  C   UNL     1       0.116  10.165  18.952  0.00  0.00    +0.000 A 
ATOM     12  C   UNL     1       0.683   9.717  17.775  0.00  0.00    +0.000 A 
ATOM     13  C   UNL     1       1.627   8.696  17.841  0.00  0.00    +0.000 A 
ATOM     14  C   UNL     1       1.998   8.126  19.072  0.00  0.00    +0.000 A 
ATOM     15  C   UNL     1       1.403   8.601  20.260  0.00  0.00    +0.000 A 
ATOM     16  C   UNL     1       0.473   9.635  20.196  0.00  0.00    +0.000 A 
ENDBRANCH   1  14
BRANCH   2  17
ATOM     17  C   UNL     1       4.773   5.644  18.563  0.00  0.00    +0.000 A 
ATOM     18  C   UNL     1       4.440   4.395  19.197  0.00  0.00    +0.000 A 
ATOM     19  N   UNL     1       5.558   3.683  19.411  0.00  0.00    +0.000 NA
ATOM     20  O   UNL     1       6.609   4.450  18.973  0.00  0.00    +0.000 OA
ATOM     21  C   UNL     1       6.148   5.614  18.453  0.00  0.00    +0.000 A 
ATOM     22  C   UNL     1       7.184   6.540  17.953  0.00  0.00    +0.000 C 
BRANCH  18  23
ATOM     23  C   UNL     1       3.113   3.837  19.505  0.00  0.00    +0.000 A 
ATOM     24  C   UNL     1       2.669   3.847  20.843  0.00  0.00    +0.000 A 
ATOM     25  C   UNL     1       1.417   3.341  21.205  0.00  0.00    +0.000 A 
ATOM     26  C   UNL     1       0.563   2.844  20.230  0.00  0.00    +0.000 A 
ATOM     27  C   UNL     1       0.969   2.837  18.898  0.00  0.00    +0.000 A 
ATOM     28  C   UNL     1       2.239   3.317  18.531  0.00  0.00    +0.000 A 
ATOM     29 CL   UNL     1       2.644   3.179  16.853  0.00  0.00    +0.000 Cl
ENDBRANCH  18  23
ENDBRANCH   2  17
TORSDOF 3
ENDMDL
MODEL 4
REMARK VINA RESULT:      -8.8      1.852      3.341
REMARK  Name = 
REMARK  5 active torsions:
REMARK  status: ('A' for Active; 'I' for Inactive)
REMARK    1  A    between atoms: C_1  and  C_2
REMARK    2  A    between atoms: C_10  and  N_11
REMARK    3  A    between atoms: C_12  and  C_14
REMARK    4  A    between atoms: C_15  and  C_16
REMARK    5  A    between atoms: C_25  and  C_26
REMARK                            x       y       z     vdW  Elec       q    Type
REMARK                         _______ _______ _______ _____ _____    ______ ____
ROOT
ATOM      1  N   UNL     1       2.996   7.054  19.144  0.00  0.00    +0.000 N 
ATOM      2  C   UNL     1       3.865   6.634  18.144  0.00  0.00    +0.000 C 
ATOM      3  O   UNL     1       3.964   7.145  17.035  0.00  0.00    +0.000 OA
ATOM      4  H   UNL     1       3.119   6.651  20.063  0.00  0.00    +0.000 HD
ENDROOT
BRANCH   1  14
ATOM      5  C   UNL     1       0.706   9.244  23.224  0.00  0.00    +0.000 C 
ATOM      6  C   UNL     1      -0.199  10.218  22.532  0.00  0.00    +0.000 C 
ATOM      7  O   UNL     1      -0.936  10.939  23.218  0.00  0.00    +0.000 OA
ATOM      8  N   UNL     1      -0.184  10.313  21.158  0.00  0.00    +0.000 N 
ATOM      9  C   UNL     1      -0.985  11.376  20.527  0.00  0.00    +0.000 C 
ATOM     10  C   UNL     1      -0.865  11.215  19.016  0.00  0.00    +0.000 C 
ATOM     11  C   UNL     1       0.196  10.172  18.909  0.00  0.00    +0.000 A 
ATOM     12  C   UNL     1       0.770   9.722  17.735  0.00  0.00    +0.000 A 
ATOM     13  C   UNL     1       1.702   8.690  17.806  0.00  0.00    +0.000 A 
ATOM     14  C   UNL     1       2.054   8.110  19.039  0.00  0.00    +0.000 A 
ATOM     15  C   UNL     1       1.452   8.587  20.222  0.00  0.00    +0.000 A 
ATOM     16  C   UNL     1       0.535   9.632  20.153  0.00  0.00    +0.000 A 
ENDBRANCH   1  14
BRANCH   2  17
ATOM     17  C   UNL     1       4.767   5.562  18.523  0.00  0.00    +0.000 A 
ATOM     18  C   UNL     1       4.418   4.243  18.980  0.00  0.00    +0.000 A 
ATOM     19  N   UNL     1       5.534   3.553  19.267  0.00  0.00    +0.000 NA
ATOM     20  O   UNL     1       6.593   4.400  19.051  0.00  0.00    +0.000 OA
ATOM     21  C   UNL     1       6.145   5.595  18.593  0.00  0.00    +0.000 A 
ATOM     22  C   UNL     1       7.189   6.604  18.329  0.00  0.00    +0.000 C 
BRANCH  18  23
ATOM     23  C   UNL     1       3.091   3.608  19.052  0.00  0.00    +0.000 A 
ATOM     24  C   UNL     1       2.685   2.769  17.995  0.00  0.00    +0.000 A 
ATOM     25  C   UNL     1       1.443   2.127  18.002  0.00  0.00    +0.000 A 
ATOM     26  C   UNL     1       0.590   2.283  19.085  0.00  0.00    +0.000 A 
ATOM     27  C   UNL     1       0.972   3.094  20.151  0.00  0.00    +0.000 A 
ATOM     28  C   UNL     1       2.207   3.765  20.137  0.00  0.00    +0.000 A 
ATOM     29 CL   UNL     1       2.523   4.799  21.490  0.00  0.00    +0.000 Cl
ENDBRANCH  18  23
ENDBRANCH   2  17
TORSDOF 3
ENDMDL
MODEL 5
REMARK VINA RESULT:      -8.7      1.774      2.106
REMARK  Name = 
REMARK  5 active torsions:
REMARK  status: ('A' for Active; 'I' for Inactive)
REMARK    1  A    between atoms: C_1  and  C_2
REMARK    2  A    between atoms: C_10  and  N_11
REMARK    3  A    between atoms: C_12  and  C_14
REMARK    4  A    between atoms: C_15  and  C_16
REMARK    5  A    between atoms: C_25  and  C_26
REMARK                            x       y       z     vdW  Elec       q    Type
REMARK                         _______ _______ _______ _____ _____    ______ ____
ROOT
ATOM      1  N   UNL     1       2.418   7.262  18.379  0.00  0.00    +0.000 N 
ATOM      2  C   UNL     1       2.540   6.242  19.315  0.00  0.00    +0.000 C 
ATOM      3  O   UNL     1       2.252   6.335  20.502  0.00  0.00    +0.000 OA
ATOM      4  H   UNL     1       2.541   7.014  17.406  0.00  0.00    +0.000 HD
ENDROOT
BRANCH   1  14
ATOM      5  C   UNL     1      -0.031   8.643  22.713  0.00  0.00    +0.000 C 
ATOM      6  C   UNL     1      -0.292  10.089  22.424  0.00  0.00    +0.000 C 
ATOM      7  O   UNL     1      -0.892  10.769  23.267  0.00  0.00    +0.000 OA
ATOM      8  N   UNL     1       0.153  10.645  21.244  0.00  0.00    +0.000 N 
ATOM      9  C   UNL     1      -0.003  12.099  21.060  0.00  0.00    +0.000 C 
ATOM     10  C   UNL     1       0.484  12.445  19.658  0.00  0.00    +0.000 C 
ATOM     11  C   UNL     1       1.093  11.153  19.224  0.00  0.00    +0.000 A 
ATOM     12  C   UNL     1       1.784  10.942  18.047  0.00  0.00    +0.000 A 
ATOM     13  C   UNL     1       2.229   9.654  17.762  0.00  0.00    +0.000 A 
ATOM     14  C   UNL     1       1.982   8.586  18.643  0.00  0.00    +0.000 A 
ATOM     15  C   UNL     1       1.271   8.828  19.838  0.00  0.00    +0.000 A 
ATOM     16  C   UNL     1       0.843  10.120  20.132  0.00  0.00    +0.000 A 
ENDBRANCH   1  14
BRANCH   2  17
ATOM     17  C   UNL     1       2.960   4.961  18.778  0.00  0.00    +0.000 A 
ATOM     18  C   UNL     1       4.257   4.609  18.262  0.00  0.00    +0.000 A 
ATOM     19  N   UNL     1       4.241   3.340  17.823  0.00  0.00    +0.000 NA
ATOM     20  O   UNL     1       2.962   2.873  17.998  0.00  0.00    +0.000 OA
ATOM     21  C   UNL     1       2.196   3.829  18.581  0.00  0.00    +0.000 A 
ATOM     22  C   UNL     1       0.788   3.455  18.817  0.00  0.00    +0.000 C 
BRANCH  18  23
ATOM     23  C   UNL     1       5.502   5.395  18.269  0.00  0.00    +0.000 A 
ATOM     24  C   UNL     1       6.419   5.200  19.322  0.00  0.00    +0.000 A 
ATOM     25  C   UNL     1       7.623   5.906  19.388  0.00  0.00    +0.000 A 
ATOM     26  C   UNL     1       7.956   6.802  18.381  0.00  0.00    +0.000 A 
ATOM     27  C   UNL     1       7.076   7.003  17.321  0.00  0.00    +0.000 A 
ATOM     28  C   UNL     1       5.850   6.318  17.264  0.00  0.00    +0.000 A 
ATOM     29 CL   UNL     1       4.819   6.719  15.932  0.00  0.00    +0.000 Cl
ENDBRANCH  18  23
ENDBRANCH   2  17
TORSDOF 3
ENDMDL
MODEL 6
REMARK VINA RESULT:      -8.5      1.185      1.197
REMARK  Name = 
REMARK  5 active torsions:
REMARK  status: ('A' for Active; 'I' for Inactive)
REMARK    1  A    between atoms: C_1  and  C_2
REMARK    2  A    between atoms: C_10  and  N_11
REMARK    3  A    between atoms: C_12  and  C_14
REMARK    4  A    between atoms: C_15  and  C_16
REMARK    5  A    between atoms: C_25  and  C_26
REMARK                            x       y       z     vdW  Elec       q    Type
REMARK                         _______ _______ _______ _____ _____    ______ ____
ROOT
ATOM      1  N   UNL     1       2.022   6.638  18.572  0.00  0.00    +0.000 N 
ATOM      2  C   UNL     1       3.117   5.926  19.047  0.00  0.00    +0.000 C 
ATOM      3  O   UNL     1       4.056   6.408  19.669  0.00  0.00    +0.000 OA
ATOM      4  H   UNL     1       1.244   6.102  18.211  0.00  0.00    +0.000 HD
ENDROOT
BRANCH   1  14
ATOM      5  C   UNL     1      -0.024   8.889  22.747  0.00  0.00    +0.000 C 
ATOM      6  C   UNL     1      -0.045  10.318  22.298  0.00  0.00    +0.000 C 
ATOM      7  O   UNL     1      -0.495  11.180  23.065  0.00  0.00    +0.000 OA
ATOM      8  N   UNL     1       0.452  10.656  21.058  0.00  0.00    +0.000 N 
ATOM      9  C   UNL     1       0.539  12.085  20.711  0.00  0.00    +0.000 C 
ATOM     10  C   UNL     1       1.035  12.185  19.273  0.00  0.00    +0.000 C 
ATOM     11  C   UNL     1       1.403  10.768  18.982  0.00  0.00    +0.000 A 
ATOM     12  C   UNL     1       2.012  10.313  17.830  0.00  0.00    +0.000 A 
ATOM     13  C   UNL     1       2.224   8.944  17.688  0.00  0.00    +0.000 A 
ATOM     14  C   UNL     1       1.825   8.038  18.688  0.00  0.00    +0.000 A 
ATOM     15  C   UNL     1       1.203   8.529  19.855  0.00  0.00    +0.000 A 
ATOM     16  C   UNL     1       1.009   9.900  20.005  0.00  0.00    +0.000 A 
ENDBRANCH   1  14
BRANCH   2  17
ATOM     17  C   UNL     1       3.053   4.490  18.844  0.00  0.00    +0.000 A 
ATOM     18  C   UNL     1       3.821   3.701  17.917  0.00  0.00    +0.000 A 
ATOM     19  N   UNL     1       3.447   2.414  18.001  0.00  0.00    +0.000 NA
ATOM     20  O   UNL     1       2.432   2.352  18.923  0.00  0.00    +0.000 OA
ATOM     21  C   UNL     1       2.201   3.584  19.441  0.00  0.00    +0.000 A 
ATOM     22  C   UNL     1       1.120   3.657  20.443  0.00  0.00    +0.000 C 
BRANCH  18  23
ATOM     23  C   UNL     1       4.937   4.114  17.051  0.00  0.00    +0.000 A 
ATOM     24  C   UNL     1       4.765   4.060  15.653  0.00  0.00    +0.000 A 
ATOM     25  C   UNL     1       5.779   4.445  14.772  0.00  0.00    +0.000 A 
ATOM     26  C   UNL     1       6.982   4.927  15.270  0.00  0.00    +0.000 A 
ATOM     27  C   UNL     1       7.174   5.007  16.647  0.00  0.00    +0.000 A 
ATOM     28  C   UNL     1       6.169   4.594  17.538  0.00  0.00    +0.000 A 
ATOM     29 CL   UNL     1       6.568   4.676  19.221  0.00  0.00    +0.000 Cl
ENDBRANCH  18  23
ENDBRANCH   2  17
TORSDOF 3
ENDMDL
MODEL 7
REMARK VINA RESULT:      -8.0      2.065      2.952
REMARK  Name = 
REMARK  5 active torsions:
REMARK  status: ('A' for Active; 'I' for Inactive)
REMARK    1  A    between atoms: C_1  and  C_2
REMARK    2  A    between atoms: C_10  and  N_11
REMARK    3  A    between atoms: C_12  and  C_14
REMARK    4  A    between atoms: C_15  and  C_16
REMARK    5  A    between atoms: C_25  and  C_26
REMARK                            x       y       z     vdW  Elec       q    Type
REMARK                         _______ _______ _______ _____ _____    ______ ____
ROOT
ATOM      1  N   UNL     1       1.956   6.730  20.268  0.00  0.00    +0.000 N 
ATOM      2  C   UNL     1       2.633   6.534  19.071  0.00  0.00    +0.000 C 
ATOM      3  O   UNL     1       2.911   7.413  18.265  0.00  0.00    +0.000 OA
ATOM      4  H   UNL     1       1.925   5.953  20.915  0.00  0.00    +0.000 HD
ENDROOT
BRANCH   1  14
ATOM      5  C   UNL     1      -1.116   9.789  17.458  0.00  0.00    +0.000 C 
ATOM      6  C   UNL     1      -1.291  10.935  18.407  0.00  0.00    +0.000 C 
ATOM      7  O   UNL     1      -1.986  11.899  18.057  0.00  0.00    +0.000 OA
ATOM      8  N   UNL     1      -0.701  10.895  19.651  0.00  0.00    +0.000 N 
ATOM      9  C   UNL     1      -1.011  11.977  20.602  0.00  0.00    +0.000 C 
ATOM     10  C   UNL     1      -0.177  11.746  21.856  0.00  0.00    +0.000 C 
ATOM     11  C   UNL     1       0.397  10.395  21.592  0.00  0.00    +0.000 A 
ATOM     12  C   UNL     1       1.160   9.655  22.475  0.00  0.00    +0.000 A 
ATOM     13  C   UNL     1       1.678   8.437  22.043  0.00  0.00    +0.000 A 
ATOM     14  C   UNL     1       1.438   7.964  20.740  0.00  0.00    +0.000 A 
ATOM     15  C   UNL     1       0.657   8.740  19.857  0.00  0.00    +0.000 A 
ATOM     16  C   UNL     1       0.123   9.949  20.295  0.00  0.00    +0.000 A 
ENDBRANCH   1  14
BRANCH   2  17
ATOM     17  C   UNL     1       3.105   5.180  18.845  0.00  0.00    +0.000 A 
ATOM     18  C   UNL     1       4.433   4.764  18.476  0.00  0.00    +0.000 A 
ATOM     19  N   UNL     1       4.464   3.431  18.324  0.00  0.00    +0.000 NA
ATOM     20  O   UNL     1       3.187   2.974  18.540  0.00  0.00    +0.000 OA
ATOM     21  C   UNL     1       2.375   4.009  18.866  0.00  0.00    +0.000 A 
ATOM     22  C   UNL     1       0.964   3.654  19.116  0.00  0.00    +0.000 C 
BRANCH  18  23
ATOM     23  C   UNL     1       5.660   5.571  18.366  0.00  0.00    +0.000 A 
ATOM     24  C   UNL     1       6.619   5.486  19.396  0.00  0.00    +0.000 A 
ATOM     25  C   UNL     1       7.809   6.218  19.353  0.00  0.00    +0.000 A 
ATOM     26  C   UNL     1       8.085   7.027  18.260  0.00  0.00    +0.000 A 
ATOM     27  C   UNL     1       7.163   7.117  17.220  0.00  0.00    +0.000 A 
ATOM     28  C   UNL     1       5.951   6.407  17.271  0.00  0.00    +0.000 A 
ATOM     29 CL   UNL     1       4.863   6.669  15.949  0.00  0.00    +0.000 Cl
ENDBRANCH  18  23
ENDBRANCH   2  17
TORSDOF 3
ENDMDL
MODEL 8
REMARK VINA RESULT:      -8.0      2.324      4.322
REMARK  Name = 
REMARK  5 active torsions:
REMARK  status: ('A' for Active; 'I' for Inactive)
REMARK    1  A    between atoms: C_1  and  C_2
REMARK    2  A    between atoms: C_10  and  N_11
REMARK    3  A    between atoms: C_12  and  C_14
REMARK    4  A    between atoms: C_15  and  C_16
REMARK    5  A    between atoms: C_25  and  C_26
REMARK                            x       y       z     vdW  Elec       q    Type
REMARK                         _______ _______ _______ _____ _____    ______ ____
ROOT
ATOM      1  N   UNL     1       2.611   7.156  19.881  0.00  0.00    +0.000 N 
ATOM      2  C   UNL     1       3.103   7.040  18.587  0.00  0.00    +0.000 C 
ATOM      3  O   UNL     1       2.817   7.781  17.654  0.00  0.00    +0.000 OA
ATOM      4  H   UNL     1       3.041   6.580  20.592  0.00  0.00    +0.000 HD
ENDROOT
BRANCH   1  14
ATOM      5  C   UNL     1       2.359  11.974  18.033  0.00  0.00    +0.000 C 
ATOM      6  C   UNL     1       1.261  12.531  18.888  0.00  0.00    +0.000 C 
ATOM      7  O   UNL     1       0.920  13.711  18.728  0.00  0.00    +0.000 OA
ATOM      8  N   UNL     1       0.637  11.726  19.815  0.00  0.00    +0.000 N 
ATOM      9  C   UNL     1      -0.527  12.271  20.536  0.00  0.00    +0.000 C 
ATOM     10  C   UNL     1      -0.976  11.228  21.552  0.00  0.00    +0.000 C 
ATOM     11  C   UNL     1      -0.139  10.054  21.168  0.00  0.00    +0.000 A 
ATOM     12  C   UNL     1      -0.225   8.788  21.712  0.00  0.00    +0.000 A 
ATOM     13  C   UNL     1       0.682   7.821  21.288  0.00  0.00    +0.000 A 
ATOM     14  C   UNL     1       1.669   8.118  20.330  0.00  0.00    +0.000 A 
ATOM     15  C   UNL     1       1.737   9.420  19.791  0.00  0.00    +0.000 A 
ATOM     16  C   UNL     1       0.818  10.382  20.201  0.00  0.00    +0.000 A 
ENDBRANCH   1  14
BRANCH   2  17
ATOM     17  C   UNL     1       4.098   6.001  18.397  0.00  0.00    +0.000 A 
ATOM     18  C   UNL     1       4.071   4.656  18.910  0.00  0.00    +0.000 A 
ATOM     19  N   UNL     1       5.191   4.011  18.549  0.00  0.00    +0.000 NA
ATOM     20  O   UNL     1       5.964   4.909  17.856  0.00  0.00    +0.000 OA
ATOM     21  C   UNL     1       5.313   6.094  17.748  0.00  0.00    +0.000 A 
ATOM     22  C   UNL     1       6.043   7.156  17.029  0.00  0.00    +0.000 C 
BRANCH  18  23
ATOM     23  C   UNL     1       2.990   3.960  19.628  0.00  0.00    +0.000 A 
ATOM     24  C   UNL     1       3.229   3.516  20.944  0.00  0.00    +0.000 A 
ATOM     25  C   UNL     1       2.246   2.856  21.687  0.00  0.00    +0.000 A 
ATOM     26  C   UNL     1       0.985   2.655  21.142  0.00  0.00    +0.000 A 
ATOM     27  C   UNL     1       0.716   3.097  19.849  0.00  0.00    +0.000 A 
ATOM     28  C   UNL     1       1.709   3.735  19.086  0.00  0.00    +0.000 A 
ATOM     29 CL   UNL     1       1.263   4.166  17.469  0.00  0.00    +0.000 Cl
ENDBRANCH  18  23
ENDBRANCH   2  17
TORSDOF 3
ENDMDL
MODEL 9
REMARK VINA RESULT:      -7.9      2.977      7.985
REMARK  Name = 
REMARK  5 active torsions:
REMARK  status: ('A' for Active; 'I' for Inactive)
REMARK    1  A    between atoms: C_1  and  C_2
REMARK    2  A    between atoms: C_10  and  N_11
REMARK    3  A    between atoms: C_12  and  C_14
REMARK    4  A    between atoms: C_15  and  C_16
REMARK    5  A    between atoms: C_25  and  C_26
REMARK                            x       y       z     vdW  Elec       q    Type
REMARK                         _______ _______ _______ _____ _____    ______ ____
ROOT
ATOM      1  N   UNL     1       1.826   8.513  20.152  0.00  0.00    +0.000 N 
ATOM      2  C   UNL     1       1.018   9.577  19.769  0.00  0.00    +0.000 C 
ATOM      3  O   UNL     1       0.650   9.807  18.624  0.00  0.00    +0.000 OA
ATOM      4  H   UNL     1       1.931   8.346  21.144  0.00  0.00    +0.000 HD
ENDROOT
BRANCH   1  14
ATOM      5  C   UNL     1       1.117   3.428  20.722  0.00  0.00    +0.000 C 
ATOM      6  C   UNL     1       1.965   2.912  19.600  0.00  0.00    +0.000 C 
ATOM      7  O   UNL     1       2.048   1.688  19.427  0.00  0.00    +0.000 OA
ATOM      8  N   UNL     1       2.619   3.796  18.770  0.00  0.00    +0.000 N 
ATOM      9  C   UNL     1       3.329   3.253  17.599  0.00  0.00    +0.000 C 
ATOM     10  C   UNL     1       4.030   4.413  16.901  0.00  0.00    +0.000 C 
ATOM     11  C   UNL     1       3.470   5.587  17.632  0.00  0.00    +0.000 A 
ATOM     12  C   UNL     1       3.699   6.913  17.325  0.00  0.00    +0.000 A 
ATOM     13  C   UNL     1       3.154   7.890  18.155  0.00  0.00    +0.000 A 
ATOM     14  C   UNL     1       2.390   7.542  19.284  0.00  0.00    +0.000 A 
ATOM     15  C   UNL     1       2.173   6.179  19.577  0.00  0.00    +0.000 A 
ATOM     16  C   UNL     1       2.701   5.204  18.736  0.00  0.00    +0.000 A 
ENDBRANCH   1  14
BRANCH   2  17
ATOM     17  C   UNL     1       0.527  10.400  20.859  0.00  0.00    +0.000 A 
ATOM     18  C   UNL     1       0.702  11.818  21.036  0.00  0.00    +0.000 A 
ATOM     19  N   UNL     1       0.132  12.204  22.188  0.00  0.00    +0.000 NA
ATOM     20  O   UNL     1      -0.369  11.074  22.784  0.00  0.00    +0.000 OA
ATOM     21  C   UNL     1      -0.151   9.996  21.991  0.00  0.00    +0.000 A 
ATOM     22  C   UNL     1      -0.636   8.708  22.524  0.00  0.00    +0.000 C 
BRANCH  18  23
ATOM     23  C   UNL     1       1.294  12.800  20.112  0.00  0.00    +0.000 A 
ATOM     24  C   UNL     1       2.577  13.310  20.400  0.00  0.00    +0.000 A 
ATOM     25  C   UNL     1       3.202  14.239  19.563  0.00  0.00    +0.000 A 
ATOM     26  C   UNL     1       2.573  14.655  18.398  0.00  0.00    +0.000 A 
ATOM     27  C   UNL     1       1.311  14.156  18.081  0.00  0.00    +0.000 A 
ATOM     28  C   UNL     1       0.665  13.244  18.933  0.00  0.00    +0.000 A 
ATOM     29 CL   UNL     1      -0.929  12.763  18.458  0.00  0.00    +0.000 Cl
ENDBRANCH  18  23
ENDBRANCH   2  17
TORSDOF 3
ENDMDL
