MODEL 1
REMARK VINA RESULT:      -8.6      0.000      0.000
REMARK  Name = 
REMARK  11 active torsions:
REMARK  status: ('A' for Active; 'I' for Inactive)
REMARK    1  A    between atoms: C_1  and  C_2
REMARK    2  A    between atoms: C_2  and  O_3
REMARK    3  A    between atoms: O_3  and  C_4
REMARK    4  A    between atoms: C_4  and  C_5
REMARK    5  A    between atoms: C_6  and  C_7
REMARK    6  A    between atoms: C_11  and  C_12
REMARK    7  A    between atoms: C_14  and  O_15
REMARK    8  A    between atoms: O_15  and  C_16
REMARK    9  A    between atoms: C_26  and  C_27
REMARK   10  A    between atoms: C_27  and  N_28
REMARK   11  A    between atoms: C_31  and  O_32
REMARK                            x       y       z     vdW  Elec       q    Type
REMARK                         _______ _______ _______ _____ _____    ______ ____
ROOT
ATOM      1  C   UNL     1       4.617   6.028  17.319  0.00  0.00    +0.000 A 
ATOM      2  C   UNL     1       3.464   5.827  18.147  0.00  0.00    +0.000 A 
ATOM      3  C   UNL     1       3.228   4.463  18.217  0.00  0.00    +0.000 A 
ATOM      4  C   UNL     1       2.200   3.626  18.771  0.00  0.00    +0.000 A 
ATOM      5  N   UNL     1       1.096   4.051  19.446  0.00  0.00    +0.000 N 
ATOM      6  N   UNL     1       2.284   2.338  18.598  0.00  0.00    +0.000 NA
ATOM      7  C   UNL     1       3.344   1.830  17.907  0.00  0.00    +0.000 A 
ATOM      8  N   UNL     1       4.306   2.500  17.350  0.00  0.00    +0.000 NA
ATOM      9  N   UNL     1       4.220   3.836  17.516  0.00  0.00    +0.000 N 
ATOM     10  C   UNL     1       5.082   4.761  16.979  0.00  0.00    +0.000 A 
ATOM     11  H   UNL     1       0.833   5.027  19.405  0.00  0.00    +0.000 HD
ATOM     12  H   UNL     1       0.367   3.378  19.598  0.00  0.00    +0.000 HD
ENDROOT
BRANCH   2  13
ATOM     13  C   UNL     1       2.662   6.905  18.807  0.00  0.00    +0.000 A 
ATOM     14  C   UNL     1       2.200   6.863  20.102  0.00  0.00    +0.000 A 
ATOM     15  C   UNL     1       1.501   8.055  20.490  0.00  0.00    +0.000 A 
ATOM     16  C   UNL     1       0.917   8.405  21.726  0.00  0.00    +0.000 A 
ATOM     17  C   UNL     1       0.324   9.662  21.895  0.00  0.00    +0.000 A 
ATOM     18  C   UNL     1      -0.310  10.023  23.206  0.00  0.00    +0.000 C 
ATOM     19  C   UNL     1       0.333  10.582  20.840  0.00  0.00    +0.000 A 
ATOM     20  C   UNL     1       0.898  10.263  19.597  0.00  0.00    +0.000 A 
ATOM     21  C   UNL     1       1.454   8.981  19.448  0.00  0.00    +0.000 A 
ATOM     22  S   UNL     1       2.140   8.316  18.018  0.00  0.00    +0.000 S 
BRANCH  20  23
ATOM     23  O   UNL     1       0.973  11.097  18.516  0.00  0.00    +0.000 OA
ATOM     24  C   UNL     1       1.920  12.150  18.546  0.00  0.00    +0.000 C 
ENDBRANCH  20  23
ENDBRANCH   2  13
BRANCH   1  25
ATOM     25  C   UNL     1       5.268   7.320  16.938  0.00  0.00    +0.000 C 
BRANCH  25  26
ATOM     26  O   UNL     1       6.656   7.129  16.673  0.00  0.00    +0.000 OA
BRANCH  26  28
ATOM     27  C   UNL     1       7.948   8.797  17.764  0.00  0.00    +0.000 C 
ATOM     28  C   UNL     1       7.455   7.367  17.823  0.00  0.00    +0.000 C 
ENDBRANCH  26  28
ENDBRANCH  25  26
ENDBRANCH   1  25
BRANCH  10  29
ATOM     29  C   UNL     1       6.261   4.373  16.148  0.00  0.00    +0.000 C 
BRANCH  29  30
ATOM     30  N   UNL     1       6.067   4.676  14.718  0.00  0.00    +0.000 NA
ATOM     31  C   UNL     1       7.340   4.854  14.010  0.00  0.00    +0.000 C 
ATOM     32  C   UNL     1       7.075   4.425  12.579  0.00  0.00    +0.000 C 
ATOM     33  C   UNL     1       5.985   3.375  12.686  0.00  0.00    +0.000 C 
ATOM     34  C   UNL     1       5.325   3.602  14.047  0.00  0.00    +0.000 C 
BRANCH  33  35
ATOM     35  O   UNL     1       5.060   3.501  11.611  0.00  0.00    +0.000 OA
ATOM     36  H   UNL     1       4.171   3.555  12.003  0.00  0.00    +0.000 HD
ENDBRANCH  33  35
ENDBRANCH  29  30
ENDBRANCH  10  29
TORSDOF 8
ENDMDL
MODEL 2
REMARK VINA RESULT:      -8.6      1.170      1.987
REMARK  Name = 
REMARK  11 active torsions:
REMARK  status: ('A' for Active; 'I' for Inactive)
REMARK    1  A    between atoms: C_1  and  C_2
REMARK    2  A    between atoms: C_2  and  O_3
REMARK    3  A    between atoms: O_3  and  C_4
REMARK    4  A    between atoms: C_4  and  C_5
REMARK    5  A    between atoms: C_6  and  C_7
REMARK    6  A    between atoms: C_11  and  C_12
REMARK    7  A    between atoms: C_14  and  O_15
REMARK    8  A    between atoms: O_15  and  C_16
REMARK    9  A    between atoms: C_26  and  C_27
REMARK   10  A    between atoms: C_27  and  N_28
REMARK   11  A    between atoms: C_31  and  O_32
REMARK                            x       y       z     vdW  Elec       q    Type
REMARK                         _______ _______ _______ _____ _____    ______ ____
ROOT
ATOM      1  C   UNL     1       4.450   5.823  17.089  0.00  0.00    +0.000 A 
ATOM      2  C   UNL     1       3.337   5.762  17.990  0.00  0.00    +0.000 A 
ATOM      3  C   UNL     1       3.056   4.425  18.222  0.00  0.00    +0.000 A 
ATOM      4  C   UNL     1       2.029   3.697  18.916  0.00  0.00    +0.000 A 
ATOM      5  N   UNL     1       0.979   4.239  19.592  0.00  0.00    +0.000 N 
ATOM      6  N   UNL     1       2.058   2.396  18.883  0.00  0.00    +0.000 NA
ATOM      7  C   UNL     1       3.061   1.772  18.201  0.00  0.00    +0.000 A 
ATOM      8  N   UNL     1       4.015   2.336  17.527  0.00  0.00    +0.000 NA
ATOM      9  N   UNL     1       3.986   3.684  17.547  0.00  0.00    +0.000 N 
ATOM     10  C   UNL     1       4.851   4.509  16.869  0.00  0.00    +0.000 A 
ATOM     11  H   UNL     1       0.749   5.214  19.456  0.00  0.00    +0.000 HD
ATOM     12  H   UNL     1       0.235   3.618  19.853  0.00  0.00    +0.000 HD
ENDROOT
BRANCH   2  13
ATOM     13  C   UNL     1       2.610   6.938  18.564  0.00  0.00    +0.000 A 
ATOM     14  C   UNL     1       2.190   8.033  17.844  0.00  0.00    +0.000 A 
ATOM     15  C   UNL     1       1.473   8.989  18.638  0.00  0.00    +0.000 A 
ATOM     16  C   UNL     1       0.863  10.206  18.267  0.00  0.00    +0.000 A 
ATOM     17  C   UNL     1       0.163  10.962  19.214  0.00  0.00    +0.000 A 
ATOM     18  C   UNL     1      -0.470  12.264  18.817  0.00  0.00    +0.000 C 
ATOM     19  C   UNL     1       0.049  10.496  20.529  0.00  0.00    +0.000 A 
ATOM     20  C   UNL     1       0.650   9.295  20.933  0.00  0.00    +0.000 A 
ATOM     21  C   UNL     1       1.375   8.576  19.967  0.00  0.00    +0.000 A 
ATOM     22  S   UNL     1       2.261   7.123  20.215  0.00  0.00    +0.000 S 
BRANCH  20  23
ATOM     23  O   UNL     1       0.579   8.748  22.184  0.00  0.00    +0.000 OA
ATOM     24  C   UNL     1       0.001   9.520  23.222  0.00  0.00    +0.000 C 
ENDBRANCH  20  23
ENDBRANCH   2  13
BRANCH   1  25
ATOM     25  C   UNL     1       5.126   7.038  16.535  0.00  0.00    +0.000 C 
BRANCH  25  26
ATOM     26  O   UNL     1       6.031   7.592  17.488  0.00  0.00    +0.000 OA
BRANCH  26  28
ATOM     27  C   UNL     1       7.804   6.433  18.564  0.00  0.00    +0.000 C 
ATOM     28  C   UNL     1       7.359   7.127  17.293  0.00  0.00    +0.000 C 
ENDBRANCH  26  28
ENDBRANCH  25  26
ENDBRANCH   1  25
BRANCH  10  29
ATOM     29  C   UNL     1       5.969   3.984  16.029  0.00  0.00    +0.000 C 
BRANCH  29  30
ATOM     30  N   UNL     1       5.871   4.419  14.624  0.00  0.00    +0.000 NA
ATOM     31  C   UNL     1       7.188   4.674  14.029  0.00  0.00    +0.000 C 
ATOM     32  C   UNL     1       7.031   4.380  12.548  0.00  0.00    +0.000 C 
ATOM     33  C   UNL     1       5.952   3.316  12.478  0.00  0.00    +0.000 C 
ATOM     34  C   UNL     1       5.194   3.407  13.804  0.00  0.00    +0.000 C 
BRANCH  33  35
ATOM     35  O   UNL     1       5.103   3.535  11.357  0.00  0.00    +0.000 OA
ATOM     36  H   UNL     1       5.612   3.299  10.561  0.00  0.00    +0.000 HD
ENDBRANCH  33  35
ENDBRANCH  29  30
ENDBRANCH  10  29
TORSDOF 8
ENDMDL
MODEL 3
REMARK VINA RESULT:      -7.9      1.687      2.462
REMARK  Name = 
REMARK  11 active torsions:
REMARK  status: ('A' for Active; 'I' for Inactive)
REMARK    1  A    between atoms: C_1  and  C_2
REMARK    2  A    between atoms: C_2  and  O_3
REMARK    3  A    between atoms: O_3  and  C_4
REMARK    4  A    between atoms: C_4  and  C_5
REMARK    5  A    between atoms: C_6  and  C_7
REMARK    6  A    between atoms: C_11  and  C_12
REMARK    7  A    between atoms: C_14  and  O_15
REMARK    8  A    between atoms: O_15  and  C_16
REMARK    9  A    between atoms: C_26  and  C_27
REMARK   10  A    between atoms: C_27  and  N_28
REMARK   11  A    between atoms: C_31  and  O_32
REMARK                            x       y       z     vdW  Elec       q    Type
REMARK                         _______ _______ _______ _____ _____    ______ ____
ROOT
ATOM      1  C   UNL     1       4.699   6.282  18.128  0.00  0.00    +0.000 A 
ATOM      2  C   UNL     1       3.513   6.197  18.930  0.00  0.00    +0.000 A 
ATOM      3  C   UNL     1       3.446   4.913  19.446  0.00  0.00    +0.000 A 
ATOM      4  C   UNL     1       2.487   4.163  20.210  0.00  0.00    +0.000 A 
ATOM      5  N   UNL     1       1.284   4.619  20.657  0.00  0.00    +0.000 N 
ATOM      6  N   UNL     1       2.747   2.917  20.485  0.00  0.00    +0.000 NA
ATOM      7  C   UNL     1       3.918   2.372  20.048  0.00  0.00    +0.000 A 
ATOM      8  N   UNL     1       4.833   2.956  19.337  0.00  0.00    +0.000 NA
ATOM      9  N   UNL     1       4.566   4.243  19.038  0.00  0.00    +0.000 N 
ATOM     10  C   UNL     1       5.348   5.058  18.255  0.00  0.00    +0.000 A 
ATOM     11  H   UNL     1       0.905   5.477  20.279  0.00  0.00    +0.000 HD
ATOM     12  H   UNL     1       0.634   3.933  20.998  0.00  0.00    +0.000 HD
ENDROOT
BRANCH   2  13
ATOM     13  C   UNL     1       2.528   7.302  19.154  0.00  0.00    +0.000 A 
ATOM     14  C   UNL     1       2.028   8.124  18.171  0.00  0.00    +0.000 A 
ATOM     15  C   UNL     1       1.061   9.064  18.659  0.00  0.00    +0.000 A 
ATOM     16  C   UNL     1       0.308  10.037  17.968  0.00  0.00    +0.000 A 
ATOM     17  C   UNL     1      -0.630  10.819  18.652  0.00  0.00    +0.000 A 
ATOM     18  C   UNL     1      -1.416  11.864  17.915  0.00  0.00    +0.000 C 
ATOM     19  C   UNL     1      -0.837  10.618  20.021  0.00  0.00    +0.000 A 
ATOM     20  C   UNL     1      -0.102   9.665  20.739  0.00  0.00    +0.000 A 
ATOM     21  C   UNL     1       0.858   8.919  20.032  0.00  0.00    +0.000 A 
ATOM     22  S   UNL     1       1.936   7.748  20.682  0.00  0.00    +0.000 S 
BRANCH  20  23
ATOM     23  O   UNL     1      -0.244   9.381  22.069  0.00  0.00    +0.000 OA
ATOM     24  C   UNL     1      -0.754  10.393  22.919  0.00  0.00    +0.000 C 
ENDBRANCH  20  23
ENDBRANCH   2  13
BRANCH   1  25
ATOM     25  C   UNL     1       5.213   7.459  17.359  0.00  0.00    +0.000 C 
BRANCH  25  26
ATOM     26  O   UNL     1       6.566   7.250  16.959  0.00  0.00    +0.000 OA
BRANCH  26  28
ATOM     27  C   UNL     1       8.284   7.630  18.555  0.00  0.00    +0.000 C 
ATOM     28  C   UNL     1       7.432   8.253  17.469  0.00  0.00    +0.000 C 
ENDBRANCH  26  28
ENDBRANCH  25  26
ENDBRANCH   1  25
BRANCH  10  29
ATOM     29  C   UNL     1       6.634   4.596  17.650  0.00  0.00    +0.000 C 
BRANCH  29  30
ATOM     30  N   UNL     1       6.449   4.012  16.309  0.00  0.00    +0.000 NA
ATOM     31  C   UNL     1       5.061   4.120  15.843  0.00  0.00    +0.000 C 
ATOM     32  C   UNL     1       5.144   4.199  14.330  0.00  0.00    +0.000 C 
ATOM     33  C   UNL     1       6.479   4.864  14.050  0.00  0.00    +0.000 C 
ATOM     34  C   UNL     1       7.308   4.676  15.321  0.00  0.00    +0.000 C 
BRANCH  33  35
ATOM     35  O   UNL     1       7.101   4.280  12.911  0.00  0.00    +0.000 OA
ATOM     36  H   UNL     1       6.620   3.457  12.712  0.00  0.00    +0.000 HD
ENDBRANCH  33  35
ENDBRANCH  29  30
ENDBRANCH  10  29
TORSDOF 8
ENDMDL
MODEL 4
REMARK VINA RESULT:      -7.6      1.035      1.279
REMARK  Name = 
REMARK  11 active torsions:
REMARK  status: ('A' for Active; 'I' for Inactive)
REMARK    1  A    between atoms: C_1  and  C_2
REMARK    2  A    between atoms: C_2  and  O_3
REMARK    3  A    between atoms: O_3  and  C_4
REMARK    4  A    between atoms: C_4  and  C_5
REMARK    5  A    between atoms: C_6  and  C_7
REMARK    6  A    between atoms: C_11  and  C_12
REMARK    7  A    between atoms: C_14  and  O_15
REMARK    8  A    between atoms: O_15  and  C_16
REMARK    9  A    between atoms: C_26  and  C_27
REMARK   10  A    between atoms: C_27  and  N_28
REMARK   11  A    between atoms: C_31  and  O_32
REMARK                            x       y       z     vdW  Elec       q    Type
REMARK                         _______ _______ _______ _____ _____    ______ ____
ROOT
ATOM      1  C   UNL     1       4.572   6.109  18.247  0.00  0.00    +0.000 A 
ATOM      2  C   UNL     1       3.349   5.982  18.985  0.00  0.00    +0.000 A 
ATOM      3  C   UNL     1       3.127   4.631  19.202  0.00  0.00    +0.000 A 
ATOM      4  C   UNL     1       2.064   3.842  19.759  0.00  0.00    +0.000 A 
ATOM      5  N   UNL     1       0.895   4.318  20.271  0.00  0.00    +0.000 N 
ATOM      6  N   UNL     1       2.182   2.545  19.756  0.00  0.00    +0.000 NA
ATOM      7  C   UNL     1       3.310   1.984  19.233  0.00  0.00    +0.000 A 
ATOM      8  N   UNL     1       4.310   2.605  18.688  0.00  0.00    +0.000 NA
ATOM      9  N   UNL     1       4.190   3.948  18.678  0.00  0.00    +0.000 N 
ATOM     10  C   UNL     1       5.085   4.823  18.112  0.00  0.00    +0.000 A 
ATOM     11  H   UNL     1       0.623   5.274  20.086  0.00  0.00    +0.000 HD
ATOM     12  H   UNL     1       0.164   3.650  20.438  0.00  0.00    +0.000 HD
ENDROOT
BRANCH   2  13
ATOM     13  C   UNL     1       2.473   7.111  19.429  0.00  0.00    +0.000 A 
ATOM     14  C   UNL     1       1.869   7.202  20.661  0.00  0.00    +0.000 A 
ATOM     15  C   UNL     1       1.126   8.417  20.837  0.00  0.00    +0.000 A 
ATOM     16  C   UNL     1       0.405   8.889  21.954  0.00  0.00    +0.000 A 
ATOM     17  C   UNL     1      -0.208  10.147  21.918  0.00  0.00    +0.000 A 
ATOM     18  C   UNL     1      -0.988  10.637  23.103  0.00  0.00    +0.000 C 
ATOM     19  C   UNL     1      -0.085  10.947  20.777  0.00  0.00    +0.000 A 
ATOM     20  C   UNL     1       0.618  10.506  19.647  0.00  0.00    +0.000 A 
ATOM     21  C   UNL     1       1.193   9.224  19.701  0.00  0.00    +0.000 A 
ATOM     22  S   UNL     1       2.039   8.420  18.438  0.00  0.00    +0.000 S 
BRANCH  20  23
ATOM     23  O   UNL     1       0.811  11.219  18.496  0.00  0.00    +0.000 OA
ATOM     24  C   UNL     1       1.920  12.099  18.431  0.00  0.00    +0.000 C 
ENDBRANCH  20  23
ENDBRANCH   2  13
BRANCH   1  25
ATOM     25  C   UNL     1       5.238   7.362  17.770  0.00  0.00    +0.000 C 
BRANCH  25  26
ATOM     26  O   UNL     1       6.417   7.057  17.028  0.00  0.00    +0.000 OA
BRANCH  26  28
ATOM     27  C   UNL     1       8.204   7.302  18.574  0.00  0.00    +0.000 C 
ATOM     28  C   UNL     1       7.500   7.907  17.377  0.00  0.00    +0.000 C 
ENDBRANCH  26  28
ENDBRANCH  25  26
ENDBRANCH   1  25
BRANCH  10  29
ATOM     29  C   UNL     1       6.343   4.367  17.446  0.00  0.00    +0.000 C 
BRANCH  29  30
ATOM     30  N   UNL     1       6.107   3.864  16.080  0.00  0.00    +0.000 NA
ATOM     31  C   UNL     1       4.833   4.336  15.527  0.00  0.00    +0.000 C 
ATOM     32  C   UNL     1       5.041   4.404  14.025  0.00  0.00    +0.000 C 
ATOM     33  C   UNL     1       6.519   4.698  13.852  0.00  0.00    +0.000 C 
ATOM     34  C   UNL     1       7.179   4.288  15.170  0.00  0.00    +0.000 C 
BRANCH  33  35
ATOM     35  O   UNL     1       7.046   3.981  12.741  0.00  0.00    +0.000 OA
ATOM     36  H   UNL     1       7.028   4.584  11.976  0.00  0.00    +0.000 HD
ENDBRANCH  33  35
ENDBRANCH  29  30
ENDBRANCH  10  29
TORSDOF 8
ENDMDL
MODEL 5
REMARK VINA RESULT:      -7.5      5.761      9.054
REMARK  Name = 
REMARK  11 active torsions:
REMARK  status: ('A' for Active; 'I' for Inactive)
REMARK    1  A    between atoms: C_1  and  C_2
REMARK    2  A    between atoms: C_2  and  O_3
REMARK    3  A    between atoms: O_3  and  C_4
REMARK    4  A    between atoms: C_4  and  C_5
REMARK    5  A    between atoms: C_6  and  C_7
REMARK    6  A    between atoms: C_11  and  C_12
REMARK    7  A    between atoms: C_14  and  O_15
REMARK    8  A    between atoms: O_15  and  C_16
REMARK    9  A    between atoms: C_26  and  C_27
REMARK   10  A    between atoms: C_27  and  N_28
REMARK   11  A    between atoms: C_31  and  O_32
REMARK                            x       y       z     vdW  Elec       q    Type
REMARK                         _______ _______ _______ _____ _____    ______ ____
ROOT
ATOM      1  C   UNL     1      -0.885  11.986  20.129  0.00  0.00    +0.000 A 
ATOM      2  C   UNL     1      -2.276  12.205  19.858  0.00  0.00    +0.000 A 
ATOM      3  C   UNL     1      -2.573  11.585  18.655  0.00  0.00    +0.000 A 
ATOM      4  C   UNL     1      -3.718  11.519  17.789  0.00  0.00    +0.000 A 
ATOM      5  N   UNL     1      -4.919  12.126  17.999  0.00  0.00    +0.000 N 
ATOM      6  N   UNL     1      -3.618  10.856  16.673  0.00  0.00    +0.000 NA
ATOM      7  C   UNL     1      -2.438  10.243  16.370  0.00  0.00    +0.000 A 
ATOM      8  N   UNL     1      -1.346  10.262  17.070  0.00  0.00    +0.000 NA
ATOM      9  N   UNL     1      -1.438  10.956  18.223  0.00  0.00    +0.000 N 
ATOM     10  C   UNL     1      -0.410  11.170  19.108  0.00  0.00    +0.000 A 
ATOM     11  H   UNL     1      -4.995  12.849  18.702  0.00  0.00    +0.000 HD
ATOM     12  H   UNL     1      -5.554  12.162  17.223  0.00  0.00    +0.000 HD
ENDROOT
BRANCH   2  13
ATOM     13  C   UNL     1      -3.226  12.974  20.723  0.00  0.00    +0.000 A 
ATOM     14  C   UNL     1      -4.340  12.446  21.333  0.00  0.00    +0.000 A 
ATOM     15  C   UNL     1      -5.043  13.397  22.145  0.00  0.00    +0.000 A 
ATOM     16  C   UNL     1      -6.194  13.236  22.945  0.00  0.00    +0.000 A 
ATOM     17  C   UNL     1      -6.680  14.308  23.704  0.00  0.00    +0.000 A 
ATOM     18  C   UNL     1      -7.915  14.135  24.541  0.00  0.00    +0.000 C 
ATOM     19  C   UNL     1      -6.008  15.535  23.686  0.00  0.00    +0.000 A 
ATOM     20  C   UNL     1      -4.866  15.731  22.896  0.00  0.00    +0.000 A 
ATOM     21  C   UNL     1      -4.422  14.647  22.118  0.00  0.00    +0.000 A 
ATOM     22  S   UNL     1      -3.102  14.642  21.017  0.00  0.00    +0.000 S 
BRANCH  20  23
ATOM     23  O   UNL     1      -4.131  16.881  22.825  0.00  0.00    +0.000 OA
ATOM     24  C   UNL     1      -4.700  18.001  22.169  0.00  0.00    +0.000 C 
ENDBRANCH  20  23
ENDBRANCH   2  13
BRANCH   1  25
ATOM     25  C   UNL     1      -0.087  12.456  21.305  0.00  0.00    +0.000 C 
BRANCH  25  26
ATOM     26  O   UNL     1       0.306  11.355  22.122  0.00  0.00    +0.000 OA
BRANCH  26  28
ATOM     27  C   UNL     1      -0.398   9.407  23.285  0.00  0.00    +0.000 C 
ATOM     28  C   UNL     1      -0.794  10.794  22.823  0.00  0.00    +0.000 C 
ENDBRANCH  26  28
ENDBRANCH  25  26
ENDBRANCH   1  25
BRANCH  10  29
ATOM     29  C   UNL     1       0.961  10.616  18.894  0.00  0.00    +0.000 C 
BRANCH  29  30
ATOM     30  N   UNL     1       0.977   9.142  18.870  0.00  0.00    +0.000 NA
ATOM     31  C   UNL     1       1.874   8.613  17.836  0.00  0.00    +0.000 C 
ATOM     32  C   UNL     1       2.358   7.274  18.362  0.00  0.00    +0.000 C 
ATOM     33  C   UNL     1       2.347   7.425  19.872  0.00  0.00    +0.000 C 
ATOM     34  C   UNL     1       1.409   8.598  20.164  0.00  0.00    +0.000 C 
BRANCH  33  35
ATOM     35  O   UNL     1       1.913   6.221  20.494  0.00  0.00    +0.000 OA
ATOM     36  H   UNL     1       2.524   6.041  21.230  0.00  0.00    +0.000 HD
ENDBRANCH  33  35
ENDBRANCH  29  30
ENDBRANCH  10  29
TORSDOF 8
ENDMDL
MODEL 6
REMARK VINA RESULT:      -7.4      5.857      9.283
REMARK  Name = 
REMARK  11 active torsions:
REMARK  status: ('A' for Active; 'I' for Inactive)
REMARK    1  A    between atoms: C_1  and  C_2
REMARK    2  A    between atoms: C_2  and  O_3
REMARK    3  A    between atoms: O_3  and  C_4
REMARK    4  A    between atoms: C_4  and  C_5
REMARK    5  A    between atoms: C_6  and  C_7
REMARK    6  A    between atoms: C_11  and  C_12
REMARK    7  A    between atoms: C_14  and  O_15
REMARK    8  A    between atoms: O_15  and  C_16
REMARK    9  A    between atoms: C_26  and  C_27
REMARK   10  A    between atoms: C_27  and  N_28
REMARK   11  A    between atoms: C_31  and  O_32
REMARK                            x       y       z     vdW  Elec       q    Type
REMARK                         _______ _______ _______ _____ _____    ______ ____
ROOT
ATOM      1  C   UNL     1      -0.751  12.156  20.095  0.00  0.00    +0.000 A 
ATOM      2  C   UNL     1      -2.154  12.415  19.947  0.00  0.00    +0.000 A 
ATOM      3  C   UNL     1      -2.576  11.796  18.782  0.00  0.00    +0.000 A 
ATOM      4  C   UNL     1      -3.795  11.759  18.022  0.00  0.00    +0.000 A 
ATOM      5  N   UNL     1      -4.954  12.403  18.333  0.00  0.00    +0.000 N 
ATOM      6  N   UNL     1      -3.815  11.084  16.908  0.00  0.00    +0.000 NA
ATOM      7  C   UNL     1      -2.686  10.433  16.507  0.00  0.00    +0.000 A 
ATOM      8  N   UNL     1      -1.535  10.425  17.107  0.00  0.00    +0.000 NA
ATOM      9  N   UNL     1      -1.503  11.130  18.255  0.00  0.00    +0.000 N 
ATOM     10  C   UNL     1      -0.393  11.319  19.043  0.00  0.00    +0.000 A 
ATOM     11  H   UNL     1      -4.945  13.133  19.032  0.00  0.00    +0.000 HD
ATOM     12  H   UNL     1      -5.655  12.453  17.616  0.00  0.00    +0.000 HD
ENDROOT
BRANCH   2  13
ATOM     13  C   UNL     1      -2.999  13.220  20.885  0.00  0.00    +0.000 A 
ATOM     14  C   UNL     1      -3.061  14.594  20.908  0.00  0.00    +0.000 A 
ATOM     15  C   UNL     1      -3.991  15.100  21.876  0.00  0.00    +0.000 A 
ATOM     16  C   UNL     1      -4.360  16.428  22.176  0.00  0.00    +0.000 A 
ATOM     17  C   UNL     1      -5.342  16.687  23.139  0.00  0.00    +0.000 A 
ATOM     18  C   UNL     1      -5.718  18.103  23.466  0.00  0.00    +0.000 C 
ATOM     19  C   UNL     1      -5.977  15.622  23.788  0.00  0.00    +0.000 A 
ATOM     20  C   UNL     1      -5.630  14.291  23.519  0.00  0.00    +0.000 A 
ATOM     21  C   UNL     1      -4.615  14.065  22.573  0.00  0.00    +0.000 A 
ATOM     22  S   UNL     1      -3.955  12.544  22.115  0.00  0.00    +0.000 S 
BRANCH  20  23
ATOM     23  O   UNL     1      -6.203  13.186  24.084  0.00  0.00    +0.000 OA
ATOM     24  C   UNL     1      -7.576  12.941  23.834  0.00  0.00    +0.000 C 
ENDBRANCH  20  23
ENDBRANCH   2  13
BRANCH   1  25
ATOM     25  C   UNL     1       0.163  12.611  21.189  0.00  0.00    +0.000 C 
BRANCH  25  26
ATOM     26  O   UNL     1       0.514  11.521  22.039  0.00  0.00    +0.000 OA
BRANCH  26  28
ATOM     27  C   UNL     1      -0.211   9.632  23.284  0.00  0.00    +0.000 C 
ATOM     28  C   UNL     1      -0.621  10.959  22.681  0.00  0.00    +0.000 C 
ENDBRANCH  26  28
ENDBRANCH  25  26
ENDBRANCH   1  25
BRANCH  10  29
ATOM     29  C   UNL     1       0.936  10.722  18.713  0.00  0.00    +0.000 C 
BRANCH  29  30
ATOM     30  N   UNL     1       0.928   9.250  18.792  0.00  0.00    +0.000 NA
ATOM     31  C   UNL     1       1.876   8.638  17.853  0.00  0.00    +0.000 C 
ATOM     32  C   UNL     1       2.306   7.334  18.499  0.00  0.00    +0.000 C 
ATOM     33  C   UNL     1       2.209   7.591  19.991  0.00  0.00    +0.000 C 
ATOM     34  C   UNL     1       1.275   8.792  20.144  0.00  0.00    +0.000 C 
BRANCH  33  35
ATOM     35  O   UNL     1       1.720   6.439  20.668  0.00  0.00    +0.000 OA
ATOM     36  H   UNL     1       1.850   6.588  21.621  0.00  0.00    +0.000 HD
ENDBRANCH  33  35
ENDBRANCH  29  30
ENDBRANCH  10  29
TORSDOF 8
ENDMDL
MODEL 7
REMARK VINA RESULT:      -7.3      4.615      9.797
REMARK  Name = 
REMARK  11 active torsions:
REMARK  status: ('A' for Active; 'I' for Inactive)
REMARK    1  A    between atoms: C_1  and  C_2
REMARK    2  A    between atoms: C_2  and  O_3
REMARK    3  A    between atoms: O_3  and  C_4
REMARK    4  A    between atoms: C_4  and  C_5
REMARK    5  A    between atoms: C_6  and  C_7
REMARK    6  A    between atoms: C_11  and  C_12
REMARK    7  A    between atoms: C_14  and  O_15
REMARK    8  A    between atoms: O_15  and  C_16
REMARK    9  A    between atoms: C_26  and  C_27
REMARK   10  A    between atoms: C_27  and  N_28
REMARK   11  A    between atoms: C_31  and  O_32
REMARK                            x       y       z     vdW  Elec       q    Type
REMARK                         _______ _______ _______ _____ _____    ______ ____
ROOT
ATOM      1  C   UNL     1      -0.744  10.548  18.851  0.00  0.00    +0.000 A 
ATOM      2  C   UNL     1       0.093   9.796  19.739  0.00  0.00    +0.000 A 
ATOM      3  C   UNL     1      -0.191  10.205  21.032  0.00  0.00    +0.000 A 
ATOM      4  C   UNL     1       0.352   9.940  22.336  0.00  0.00    +0.000 A 
ATOM      5  N   UNL     1       1.395   9.111  22.617  0.00  0.00    +0.000 N 
ATOM      6  N   UNL     1      -0.155  10.563  23.361  0.00  0.00    +0.000 NA
ATOM      7  C   UNL     1      -1.185  11.435  23.164  0.00  0.00    +0.000 A 
ATOM      8  N   UNL     1      -1.727  11.759  22.030  0.00  0.00    +0.000 NA
ATOM      9  N   UNL     1      -1.200  11.126  20.962  0.00  0.00    +0.000 N 
ATOM     10  C   UNL     1      -1.562  11.336  19.654  0.00  0.00    +0.000 A 
ATOM     11  H   UNL     1       1.992   8.790  21.867  0.00  0.00    +0.000 HD
ATOM     12  H   UNL     1       1.795   9.176  23.535  0.00  0.00    +0.000 HD
ENDROOT
BRANCH   2  13
ATOM     13  C   UNL     1       1.096   8.762  19.332  0.00  0.00    +0.000 A 
ATOM     14  C   UNL     1       1.923   8.856  18.237  0.00  0.00    +0.000 A 
ATOM     15  C   UNL     1       2.822   7.744  18.112  0.00  0.00    +0.000 A 
ATOM     16  C   UNL     1       3.830   7.492  17.158  0.00  0.00    +0.000 A 
ATOM     17  C   UNL     1       4.631   6.349  17.265  0.00  0.00    +0.000 A 
ATOM     18  C   UNL     1       5.692   6.077  16.238  0.00  0.00    +0.000 C 
ATOM     19  C   UNL     1       4.445   5.466  18.335  0.00  0.00    +0.000 A 
ATOM     20  C   UNL     1       3.447   5.683  19.295  0.00  0.00    +0.000 A 
ATOM     21  C   UNL     1       2.636   6.821  19.142  0.00  0.00    +0.000 A 
ATOM     22  S   UNL     1       1.305   7.278  20.130  0.00  0.00    +0.000 S 
BRANCH  20  23
ATOM     23  O   UNL     1       3.200   4.893  20.384  0.00  0.00    +0.000 OA
ATOM     24  C   UNL     1       2.671   3.597  20.165  0.00  0.00    +0.000 C 
ENDBRANCH  20  23
ENDBRANCH   2  13
BRANCH   1  25
ATOM     25  C   UNL     1      -0.810  10.473  17.357  0.00  0.00    +0.000 C 
BRANCH  25  26
ATOM     26  O   UNL     1      -2.078   9.979  16.931  0.00  0.00    +0.000 OA
BRANCH  26  28
ATOM     27  C   UNL     1      -3.038   9.850  14.762  0.00  0.00    +0.000 C 
ATOM     28  C   UNL     1      -2.637  10.772  15.895  0.00  0.00    +0.000 C 
ENDBRANCH  26  28
ENDBRANCH  25  26
ENDBRANCH   1  25
BRANCH  10  29
ATOM     29  C   UNL     1      -2.633  12.302  19.262  0.00  0.00    +0.000 C 
BRANCH  29  30
ATOM     30  N   UNL     1      -3.983  11.812  19.595  0.00  0.00    +0.000 NA
ATOM     31  C   UNL     1      -4.705  12.732  20.482  0.00  0.00    +0.000 C 
ATOM     32  C   UNL     1      -6.175  12.545  20.155  0.00  0.00    +0.000 C 
ATOM     33  C   UNL     1      -6.198  12.144  18.691  0.00  0.00    +0.000 C 
ATOM     34  C   UNL     1      -4.791  11.628  18.382  0.00  0.00    +0.000 C 
BRANCH  33  35
ATOM     35  O   UNL     1      -7.196  11.157  18.457  0.00  0.00    +0.000 OA
ATOM     36  H   UNL     1      -7.073  10.834  17.547  0.00  0.00    +0.000 HD
ENDBRANCH  33  35
ENDBRANCH  29  30
ENDBRANCH  10  29
TORSDOF 8
ENDMDL
MODEL 8
REMARK VINA RESULT:      -7.2      1.478      1.751
REMARK  Name = 
REMARK  11 active torsions:
REMARK  status: ('A' for Active; 'I' for Inactive)
REMARK    1  A    between atoms: C_1  and  C_2
REMARK    2  A    between atoms: C_2  and  O_3
REMARK    3  A    between atoms: O_3  and  C_4
REMARK    4  A    between atoms: C_4  and  C_5
REMARK    5  A    between atoms: C_6  and  C_7
REMARK    6  A    between atoms: C_11  and  C_12
REMARK    7  A    between atoms: C_14  and  O_15
REMARK    8  A    between atoms: O_15  and  C_16
REMARK    9  A    between atoms: C_26  and  C_27
REMARK   10  A    between atoms: C_27  and  N_28
REMARK   11  A    between atoms: C_31  and  O_32
REMARK                            x       y       z     vdW  Elec       q    Type
REMARK                         _______ _______ _______ _____ _____    ______ ____
ROOT
ATOM      1  C   UNL     1       4.718   6.056  18.260  0.00  0.00    +0.000 A 
ATOM      2  C   UNL     1       3.589   5.922  19.134  0.00  0.00    +0.000 A 
ATOM      3  C   UNL     1       3.603   4.633  19.644  0.00  0.00    +0.000 A 
ATOM      4  C   UNL     1       2.723   3.843  20.461  0.00  0.00    +0.000 A 
ATOM      5  N   UNL     1       1.535   4.250  20.986  0.00  0.00    +0.000 N 
ATOM      6  N   UNL     1       3.047   2.607  20.710  0.00  0.00    +0.000 NA
ATOM      7  C   UNL     1       4.208   2.109  20.196  0.00  0.00    +0.000 A 
ATOM      8  N   UNL     1       5.054   2.731  19.433  0.00  0.00    +0.000 NA
ATOM      9  N   UNL     1       4.720   4.009  19.161  0.00  0.00    +0.000 N 
ATOM     10  C   UNL     1       5.419   4.857  18.337  0.00  0.00    +0.000 A 
ATOM     11  H   UNL     1       1.100   5.095  20.639  0.00  0.00    +0.000 HD
ATOM     12  H   UNL     1       0.934   3.538  21.362  0.00  0.00    +0.000 HD
ENDROOT
BRANCH   2  13
ATOM     13  C   UNL     1       2.579   6.986  19.428  0.00  0.00    +0.000 A 
ATOM     14  C   UNL     1       2.213   7.399  20.689  0.00  0.00    +0.000 A 
ATOM     15  C   UNL     1       1.260   8.471  20.677  0.00  0.00    +0.000 A 
ATOM     16  C   UNL     1       0.675   9.179  21.748  0.00  0.00    +0.000 A 
ATOM     17  C   UNL     1      -0.205  10.239  21.495  0.00  0.00    +0.000 A 
ATOM     18  C   UNL     1      -0.837  10.979  22.637  0.00  0.00    +0.000 C 
ATOM     19  C   UNL     1      -0.484  10.610  20.175  0.00  0.00    +0.000 A 
ATOM     20  C   UNL     1       0.074   9.922  19.088  0.00  0.00    +0.000 A 
ATOM     21  C   UNL     1       0.926   8.841  19.374  0.00  0.00    +0.000 A 
ATOM     22  S   UNL     1       1.678   7.794  18.237  0.00  0.00    +0.000 S 
BRANCH  20  23
ATOM     23  O   UNL     1      -0.121  10.220  17.768  0.00  0.00    +0.000 OA
ATOM     24  C   UNL     1      -1.425  10.071  17.234  0.00  0.00    +0.000 C 
ENDBRANCH  20  23
ENDBRANCH   2  13
BRANCH   1  25
ATOM     25  C   UNL     1       5.138   7.255  17.470  0.00  0.00    +0.000 C 
BRANCH  25  26
ATOM     26  O   UNL     1       6.192   7.953  18.130  0.00  0.00    +0.000 OA
BRANCH  26  28
ATOM     27  C   UNL     1       8.320   8.993  17.946  0.00  0.00    +0.000 C 
ATOM     28  C   UNL     1       7.394   7.941  17.374  0.00  0.00    +0.000 C 
ENDBRANCH  26  28
ENDBRANCH  25  26
ENDBRANCH   1  25
BRANCH  10  29
ATOM     29  C   UNL     1       6.681   4.448  17.649  0.00  0.00    +0.000 C 
BRANCH  29  30
ATOM     30  N   UNL     1       6.442   3.940  16.286  0.00  0.00    +0.000 NA
ATOM     31  C   UNL     1       5.043   4.102  15.871  0.00  0.00    +0.000 C 
ATOM     32  C   UNL     1       5.081   4.260  14.362  0.00  0.00    +0.000 C 
ATOM     33  C   UNL     1       6.422   4.910  14.074  0.00  0.00    +0.000 C 
ATOM     34  C   UNL     1       7.285   4.638  15.307  0.00  0.00    +0.000 C 
BRANCH  33  35
ATOM     35  O   UNL     1       6.994   4.374  12.887  0.00  0.00    +0.000 OA
ATOM     36  H   UNL     1       6.836   3.414  12.900  0.00  0.00    +0.000 HD
ENDBRANCH  33  35
ENDBRANCH  29  30
ENDBRANCH  10  29
TORSDOF 8
ENDMDL
MODEL 9
REMARK VINA RESULT:      -7.1      5.367     10.429
REMARK  Name = 
REMARK  11 active torsions:
REMARK  status: ('A' for Active; 'I' for Inactive)
REMARK    1  A    between atoms: C_1  and  C_2
REMARK    2  A    between atoms: C_2  and  O_3
REMARK    3  A    between atoms: O_3  and  C_4
REMARK    4  A    between atoms: C_4  and  C_5
REMARK    5  A    between atoms: C_6  and  C_7
REMARK    6  A    between atoms: C_11  and  C_12
REMARK    7  A    between atoms: C_14  and  O_15
REMARK    8  A    between atoms: O_15  and  C_16
REMARK    9  A    between atoms: C_26  and  C_27
REMARK   10  A    between atoms: C_27  and  N_28
REMARK   11  A    between atoms: C_31  and  O_32
REMARK                            x       y       z     vdW  Elec       q    Type
REMARK                         _______ _______ _______ _____ _____    ______ ____
ROOT
ATOM      1  C   UNL     1      -1.790  10.888  18.725  0.00  0.00    +0.000 A 
ATOM      2  C   UNL     1      -0.491  10.781  19.324  0.00  0.00    +0.000 A 
ATOM      3  C   UNL     1      -0.309  11.891  20.133  0.00  0.00    +0.000 A 
ATOM      4  C   UNL     1       0.777  12.434  20.902  0.00  0.00    +0.000 A 
ATOM      5  N   UNL     1       2.023  11.896  21.022  0.00  0.00    +0.000 N 
ATOM      6  N   UNL     1       0.597  13.563  21.524  0.00  0.00    +0.000 NA
ATOM      7  C   UNL     1      -0.613  14.185  21.431  0.00  0.00    +0.000 A 
ATOM      8  N   UNL     1      -1.643  13.791  20.748  0.00  0.00    +0.000 NA
ATOM      9  N   UNL     1      -1.461  12.627  20.092  0.00  0.00    +0.000 N 
ATOM     10  C   UNL     1      -2.377  12.029  19.260  0.00  0.00    +0.000 A 
ATOM     11  H   UNL     1       2.314  11.168  20.383  0.00  0.00    +0.000 HD
ATOM     12  H   UNL     1       2.736  12.480  21.420  0.00  0.00    +0.000 HD
ENDROOT
BRANCH   2  13
ATOM     13  C   UNL     1       0.487   9.670  19.100  0.00  0.00    +0.000 A 
ATOM     14  C   UNL     1       1.356   9.587  18.037  0.00  0.00    +0.000 A 
ATOM     15  C   UNL     1       2.217   8.441  18.100  0.00  0.00    +0.000 A 
ATOM     16  C   UNL     1       3.249   8.030  17.231  0.00  0.00    +0.000 A 
ATOM     17  C   UNL     1       4.003   6.888  17.523  0.00  0.00    +0.000 A 
ATOM     18  C   UNL     1       5.089   6.445  16.586  0.00  0.00    +0.000 C 
ATOM     19  C   UNL     1       3.747   6.166  18.694  0.00  0.00    +0.000 A 
ATOM     20  C   UNL     1       2.724   6.542  19.575  0.00  0.00    +0.000 A 
ATOM     21  C   UNL     1       1.961   7.674  19.237  0.00  0.00    +0.000 A 
ATOM     22  S   UNL     1       0.613   8.303  20.100  0.00  0.00    +0.000 S 
BRANCH  20  23
ATOM     23  O   UNL     1       2.409   5.916  20.750  0.00  0.00    +0.000 OA
ATOM     24  C   UNL     1       1.633   4.733  20.690  0.00  0.00    +0.000 C 
ENDBRANCH  20  23
ENDBRANCH   2  13
BRANCH   1  25
ATOM     25  C   UNL     1      -2.449   9.940  17.772  0.00  0.00    +0.000 C 
BRANCH  25  26
ATOM     26  O   UNL     1      -2.087  10.242  16.426  0.00  0.00    +0.000 OA
BRANCH  26  28
ATOM     27  C   UNL     1      -3.337  10.104  14.411  0.00  0.00    +0.000 C 
ATOM     28  C   UNL     1      -3.152  10.854  15.714  0.00  0.00    +0.000 C 
ENDBRANCH  26  28
ENDBRANCH  25  26
ENDBRANCH   1  25
BRANCH  10  29
ATOM     29  C   UNL     1      -3.729  12.612  19.005  0.00  0.00    +0.000 C 
BRANCH  29  30
ATOM     30  N   UNL     1      -4.759  12.061  19.903  0.00  0.00    +0.000 NA
ATOM     31  C   UNL     1      -5.382  13.097  20.736  0.00  0.00    +0.000 C 
ATOM     32  C   UNL     1      -6.793  12.608  21.008  0.00  0.00    +0.000 C 
ATOM     33  C   UNL     1      -7.155  11.774  19.793  0.00  0.00    +0.000 C 
ATOM     34  C   UNL     1      -5.824  11.396  19.140  0.00  0.00    +0.000 C 
BRANCH  33  35
ATOM     35  O   UNL     1      -7.910  10.631  20.176  0.00  0.00    +0.000 OA
ATOM     36  H   UNL     1      -8.585  10.489  19.488  0.00  0.00    +0.000 HD
ENDBRANCH  33  35
ENDBRANCH  29  30
ENDBRANCH  10  29
TORSDOF 8
ENDMDL
