MODEL 1
REMARK VINA RESULT:      -7.4      0.000      0.000
REMARK  Name = 
REMARK  5 active torsions:
REMARK  status: ('A' for Active; 'I' for Inactive)
REMARK    1  A    between atoms: C_1  and  C_2
REMARK    2  A    between atoms: C_4  and  C_5
REMARK    3  A    between atoms: N_14  and  C_15
REMARK    4  A    between atoms: C_15  and  C_16
REMARK    5  A    between atoms: C_15  and  C_17
REMARK                            x       y       z     vdW  Elec       q    Type
REMARK                         _______ _______ _______ _____ _____    ______ ____
ROOT
ATOM      1  C   UNL     1      -3.758  11.567  18.510  0.00  0.00    +0.000 A 
ATOM      2  C   UNL     1      -3.358  10.530  17.659  0.00  0.00    +0.000 A 
ATOM      3  C   UNL     1      -2.040  10.065  17.650  0.00  0.00    +0.000 A 
ATOM      4  C   UNL     1      -1.070  10.604  18.474  0.00  0.00    +0.000 A 
ATOM      5  N   UNL     1       0.161  10.087  18.375  0.00  0.00    +0.000 NA
ATOM      6  C   UNL     1       1.159  10.575  19.148  0.00  0.00    +0.000 A 
ATOM      7  C   UNL     1       0.918  11.607  20.046  0.00  0.00    +0.000 A 
ATOM      8  N   UNL     1       1.785  12.217  20.898  0.00  0.00    +0.000 NA
ATOM      9  N   UNL     1       1.122  13.157  21.542  0.00  0.00    +0.000 NA
ATOM     10  N   UNL     1      -0.155  13.176  21.084  0.00  0.00    +0.000 N 
ATOM     11  C   UNL     1      -0.362  12.168  20.156  0.00  0.00    +0.000 A 
ATOM     12  C   UNL     1      -1.432  11.657  19.351  0.00  0.00    +0.000 A 
ATOM     13  C   UNL     1      -2.769  12.118  19.351  0.00  0.00    +0.000 A 
ENDROOT
BRANCH   1  17
ATOM     14  C   UNL     1      -7.896  13.019  20.971  0.00  0.00    +0.000 C 
ATOM     15  C   UNL     1      -7.151  12.787  19.692  0.00  0.00    +0.000 A 
ATOM     16  C   UNL     1      -5.837  12.323  19.712  0.00  0.00    +0.000 A 
ATOM     17  C   UNL     1      -5.154  12.073  18.514  0.00  0.00    +0.000 A 
ATOM     18  C   UNL     1      -5.856  12.330  17.327  0.00  0.00    +0.000 A 
ATOM     19  C   UNL     1      -7.157  12.807  17.391  0.00  0.00    +0.000 A 
ATOM     20  N   UNL     1      -7.817  13.033  18.543  0.00  0.00    +0.000 NA
ENDBRANCH   1  17
BRANCH  10  21
ATOM     21  C   UNL     1      -1.012  14.209  21.678  0.00  0.00    +0.000 C 
ATOM     22  C   UNL     1      -0.232  15.240  22.504  0.00  0.00    +0.000 C 
BRANCH  21  23
ATOM     23  C   UNL     1      -2.296  13.722  22.351  0.00  0.00    +0.000 A 
ATOM     24  C   UNL     1      -3.491  14.429  22.090  0.00  0.00    +0.000 A 
ATOM     25  C   UNL     1      -4.693  14.083  22.711  0.00  0.00    +0.000 A 
ATOM     26  C   UNL     1      -4.719  13.013  23.592  0.00  0.00    +0.000 A 
ATOM     27  F   UNL     1      -5.860  12.698  24.216  0.00  0.00    +0.000 F 
ATOM     28  C   UNL     1      -3.577  12.263  23.828  0.00  0.00    +0.000 A 
ATOM     29  C   UNL     1      -2.375  12.603  23.196  0.00  0.00    +0.000 A 
ENDBRANCH  21  23
ENDBRANCH  10  21
TORSDOF 3
ENDMDL
MODEL 2
REMARK VINA RESULT:      -7.3      2.717      5.422
REMARK  Name = 
REMARK  5 active torsions:
REMARK  status: ('A' for Active; 'I' for Inactive)
REMARK    1  A    between atoms: C_1  and  C_2
REMARK    2  A    between atoms: C_4  and  C_5
REMARK    3  A    between atoms: N_14  and  C_15
REMARK    4  A    between atoms: C_15  and  C_16
REMARK    5  A    between atoms: C_15  and  C_17
REMARK                            x       y       z     vdW  Elec       q    Type
REMARK                         _______ _______ _______ _____ _____    ______ ____
ROOT
ATOM      1  C   UNL     1      -4.866  11.399  18.610  0.00  0.00    +0.000 A 
ATOM      2  C   UNL     1      -6.244  11.152  18.610  0.00  0.00    +0.000 A 
ATOM      3  C   UNL     1      -7.074  11.668  19.609  0.00  0.00    +0.000 A 
ATOM      4  C   UNL     1      -6.581  12.441  20.643  0.00  0.00    +0.000 A 
ATOM      5  N   UNL     1      -7.466  12.874  21.548  0.00  0.00    +0.000 NA
ATOM      6  C   UNL     1      -7.048  13.630  22.590  0.00  0.00    +0.000 A 
ATOM      7  C   UNL     1      -5.705  13.962  22.728  0.00  0.00    +0.000 A 
ATOM      8  N   UNL     1      -5.105  14.705  23.696  0.00  0.00    +0.000 NA
ATOM      9  N   UNL     1      -3.814  14.738  23.435  0.00  0.00    +0.000 NA
ATOM     10  N   UNL     1      -3.578  13.993  22.327  0.00  0.00    +0.000 N 
ATOM     11  C   UNL     1      -4.762  13.508  21.797  0.00  0.00    +0.000 A 
ATOM     12  C   UNL     1      -5.191  12.715  20.682  0.00  0.00    +0.000 A 
ATOM     13  C   UNL     1      -4.360  12.188  19.665  0.00  0.00    +0.000 A 
ENDROOT
BRANCH   1  17
ATOM     14  C   UNL     1      -3.970  10.162  13.820  0.00  0.00    +0.000 C 
ATOM     15  C   UNL     1      -3.531  10.252  15.249  0.00  0.00    +0.000 A 
ATOM     16  C   UNL     1      -4.377  10.791  16.217  0.00  0.00    +0.000 A 
ATOM     17  C   UNL     1      -3.977  10.842  17.560  0.00  0.00    +0.000 A 
ATOM     18  C   UNL     1      -2.699  10.345  17.853  0.00  0.00    +0.000 A 
ATOM     19  C   UNL     1      -1.910   9.840  16.829  0.00  0.00    +0.000 A 
ATOM     20  N   UNL     1      -2.300   9.778  15.542  0.00  0.00    +0.000 NA
ENDBRANCH   1  17
BRANCH  10  21
ATOM     21  C   UNL     1      -2.167  13.895  21.934  0.00  0.00    +0.000 C 
ATOM     22  C   UNL     1      -1.822  14.741  20.701  0.00  0.00    +0.000 C 
BRANCH  21  23
ATOM     23  C   UNL     1      -1.565  12.489  21.907  0.00  0.00    +0.000 A 
ATOM     24  C   UNL     1      -1.599  11.730  23.098  0.00  0.00    +0.000 A 
ATOM     25  C   UNL     1      -1.019  10.462  23.170  0.00  0.00    +0.000 A 
ATOM     26  C   UNL     1      -0.408   9.929  22.046  0.00  0.00    +0.000 A 
ATOM     27  F   UNL     1       0.180   8.730  22.118  0.00  0.00    +0.000 F 
ATOM     28  C   UNL     1      -0.406  10.624  20.845  0.00  0.00    +0.000 A 
ATOM     29  C   UNL     1      -0.998  11.890  20.770  0.00  0.00    +0.000 A 
ENDBRANCH  21  23
ENDBRANCH  10  21
TORSDOF 3
ENDMDL
MODEL 3
REMARK VINA RESULT:      -7.3      2.664      5.302
REMARK  Name = 
REMARK  5 active torsions:
REMARK  status: ('A' for Active; 'I' for Inactive)
REMARK    1  A    between atoms: C_1  and  C_2
REMARK    2  A    between atoms: C_4  and  C_5
REMARK    3  A    between atoms: N_14  and  C_15
REMARK    4  A    between atoms: C_15  and  C_16
REMARK    5  A    between atoms: C_15  and  C_17
REMARK                            x       y       z     vdW  Elec       q    Type
REMARK                         _______ _______ _______ _____ _____    ______ ____
ROOT
ATOM      1  C   UNL     1      -4.543  11.567  18.762  0.00  0.00    +0.000 A 
ATOM      2  C   UNL     1      -5.939  11.460  18.792  0.00  0.00    +0.000 A 
ATOM      3  C   UNL     1      -6.689  12.045  19.815  0.00  0.00    +0.000 A 
ATOM      4  C   UNL     1      -6.096  12.750  20.845  0.00  0.00    +0.000 A 
ATOM      5  N   UNL     1      -6.912  13.260  21.776  0.00  0.00    +0.000 NA
ATOM      6  C   UNL     1      -6.396  13.956  22.815  0.00  0.00    +0.000 A 
ATOM      7  C   UNL     1      -5.023  14.149  22.925  0.00  0.00    +0.000 A 
ATOM      8  N   UNL     1      -4.329  14.815  23.885  0.00  0.00    +0.000 NA
ATOM      9  N   UNL     1      -3.047  14.721  23.594  0.00  0.00    +0.000 NA
ATOM     10  N   UNL     1      -2.913  13.969  22.472  0.00  0.00    +0.000 N 
ATOM     11  C   UNL     1      -4.153  13.613  21.966  0.00  0.00    +0.000 A 
ATOM     12  C   UNL     1      -4.685  12.882  20.854  0.00  0.00    +0.000 A 
ATOM     13  C   UNL     1      -3.936  12.286  19.812  0.00  0.00    +0.000 A 
ENDROOT
BRANCH   1  17
ATOM     14  C   UNL     1      -3.954  10.173  13.967  0.00  0.00    +0.000 C 
ATOM     15  C   UNL     1      -3.441  10.270  15.370  0.00  0.00    +0.000 A 
ATOM     16  C   UNL     1      -4.207  10.877  16.363  0.00  0.00    +0.000 A 
ATOM     17  C   UNL     1      -3.739  10.936  17.684  0.00  0.00    +0.000 A 
ATOM     18  C   UNL     1      -2.478  10.373  17.928  0.00  0.00    +0.000 A 
ATOM     19  C   UNL     1      -1.770   9.800  16.882  0.00  0.00    +0.000 A 
ATOM     20  N   UNL     1      -2.226   9.732  15.616  0.00  0.00    +0.000 NA
ENDBRANCH   1  17
BRANCH  10  21
ATOM     21  C   UNL     1      -1.529  13.734  22.045  0.00  0.00    +0.000 C 
ATOM     22  C   UNL     1      -1.141  14.525  20.788  0.00  0.00    +0.000 C 
BRANCH  21  23
ATOM     23  C   UNL     1      -1.061  12.278  22.027  0.00  0.00    +0.000 A 
ATOM     24  C   UNL     1      -0.450  11.792  20.850  0.00  0.00    +0.000 A 
ATOM     25  C   UNL     1      -0.050  10.459  20.735  0.00  0.00    +0.000 A 
ATOM     26  C   UNL     1      -0.242   9.597  21.802  0.00  0.00    +0.000 A 
ATOM     27  F   UNL     1       0.108   8.311  21.686  0.00  0.00    +0.000 F 
ATOM     28  C   UNL     1      -0.788  10.055  22.993  0.00  0.00    +0.000 A 
ATOM     29  C   UNL     1      -1.178  11.394  23.112  0.00  0.00    +0.000 A 
ENDBRANCH  21  23
ENDBRANCH  10  21
TORSDOF 3
ENDMDL
MODEL 4
REMARK VINA RESULT:      -7.3      2.756      5.489
REMARK  Name = 
REMARK  5 active torsions:
REMARK  status: ('A' for Active; 'I' for Inactive)
REMARK    1  A    between atoms: C_1  and  C_2
REMARK    2  A    between atoms: C_4  and  C_5
REMARK    3  A    between atoms: N_14  and  C_15
REMARK    4  A    between atoms: C_15  and  C_16
REMARK    5  A    between atoms: C_15  and  C_17
REMARK                            x       y       z     vdW  Elec       q    Type
REMARK                         _______ _______ _______ _____ _____    ______ ____
ROOT
ATOM      1  C   UNL     1      -5.139  11.582  18.902  0.00  0.00    +0.000 A 
ATOM      2  C   UNL     1      -6.465  11.130  18.918  0.00  0.00    +0.000 A 
ATOM      3  C   UNL     1      -7.358  11.537  19.913  0.00  0.00    +0.000 A 
ATOM      4  C   UNL     1      -6.981  12.397  20.927  0.00  0.00    +0.000 A 
ATOM      5  N   UNL     1      -7.916  12.712  21.830  0.00  0.00    +0.000 NA
ATOM      6  C   UNL     1      -7.611  13.544  22.853  0.00  0.00    +0.000 A 
ATOM      7  C   UNL     1      -6.332  14.076  22.974  0.00  0.00    +0.000 A 
ATOM      8  N   UNL     1      -5.847  14.922  23.921  0.00  0.00    +0.000 NA
ATOM      9  N   UNL     1      -4.576  15.143  23.649  0.00  0.00    +0.000 NA
ATOM     10  N   UNL     1      -4.236  14.418  22.554  0.00  0.00    +0.000 N 
ATOM     11  C   UNL     1      -5.337  13.749  22.044  0.00  0.00    +0.000 A 
ATOM     12  C   UNL     1      -5.647  12.878  20.949  0.00  0.00    +0.000 A 
ATOM     13  C   UNL     1      -4.752  12.459  19.936  0.00  0.00    +0.000 A 
ENDROOT
BRANCH   1  17
ATOM     14  C   UNL     1      -0.651   9.772  17.538  0.00  0.00    +0.000 C 
ATOM     15  C   UNL     1      -2.023  10.258  17.188  0.00  0.00    +0.000 A 
ATOM     16  C   UNL     1      -2.910  10.654  18.188  0.00  0.00    +0.000 A 
ATOM     17  C   UNL     1      -4.183  11.142  17.856  0.00  0.00    +0.000 A 
ATOM     18  C   UNL     1      -4.499  11.188  16.490  0.00  0.00    +0.000 A 
ATOM     19  C   UNL     1      -3.566  10.760  15.556  0.00  0.00    +0.000 A 
ATOM     20  N   UNL     1      -2.340  10.305  15.875  0.00  0.00    +0.000 NA
ENDBRANCH   1  17
BRANCH  10  21
ATOM     21  C   UNL     1      -2.828  14.524  22.152  0.00  0.00    +0.000 C 
ATOM     22  C   UNL     1      -2.606  15.489  20.979  0.00  0.00    +0.000 C 
BRANCH  21  23
ATOM     23  C   UNL     1      -2.057  13.210  22.025  0.00  0.00    +0.000 A 
ATOM     24  C   UNL     1      -2.116  12.300  23.104  0.00  0.00    +0.000 A 
ATOM     25  C   UNL     1      -1.393  11.105  23.090  0.00  0.00    +0.000 A 
ATOM     26  C   UNL     1      -0.610  10.798  21.989  0.00  0.00    +0.000 A 
ATOM     27  F   UNL     1       0.113   9.672  21.984  0.00  0.00    +0.000 F 
ATOM     28  C   UNL     1      -0.572  11.644  20.889  0.00  0.00    +0.000 A 
ATOM     29  C   UNL     1      -1.307  12.835  20.899  0.00  0.00    +0.000 A 
ENDBRANCH  21  23
ENDBRANCH  10  21
TORSDOF 3
ENDMDL
MODEL 5
REMARK VINA RESULT:      -7.2      2.659      5.274
REMARK  Name = 
REMARK  5 active torsions:
REMARK  status: ('A' for Active; 'I' for Inactive)
REMARK    1  A    between atoms: C_1  and  C_2
REMARK    2  A    between atoms: C_4  and  C_5
REMARK    3  A    between atoms: N_14  and  C_15
REMARK    4  A    between atoms: C_15  and  C_16
REMARK    5  A    between atoms: C_15  and  C_17
REMARK                            x       y       z     vdW  Elec       q    Type
REMARK                         _______ _______ _______ _____ _____    ______ ____
ROOT
ATOM      1  C   UNL     1      -4.607  11.950  19.325  0.00  0.00    +0.000 A 
ATOM      2  C   UNL     1      -5.998  11.887  19.473  0.00  0.00    +0.000 A 
ATOM      3  C   UNL     1      -6.632  12.424  20.596  0.00  0.00    +0.000 A 
ATOM      4  C   UNL     1      -5.925  13.038  21.612  0.00  0.00    +0.000 A 
ATOM      5  N   UNL     1      -6.637  13.509  22.644  0.00  0.00    +0.000 NA
ATOM      6  C   UNL     1      -6.005  14.114  23.676  0.00  0.00    +0.000 A 
ATOM      7  C   UNL     1      -4.622  14.254  23.675  0.00  0.00    +0.000 A 
ATOM      8  N   UNL     1      -3.822  14.830  24.611  0.00  0.00    +0.000 NA
ATOM      9  N   UNL     1      -2.575  14.713  24.201  0.00  0.00    +0.000 NA
ATOM     10  N   UNL     1      -2.568  14.037  23.025  0.00  0.00    +0.000 N 
ATOM     11  C   UNL     1      -3.860  13.757  22.609  0.00  0.00    +0.000 A 
ATOM     12  C   UNL     1      -4.515  13.122  21.504  0.00  0.00    +0.000 A 
ATOM     13  C   UNL     1      -3.883  12.575  20.362  0.00  0.00    +0.000 A 
ENDROOT
BRANCH   1  17
ATOM     14  C   UNL     1      -0.726   9.523  17.246  0.00  0.00    +0.000 C 
ATOM     15  C   UNL     1      -2.062  10.187  17.130  0.00  0.00    +0.000 A 
ATOM     16  C   UNL     1      -2.690  10.715  18.257  0.00  0.00    +0.000 A 
ATOM     17  C   UNL     1      -3.925  11.369  18.141  0.00  0.00    +0.000 A 
ATOM     18  C   UNL     1      -4.479  11.439  16.854  0.00  0.00    +0.000 A 
ATOM     19  C   UNL     1      -3.799  10.874  15.785  0.00  0.00    +0.000 A 
ATOM     20  N   UNL     1      -2.605  10.259  15.895  0.00  0.00    +0.000 NA
ENDBRANCH   1  17
BRANCH  10  21
ATOM     21  C   UNL     1      -1.236  13.787  22.460  0.00  0.00    +0.000 C 
ATOM     22  C   UNL     1      -0.873  14.745  21.318  0.00  0.00    +0.000 C 
BRANCH  21  23
ATOM     23  C   UNL     1      -0.882  12.326  22.177  0.00  0.00    +0.000 A 
ATOM     24  C   UNL     1      -1.156  11.370  23.182  0.00  0.00    +0.000 A 
ATOM     25  C   UNL     1      -0.809  10.027  23.023  0.00  0.00    +0.000 A 
ATOM     26  C   UNL     1      -0.195   9.618  21.850  0.00  0.00    +0.000 A 
ATOM     27  F   UNL     1       0.172   8.340  21.706  0.00  0.00    +0.000 F 
ATOM     28  C   UNL     1       0.039  10.520  20.822  0.00  0.00    +0.000 A 
ATOM     29  C   UNL     1      -0.321  11.863  20.976  0.00  0.00    +0.000 A 
ENDBRANCH  21  23
ENDBRANCH  10  21
TORSDOF 3
ENDMDL
MODEL 6
REMARK VINA RESULT:      -7.1      2.623      5.214
REMARK  Name = 
REMARK  5 active torsions:
REMARK  status: ('A' for Active; 'I' for Inactive)
REMARK    1  A    between atoms: C_1  and  C_2
REMARK    2  A    between atoms: C_4  and  C_5
REMARK    3  A    between atoms: N_14  and  C_15
REMARK    4  A    between atoms: C_15  and  C_16
REMARK    5  A    between atoms: C_15  and  C_17
REMARK                            x       y       z     vdW  Elec       q    Type
REMARK                         _______ _______ _______ _____ _____    ______ ____
ROOT
ATOM      1  C   UNL     1      -4.034  11.898  19.116  0.00  0.00    +0.000 A 
ATOM      2  C   UNL     1      -5.427  12.012  19.193  0.00  0.00    +0.000 A 
ATOM      3  C   UNL     1      -6.042  12.696  20.245  0.00  0.00    +0.000 A 
ATOM      4  C   UNL     1      -5.311  13.289  21.258  0.00  0.00    +0.000 A 
ATOM      5  N   UNL     1      -6.005  13.910  22.219  0.00  0.00    +0.000 NA
ATOM      6  C   UNL     1      -5.351  14.504  23.244  0.00  0.00    +0.000 A 
ATOM      7  C   UNL     1      -3.963  14.477  23.307  0.00  0.00    +0.000 A 
ATOM      8  N   UNL     1      -3.141  15.016  24.247  0.00  0.00    +0.000 NA
ATOM      9  N   UNL     1      -1.900  14.724  23.911  0.00  0.00    +0.000 NA
ATOM     10  N   UNL     1      -1.924  13.973  22.781  0.00  0.00    +0.000 N 
ATOM     11  C   UNL     1      -3.220  13.822  22.316  0.00  0.00    +0.000 A 
ATOM     12  C   UNL     1      -3.897  13.196  21.219  0.00  0.00    +0.000 A 
ATOM     13  C   UNL     1      -3.286  12.502  20.148  0.00  0.00    +0.000 A 
ENDROOT
BRANCH   1  17
ATOM     14  C   UNL     1      -3.949  10.293  14.351  0.00  0.00    +0.000 C 
ATOM     15  C   UNL     1      -3.320  10.391  15.707  0.00  0.00    +0.000 A 
ATOM     16  C   UNL     1      -3.949  11.099  16.729  0.00  0.00    +0.000 A 
ATOM     17  C   UNL     1      -3.376  11.160  18.008  0.00  0.00    +0.000 A 
ATOM     18  C   UNL     1      -2.154  10.494  18.179  0.00  0.00    +0.000 A 
ATOM     19  C   UNL     1      -1.584   9.824  17.106  0.00  0.00    +0.000 A 
ATOM     20  N   UNL     1      -2.142   9.754  15.883  0.00  0.00    +0.000 NA
ENDBRANCH   1  17
BRANCH  10  21
ATOM     21  C   UNL     1      -0.609  13.528  22.305  0.00  0.00    +0.000 C 
ATOM     22  C   UNL     1      -0.036  14.415  21.192  0.00  0.00    +0.000 C 
BRANCH  21  23
ATOM     23  C   UNL     1      -0.453  12.029  22.042  0.00  0.00    +0.000 A 
ATOM     24  C   UNL     1      -0.947  11.131  23.014  0.00  0.00    +0.000 A 
ATOM     25  C   UNL     1      -0.791   9.750  22.875  0.00  0.00    +0.000 A 
ATOM     26  C   UNL     1      -0.151   9.248  21.754  0.00  0.00    +0.000 A 
ATOM     27  F   UNL     1       0.033   7.928  21.632  0.00  0.00    +0.000 F 
ATOM     28  C   UNL     1       0.296  10.099  20.754  0.00  0.00    +0.000 A 
ATOM     29  C   UNL     1       0.129  11.482  20.887  0.00  0.00    +0.000 A 
ENDBRANCH  21  23
ENDBRANCH  10  21
TORSDOF 3
ENDMDL
MODEL 7
REMARK VINA RESULT:      -7.1      9.146     12.217
REMARK  Name = 
REMARK  5 active torsions:
REMARK  status: ('A' for Active; 'I' for Inactive)
REMARK    1  A    between atoms: C_1  and  C_2
REMARK    2  A    between atoms: C_4  and  C_5
REMARK    3  A    between atoms: N_14  and  C_15
REMARK    4  A    between atoms: C_15  and  C_16
REMARK    5  A    between atoms: C_15  and  C_17
REMARK                            x       y       z     vdW  Elec       q    Type
REMARK                         _______ _______ _______ _____ _____    ______ ____
ROOT
ATOM      1  C   UNL     1       9.122  12.583  21.135  0.00  0.00    +0.000 A 
ATOM      2  C   UNL     1       9.965  11.505  20.836  0.00  0.00    +0.000 A 
ATOM      3  C   UNL     1      10.859  11.559  19.764  0.00  0.00    +0.000 A 
ATOM      4  C   UNL     1      10.954  12.669  18.946  0.00  0.00    +0.000 A 
ATOM      5  N   UNL     1      11.839  12.607  17.944  0.00  0.00    +0.000 NA
ATOM      6  C   UNL     1      11.977  13.657  17.102  0.00  0.00    +0.000 A 
ATOM      7  C   UNL     1      11.208  14.803  17.269  0.00  0.00    +0.000 A 
ATOM      8  N   UNL     1      11.210  15.947  16.533  0.00  0.00    +0.000 NA
ATOM      9  N   UNL     1      10.302  16.754  17.043  0.00  0.00    +0.000 NA
ATOM     10  N   UNL     1       9.695  16.123  18.079  0.00  0.00    +0.000 N 
ATOM     11  C   UNL     1      10.269  14.883  18.306  0.00  0.00    +0.000 A 
ATOM     12  C   UNL     1      10.118  13.782  19.212  0.00  0.00    +0.000 A 
ATOM     13  C   UNL     1       9.217  13.717  20.301  0.00  0.00    +0.000 A 
ENDROOT
BRANCH   1  17
ATOM     14  C   UNL     1       5.217  14.474  23.675  0.00  0.00    +0.000 C 
ATOM     15  C   UNL     1       6.269  13.425  23.491  0.00  0.00    +0.000 A 
ATOM     16  C   UNL     1       7.153  13.490  22.416  0.00  0.00    +0.000 A 
ATOM     17  C   UNL     1       8.160  12.526  22.264  0.00  0.00    +0.000 A 
ATOM     18  C   UNL     1       8.206  11.510  23.231  0.00  0.00    +0.000 A 
ATOM     19  C   UNL     1       7.278  11.506  24.263  0.00  0.00    +0.000 A 
ATOM     20  N   UNL     1       6.320  12.440  24.415  0.00  0.00    +0.000 NA
ENDBRANCH   1  17
BRANCH  10  21
ATOM     21  C   UNL     1       8.619  16.884  18.726  0.00  0.00    +0.000 C 
ATOM     22  C   UNL     1       9.072  17.606  20.002  0.00  0.00    +0.000 C 
BRANCH  21  23
ATOM     23  C   UNL     1       7.272  16.175  18.861  0.00  0.00    +0.000 A 
ATOM     24  C   UNL     1       6.859  15.327  17.808  0.00  0.00    +0.000 A 
ATOM     25  C   UNL     1       5.617  14.690  17.830  0.00  0.00    +0.000 A 
ATOM     26  C   UNL     1       4.775  14.881  18.913  0.00  0.00    +0.000 A 
ATOM     27  F   UNL     1       3.569  14.301  18.924  0.00  0.00    +0.000 F 
ATOM     28  C   UNL     1       5.171  15.662  19.989  0.00  0.00    +0.000 A 
ATOM     29  C   UNL     1       6.421  16.291  19.973  0.00  0.00    +0.000 A 
ENDBRANCH  21  23
ENDBRANCH  10  21
TORSDOF 3
ENDMDL
MODEL 8
REMARK VINA RESULT:      -7.1      4.013      7.472
REMARK  Name = 
REMARK  5 active torsions:
REMARK  status: ('A' for Active; 'I' for Inactive)
REMARK    1  A    between atoms: C_1  and  C_2
REMARK    2  A    between atoms: C_4  and  C_5
REMARK    3  A    between atoms: N_14  and  C_15
REMARK    4  A    between atoms: C_15  and  C_16
REMARK    5  A    between atoms: C_15  and  C_17
REMARK                            x       y       z     vdW  Elec       q    Type
REMARK                         _______ _______ _______ _____ _____    ______ ____
ROOT
ATOM      1  C   UNL     1       0.739   9.217  20.763  0.00  0.00    +0.000 A 
ATOM      2  C   UNL     1       0.517   8.751  22.064  0.00  0.00    +0.000 A 
ATOM      3  C   UNL     1      -0.247   9.485  22.977  0.00  0.00    +0.000 A 
ATOM      4  C   UNL     1      -0.814  10.700  22.645  0.00  0.00    +0.000 A 
ATOM      5  N   UNL     1      -1.518  11.319  23.600  0.00  0.00    +0.000 NA
ATOM      6  C   UNL     1      -2.094  12.516  23.343  0.00  0.00    +0.000 A 
ATOM      7  C   UNL     1      -1.964  13.109  22.093  0.00  0.00    +0.000 A 
ATOM      8  N   UNL     1      -2.469  14.293  21.654  0.00  0.00    +0.000 NA
ATOM      9  N   UNL     1      -2.072  14.461  20.408  0.00  0.00    +0.000 NA
ATOM     10  N   UNL     1      -1.289  13.411  20.058  0.00  0.00    +0.000 N 
ATOM     11  C   UNL     1      -1.222  12.482  21.083  0.00  0.00    +0.000 A 
ATOM     12  C   UNL     1      -0.614  11.209  21.337  0.00  0.00    +0.000 A 
ATOM     13  C   UNL     1       0.161  10.457  20.422  0.00  0.00    +0.000 A 
ENDROOT
BRANCH   1  17
ATOM     14  C   UNL     1       3.474   5.173  19.561  0.00  0.00    +0.000 C 
ATOM     15  C   UNL     1       2.872   6.495  19.200  0.00  0.00    +0.000 A 
ATOM     16  C   UNL     1       2.094   7.194  20.121  0.00  0.00    +0.000 A 
ATOM     17  C   UNL     1       1.560   8.449  19.794  0.00  0.00    +0.000 A 
ATOM     18  C   UNL     1       1.841   8.932  18.507  0.00  0.00    +0.000 A 
ATOM     19  C   UNL     1       2.611   8.169  17.642  0.00  0.00    +0.000 A 
ATOM     20  N   UNL     1       3.135   6.970  17.963  0.00  0.00    +0.000 NA
ENDBRANCH   1  17
BRANCH  10  21
ATOM     21  C   UNL     1      -0.729  13.478  18.702  0.00  0.00    +0.000 C 
ATOM     22  C   UNL     1      -1.209  12.340  17.792  0.00  0.00    +0.000 C 
BRANCH  21  23
ATOM     23  C   UNL     1       0.771  13.761  18.600  0.00  0.00    +0.000 A 
ATOM     24  C   UNL     1       1.212  15.087  18.810  0.00  0.00    +0.000 A 
ATOM     25  C   UNL     1       2.557  15.437  18.677  0.00  0.00    +0.000 A 
ATOM     26  C   UNL     1       3.483  14.461  18.345  0.00  0.00    +0.000 A 
ATOM     27  F   UNL     1       4.768  14.796  18.182  0.00  0.00    +0.000 F 
ATOM     28  C   UNL     1       3.092  13.139  18.187  0.00  0.00    +0.000 A 
ATOM     29  C   UNL     1       1.746  12.787  18.332  0.00  0.00    +0.000 A 
ENDBRANCH  21  23
ENDBRANCH  10  21
TORSDOF 3
ENDMDL
MODEL 9
REMARK VINA RESULT:      -7.1      7.043     10.840
REMARK  Name = 
REMARK  5 active torsions:
REMARK  status: ('A' for Active; 'I' for Inactive)
REMARK    1  A    between atoms: C_1  and  C_2
REMARK    2  A    between atoms: C_4  and  C_5
REMARK    3  A    between atoms: N_14  and  C_15
REMARK    4  A    between atoms: C_15  and  C_16
REMARK    5  A    between atoms: C_15  and  C_17
REMARK                            x       y       z     vdW  Elec       q    Type
REMARK                         _______ _______ _______ _____ _____    ______ ____
ROOT
ATOM      1  C   UNL     1       1.764   6.787  19.504  0.00  0.00    +0.000 A 
ATOM      2  C   UNL     1       0.948   6.195  20.476  0.00  0.00    +0.000 A 
ATOM      3  C   UNL     1       0.966   4.815  20.696  0.00  0.00    +0.000 A 
ATOM      4  C   UNL     1       1.782   3.970  19.969  0.00  0.00    +0.000 A 
ATOM      5  N   UNL     1       1.711   2.665  20.259  0.00  0.00    +0.000 NA
ATOM      6  C   UNL     1       2.478   1.781  19.580  0.00  0.00    +0.000 A 
ATOM      7  C   UNL     1       3.343   2.217  18.582  0.00  0.00    +0.000 A 
ATOM      8  N   UNL     1       4.184   1.485  17.803  0.00  0.00    +0.000 NA
ATOM      9  N   UNL     1       4.793   2.316  16.980  0.00  0.00    +0.000 NA
ATOM     10  N   UNL     1       4.323   3.568  17.204  0.00  0.00    +0.000 N 
ATOM     11  C   UNL     1       3.423   3.577  18.257  0.00  0.00    +0.000 A 
ATOM     12  C   UNL     1       2.624   4.527  18.975  0.00  0.00    +0.000 A 
ATOM     13  C   UNL     1       2.598   5.925  18.761  0.00  0.00    +0.000 A 
ENDROOT
BRANCH   1  17
ATOM     14  C   UNL     1       0.495  11.452  20.883  0.00  0.00    +0.000 C 
ATOM     15  C   UNL     1       1.141  10.507  19.919  0.00  0.00    +0.000 A 
ATOM     16  C   UNL     1       1.164   9.138  20.177  0.00  0.00    +0.000 A 
ATOM     17  C   UNL     1       1.740   8.250  19.256  0.00  0.00    +0.000 A 
ATOM     18  C   UNL     1       2.290   8.819  18.098  0.00  0.00    +0.000 A 
ATOM     19  C   UNL     1       2.241  10.194  17.922  0.00  0.00    +0.000 A 
ATOM     20  N   UNL     1       1.676  11.044  18.800  0.00  0.00    +0.000 NA
ENDBRANCH   1  17
BRANCH  10  21
ATOM     21  C   UNL     1       4.878   4.605  16.325  0.00  0.00    +0.000 C 
ATOM     22  C   UNL     1       5.258   4.080  14.934  0.00  0.00    +0.000 C 
BRANCH  21  23
ATOM     23  C   UNL     1       5.926   5.531  16.944  0.00  0.00    +0.000 A 
ATOM     24  C   UNL     1       6.878   4.963  17.821  0.00  0.00    +0.000 A 
ATOM     25  C   UNL     1       7.830   5.750  18.471  0.00  0.00    +0.000 A 
ATOM     26  C   UNL     1       7.853   7.117  18.242  0.00  0.00    +0.000 A 
ATOM     27  F   UNL     1       8.740   7.881  18.889  0.00  0.00    +0.000 F 
ATOM     28  C   UNL     1       6.969   7.699  17.346  0.00  0.00    +0.000 A 
ATOM     29  C   UNL     1       6.022   6.908  16.685  0.00  0.00    +0.000 A 
ENDBRANCH  21  23
ENDBRANCH  10  21
TORSDOF 3
ENDMDL
