MODEL 1
REMARK VINA RESULT:      -7.6      0.000      0.000
REMARK  Name = 
REMARK  6 active torsions:
REMARK  status: ('A' for Active; 'I' for Inactive)
REMARK    1  A    between atoms: C_1  and  O_2
REMARK    2  A    between atoms: O_2  and  C_3
REMARK    3  A    between atoms: C_6  and  O_7
REMARK    4  A    between atoms: O_7  and  S_8
REMARK    5  A    between atoms: S_8  and  C_11
REMARK    6  A    between atoms: C_12  and  C_13
REMARK                            x       y       z     vdW  Elec       q    Type
REMARK                         _______ _______ _______ _____ _____    ______ ____
ROOT
ATOM      1  S   UNL     1       7.066   6.830  17.456  0.00  0.00    +0.000 S 
ATOM      2  O   UNL     1       7.258   6.200  18.746  0.00  0.00    +0.000 OA
ATOM      3  O   UNL     1       7.605   6.232  16.248  0.00  0.00    +0.000 OA
ENDROOT
BRANCH   1   4
ATOM      4  C   UNL     1       7.663   8.459  17.559  0.00  0.00    +0.000 C 
ATOM      5  C   UNL     1       8.553   8.771  18.513  0.00  0.00    +0.000 C 
BRANCH   5   6
ATOM      6  C   UNL     1       9.020  10.133  18.817  0.00  0.00    +0.000 A 
ATOM      7  C   UNL     1       9.558  10.381  20.088  0.00  0.00    +0.000 A 
ATOM      8  C   UNL     1       9.997  11.659  20.445  0.00  0.00    +0.000 A 
ATOM      9  C   UNL     1       9.915  12.702  19.527  0.00  0.00    +0.000 A 
ATOM     10  C   UNL     1       9.403  12.466  18.253  0.00  0.00    +0.000 A 
ATOM     11  C   UNL     1       8.962  11.187  17.898  0.00  0.00    +0.000 A 
ENDBRANCH   5   6
ENDBRANCH   1   4
BRANCH   1  12
ATOM     12  O   UNL     1       5.469   7.119  17.244  0.00  0.00    +0.000 OA
BRANCH  12  16
ATOM     13  C   UNL     1       2.565   4.127  17.596  0.00  0.00    +0.000 A 
ATOM     14  C   UNL     1       2.367   5.406  18.120  0.00  0.00    +0.000 A 
ATOM     15  C   UNL     1       3.347   6.395  17.975  0.00  0.00    +0.000 A 
ATOM     16  C   UNL     1       4.552   6.098  17.336  0.00  0.00    +0.000 A 
ATOM     17  C   UNL     1       4.747   4.822  16.808  0.00  0.00    +0.000 A 
ATOM     18  C   UNL     1       3.762   3.837  16.945  0.00  0.00    +0.000 A 
BRANCH  13  20
ATOM     19  C   UNL     1       1.175   3.026  19.159  0.00  0.00    +0.000 C 
ATOM     20  O   UNL     1       1.545   3.238  17.799  0.00  0.00    +0.000 OA
ENDBRANCH  13  20
ENDBRANCH  12  16
ENDBRANCH   1  12
TORSDOF 5
ENDMDL
MODEL 2
REMARK VINA RESULT:      -7.5      0.306      1.548
REMARK  Name = 
REMARK  6 active torsions:
REMARK  status: ('A' for Active; 'I' for Inactive)
REMARK    1  A    between atoms: C_1  and  O_2
REMARK    2  A    between atoms: O_2  and  C_3
REMARK    3  A    between atoms: C_6  and  O_7
REMARK    4  A    between atoms: O_7  and  S_8
REMARK    5  A    between atoms: S_8  and  C_11
REMARK    6  A    between atoms: C_12  and  C_13
REMARK                            x       y       z     vdW  Elec       q    Type
REMARK                         _______ _______ _______ _____ _____    ______ ____
ROOT
ATOM      1  S   UNL     1       7.037   6.733  17.414  0.00  0.00    +0.000 S 
ATOM      2  O   UNL     1       7.116   6.145  18.735  0.00  0.00    +0.000 OA
ATOM      3  O   UNL     1       7.657   6.086  16.273  0.00  0.00    +0.000 OA
ENDROOT
BRANCH   1   4
ATOM      4  C   UNL     1       7.656   8.355  17.511  0.00  0.00    +0.000 C 
ATOM      5  C   UNL     1       8.511   8.672  18.494  0.00  0.00    +0.000 C 
BRANCH   5   6
ATOM      6  C   UNL     1       8.987  10.032  18.791  0.00  0.00    +0.000 A 
ATOM      7  C   UNL     1       8.785  11.031  17.826  0.00  0.00    +0.000 A 
ATOM      8  C   UNL     1       9.235  12.336  18.040  0.00  0.00    +0.000 A 
ATOM      9  C   UNL     1       9.882  12.662  19.228  0.00  0.00    +0.000 A 
ATOM     10  C   UNL     1      10.071  11.686  20.205  0.00  0.00    +0.000 A 
ATOM     11  C   UNL     1       9.622  10.379  19.990  0.00  0.00    +0.000 A 
ENDBRANCH   5   6
ENDBRANCH   1   4
BRANCH   1  12
ATOM     12  O   UNL     1       5.467   7.041  17.068  0.00  0.00    +0.000 OA
BRANCH  12  16
ATOM     13  C   UNL     1       2.624   4.027  17.649  0.00  0.00    +0.000 A 
ATOM     14  C   UNL     1       3.743   3.832  16.837  0.00  0.00    +0.000 A 
ATOM     15  C   UNL     1       4.689   4.851  16.671  0.00  0.00    +0.000 A 
ATOM     16  C   UNL     1       4.500   6.089  17.289  0.00  0.00    +0.000 A 
ATOM     17  C   UNL     1       3.385   6.280  18.104  0.00  0.00    +0.000 A 
ATOM     18  C   UNL     1       2.446   5.257  18.277  0.00  0.00    +0.000 A 
BRANCH  13  20
ATOM     19  C   UNL     1       1.840   2.208  18.940  0.00  0.00    +0.000 C 
ATOM     20  O   UNL     1       1.763   2.968  17.736  0.00  0.00    +0.000 OA
ENDBRANCH  13  20
ENDBRANCH  12  16
ENDBRANCH   1  12
TORSDOF 5
ENDMDL
MODEL 3
REMARK VINA RESULT:      -7.4      4.456      5.992
REMARK  Name = 
REMARK  6 active torsions:
REMARK  status: ('A' for Active; 'I' for Inactive)
REMARK    1  A    between atoms: C_1  and  O_2
REMARK    2  A    between atoms: O_2  and  C_3
REMARK    3  A    between atoms: C_6  and  O_7
REMARK    4  A    between atoms: O_7  and  S_8
REMARK    5  A    between atoms: S_8  and  C_11
REMARK    6  A    between atoms: C_12  and  C_13
REMARK                            x       y       z     vdW  Elec       q    Type
REMARK                         _______ _______ _______ _____ _____    ______ ____
ROOT
ATOM      1  S   UNL     1       6.780   5.620  18.169  0.00  0.00    +0.000 S 
ATOM      2  O   UNL     1       7.670   6.748  18.356  0.00  0.00    +0.000 OA
ATOM      3  O   UNL     1       6.736   4.538  19.136  0.00  0.00    +0.000 OA
ENDROOT
BRANCH   1   4
ATOM      4  C   UNL     1       7.110   4.930  16.608  0.00  0.00    +0.000 C 
ATOM      5  C   UNL     1       6.409   5.350  15.545  0.00  0.00    +0.000 C 
BRANCH   5   6
ATOM      6  C   UNL     1       6.470   4.747  14.204  0.00  0.00    +0.000 A 
ATOM      7  C   UNL     1       5.445   3.868  13.824  0.00  0.00    +0.000 A 
ATOM      8  C   UNL     1       5.460   3.246  12.573  0.00  0.00    +0.000 A 
ATOM      9  C   UNL     1       6.495   3.508  11.680  0.00  0.00    +0.000 A 
ATOM     10  C   UNL     1       7.509   4.395  12.034  0.00  0.00    +0.000 A 
ATOM     11  C   UNL     1       7.495   5.015  13.288  0.00  0.00    +0.000 A 
ENDBRANCH   5   6
ENDBRANCH   1   4
BRANCH   1  12
ATOM     12  O   UNL     1       5.263   6.182  17.924  0.00  0.00    +0.000 OA
BRANCH  12  16
ATOM     13  C   UNL     1       1.934   4.125  19.408  0.00  0.00    +0.000 A 
ATOM     14  C   UNL     1       2.568   5.125  20.148  0.00  0.00    +0.000 A 
ATOM     15  C   UNL     1       3.670   5.810  19.623  0.00  0.00    +0.000 A 
ATOM     16  C   UNL     1       4.171   5.471  18.364  0.00  0.00    +0.000 A 
ATOM     17  C   UNL     1       3.534   4.475  17.624  0.00  0.00    +0.000 A 
ATOM     18  C   UNL     1       2.426   3.799  18.146  0.00  0.00    +0.000 A 
BRANCH  13  20
ATOM     19  C   UNL     1       1.181   2.773  21.195  0.00  0.00    +0.000 C 
ATOM     20  O   UNL     1       0.872   3.517  20.018  0.00  0.00    +0.000 OA
ENDBRANCH  13  20
ENDBRANCH  12  16
ENDBRANCH   1  12
TORSDOF 5
ENDMDL
MODEL 4
REMARK VINA RESULT:      -7.3      1.113      1.399
REMARK  Name = 
REMARK  6 active torsions:
REMARK  status: ('A' for Active; 'I' for Inactive)
REMARK    1  A    between atoms: C_1  and  O_2
REMARK    2  A    between atoms: O_2  and  C_3
REMARK    3  A    between atoms: C_6  and  O_7
REMARK    4  A    between atoms: O_7  and  S_8
REMARK    5  A    between atoms: S_8  and  C_11
REMARK    6  A    between atoms: C_12  and  C_13
REMARK                            x       y       z     vdW  Elec       q    Type
REMARK                         _______ _______ _______ _____ _____    ______ ____
ROOT
ATOM      1  S   UNL     1       7.338   6.097  17.631  0.00  0.00    +0.000 S 
ATOM      2  O   UNL     1       7.719   4.937  18.411  0.00  0.00    +0.000 OA
ATOM      3  O   UNL     1       7.635   6.171  16.212  0.00  0.00    +0.000 OA
ENDROOT
BRANCH   1   4
ATOM      4  C   UNL     1       8.019   7.503  18.394  0.00  0.00    +0.000 C 
ATOM      5  C   UNL     1       7.870   8.702  17.812  0.00  0.00    +0.000 C 
BRANCH   5   6
ATOM      6  C   UNL     1       8.523   9.942  18.258  0.00  0.00    +0.000 A 
ATOM      7  C   UNL     1       9.339   9.889  19.398  0.00  0.00    +0.000 A 
ATOM      8  C   UNL     1       9.967  11.039  19.885  0.00  0.00    +0.000 A 
ATOM      9  C   UNL     1       9.797  12.254  19.228  0.00  0.00    +0.000 A 
ATOM     10  C   UNL     1       9.007  12.318  18.082  0.00  0.00    +0.000 A 
ATOM     11  C   UNL     1       8.376  11.168  17.597  0.00  0.00    +0.000 A 
ENDBRANCH   5   6
ENDBRANCH   1   4
BRANCH   1  12
ATOM     12  O   UNL     1       5.743   6.386  17.861  0.00  0.00    +0.000 OA
BRANCH  12  16
ATOM     13  C   UNL     1       3.096   3.201  18.462  0.00  0.00    +0.000 A 
ATOM     14  C   UNL     1       3.484   3.601  17.181  0.00  0.00    +0.000 A 
ATOM     15  C   UNL     1       4.383   4.659  17.007  0.00  0.00    +0.000 A 
ATOM     16  C   UNL     1       4.873   5.352  18.115  0.00  0.00    +0.000 A 
ATOM     17  C   UNL     1       4.490   4.948  19.395  0.00  0.00    +0.000 A 
ATOM     18  C   UNL     1       3.598   3.883  19.567  0.00  0.00    +0.000 A 
BRANCH  13  20
ATOM     19  C   UNL     1       0.849   2.523  18.746  0.00  0.00    +0.000 C 
ATOM     20  O   UNL     1       2.209   2.161  18.516  0.00  0.00    +0.000 OA
ENDBRANCH  13  20
ENDBRANCH  12  16
ENDBRANCH   1  12
TORSDOF 5
ENDMDL
MODEL 5
REMARK VINA RESULT:      -7.3      0.424      1.154
REMARK  Name = 
REMARK  6 active torsions:
REMARK  status: ('A' for Active; 'I' for Inactive)
REMARK    1  A    between atoms: C_1  and  O_2
REMARK    2  A    between atoms: O_2  and  C_3
REMARK    3  A    between atoms: C_6  and  O_7
REMARK    4  A    between atoms: O_7  and  S_8
REMARK    5  A    between atoms: S_8  and  C_11
REMARK    6  A    between atoms: C_12  and  C_13
REMARK                            x       y       z     vdW  Elec       q    Type
REMARK                         _______ _______ _______ _____ _____    ______ ____
ROOT
ATOM      1  S   UNL     1       7.041   6.803  17.335  0.00  0.00    +0.000 S 
ATOM      2  O   UNL     1       7.055   6.228  18.665  0.00  0.00    +0.000 OA
ATOM      3  O   UNL     1       7.714   6.143  16.232  0.00  0.00    +0.000 OA
ENDROOT
BRANCH   1   4
ATOM      4  C   UNL     1       7.656   8.425  17.446  0.00  0.00    +0.000 C 
ATOM      5  C   UNL     1       8.492   8.742  18.446  0.00  0.00    +0.000 C 
BRANCH   5   6
ATOM      6  C   UNL     1       8.961  10.102  18.753  0.00  0.00    +0.000 A 
ATOM      7  C   UNL     1       9.590  10.323  19.987  0.00  0.00    +0.000 A 
ATOM      8  C   UNL     1      10.037  11.598  20.346  0.00  0.00    +0.000 A 
ATOM      9  C   UNL     1       9.871  12.665  19.468  0.00  0.00    +0.000 A 
ATOM     10  C   UNL     1       9.268  12.456  18.230  0.00  0.00    +0.000 A 
ATOM     11  C   UNL     1       8.819  11.180  17.871  0.00  0.00    +0.000 A 
ENDBRANCH   5   6
ENDBRANCH   1   4
BRANCH   1  12
ATOM     12  O   UNL     1       5.490   7.109  16.911  0.00  0.00    +0.000 OA
BRANCH  12  16
ATOM     13  C   UNL     1       2.503   4.378  17.975  0.00  0.00    +0.000 A 
ATOM     14  C   UNL     1       3.591   4.004  17.183  0.00  0.00    +0.000 A 
ATOM     15  C   UNL     1       4.585   4.932  16.854  0.00  0.00    +0.000 A 
ATOM     16  C   UNL     1       4.478   6.255  17.285  0.00  0.00    +0.000 A 
ATOM     17  C   UNL     1       3.395   6.627  18.081  0.00  0.00    +0.000 A 
ATOM     18  C   UNL     1       2.406   5.695  18.417  0.00  0.00    +0.000 A 
BRANCH  13  20
ATOM     19  C   UNL     1       2.121   2.077  18.361  0.00  0.00    +0.000 C 
ATOM     20  O   UNL     1       1.588   3.393  18.231  0.00  0.00    +0.000 OA
ENDBRANCH  13  20
ENDBRANCH  12  16
ENDBRANCH   1  12
TORSDOF 5
ENDMDL
MODEL 6
REMARK VINA RESULT:      -7.3      0.891      1.508
REMARK  Name = 
REMARK  6 active torsions:
REMARK  status: ('A' for Active; 'I' for Inactive)
REMARK    1  A    between atoms: C_1  and  O_2
REMARK    2  A    between atoms: O_2  and  C_3
REMARK    3  A    between atoms: C_6  and  O_7
REMARK    4  A    between atoms: O_7  and  S_8
REMARK    5  A    between atoms: S_8  and  C_11
REMARK    6  A    between atoms: C_12  and  C_13
REMARK                            x       y       z     vdW  Elec       q    Type
REMARK                         _______ _______ _______ _____ _____    ______ ____
ROOT
ATOM      1  S   UNL     1       7.019   6.586  17.322  0.00  0.00    +0.000 S 
ATOM      2  O   UNL     1       7.818   5.502  16.790  0.00  0.00    +0.000 OA
ATOM      3  O   UNL     1       6.166   7.379  16.455  0.00  0.00    +0.000 OA
ENDROOT
BRANCH   1   4
ATOM      4  C   UNL     1       8.083   7.672  18.165  0.00  0.00    +0.000 C 
ATOM      5  C   UNL     1       8.018   8.987  17.906  0.00  0.00    +0.000 C 
BRANCH   5   6
ATOM      6  C   UNL     1       8.957   9.995  18.422  0.00  0.00    +0.000 A 
ATOM      7  C   UNL     1       9.088  10.129  19.812  0.00  0.00    +0.000 A 
ATOM      8  C   UNL     1       9.945  11.085  20.363  0.00  0.00    +0.000 A 
ATOM      9  C   UNL     1      10.693  11.910  19.528  0.00  0.00    +0.000 A 
ATOM     10  C   UNL     1      10.590  11.774  18.146  0.00  0.00    +0.000 A 
ATOM     11  C   UNL     1       9.730  10.818  17.595  0.00  0.00    +0.000 A 
ENDBRANCH   5   6
ENDBRANCH   1   4
BRANCH   1  12
ATOM     12  O   UNL     1       6.131   6.020  18.575  0.00  0.00    +0.000 OA
BRANCH  12  16
ATOM     13  C   UNL     1       2.428   4.185  17.915  0.00  0.00    +0.000 A 
ATOM     14  C   UNL     1       3.626   3.472  17.828  0.00  0.00    +0.000 A 
ATOM     15  C   UNL     1       4.851   4.105  18.069  0.00  0.00    +0.000 A 
ATOM     16  C   UNL     1       4.889   5.469  18.363  0.00  0.00    +0.000 A 
ATOM     17  C   UNL     1       3.691   6.179  18.455  0.00  0.00    +0.000 A 
ATOM     18  C   UNL     1       2.467   5.543  18.224  0.00  0.00    +0.000 A 
BRANCH  13  20
ATOM     19  C   UNL     1       0.937   2.499  18.637  0.00  0.00    +0.000 C 
ATOM     20  O   UNL     1       1.292   3.470  17.655  0.00  0.00    +0.000 OA
ENDBRANCH  13  20
ENDBRANCH  12  16
ENDBRANCH   1  12
TORSDOF 5
ENDMDL
MODEL 7
REMARK VINA RESULT:      -7.2      4.764      7.456
REMARK  Name = 
REMARK  6 active torsions:
REMARK  status: ('A' for Active; 'I' for Inactive)
REMARK    1  A    between atoms: C_1  and  O_2
REMARK    2  A    between atoms: O_2  and  C_3
REMARK    3  A    between atoms: C_6  and  O_7
REMARK    4  A    between atoms: O_7  and  S_8
REMARK    5  A    between atoms: S_8  and  C_11
REMARK    6  A    between atoms: C_12  and  C_13
REMARK                            x       y       z     vdW  Elec       q    Type
REMARK                         _______ _______ _______ _____ _____    ______ ____
ROOT
ATOM      1  S   UNL     1       7.265   5.457  17.085  0.00  0.00    +0.000 S 
ATOM      2  O   UNL     1       7.934   4.172  17.043  0.00  0.00    +0.000 OA
ATOM      3  O   UNL     1       7.760   6.526  17.933  0.00  0.00    +0.000 OA
ENDROOT
BRANCH   1   4
ATOM      4  C   UNL     1       5.597   5.180  17.490  0.00  0.00    +0.000 C 
ATOM      5  C   UNL     1       5.228   3.981  17.964  0.00  0.00    +0.000 C 
BRANCH   5   6
ATOM      6  C   UNL     1       3.838   3.558  18.196  0.00  0.00    +0.000 A 
ATOM      7  C   UNL     1       2.807   4.363  17.689  0.00  0.00    +0.000 A 
ATOM      8  C   UNL     1       1.467   4.027  17.897  0.00  0.00    +0.000 A 
ATOM      9  C   UNL     1       1.142   2.873  18.604  0.00  0.00    +0.000 A 
ATOM     10  C   UNL     1       2.155   2.052  19.095  0.00  0.00    +0.000 A 
ATOM     11  C   UNL     1       3.497   2.390  18.888  0.00  0.00    +0.000 A 
ENDBRANCH   5   6
ENDBRANCH   1   4
BRANCH   1  12
ATOM     12  O   UNL     1       7.104   6.017  15.555  0.00  0.00    +0.000 OA
BRANCH  12  16
ATOM     13  C   UNL     1       5.984   3.396  12.491  0.00  0.00    +0.000 A 
ATOM     14  C   UNL     1       5.151   3.645  13.584  0.00  0.00    +0.000 A 
ATOM     15  C   UNL     1       5.542   4.538  14.588  0.00  0.00    +0.000 A 
ATOM     16  C   UNL     1       6.789   5.162  14.525  0.00  0.00    +0.000 A 
ATOM     17  C   UNL     1       7.618   4.917  13.430  0.00  0.00    +0.000 A 
ATOM     18  C   UNL     1       7.222   4.032  12.422  0.00  0.00    +0.000 A 
BRANCH  13  20
ATOM     19  C   UNL     1       6.406   1.461  11.201  0.00  0.00    +0.000 C 
ATOM     20  O   UNL     1       5.506   2.503  11.572  0.00  0.00    +0.000 OA
ENDBRANCH  13  20
ENDBRANCH  12  16
ENDBRANCH   1  12
TORSDOF 5
ENDMDL
MODEL 8
REMARK VINA RESULT:      -7.2      4.396      5.851
REMARK  Name = 
REMARK  6 active torsions:
REMARK  status: ('A' for Active; 'I' for Inactive)
REMARK    1  A    between atoms: C_1  and  O_2
REMARK    2  A    between atoms: O_2  and  C_3
REMARK    3  A    between atoms: C_6  and  O_7
REMARK    4  A    between atoms: O_7  and  S_8
REMARK    5  A    between atoms: S_8  and  C_11
REMARK    6  A    between atoms: C_12  and  C_13
REMARK                            x       y       z     vdW  Elec       q    Type
REMARK                         _______ _______ _______ _____ _____    ______ ____
ROOT
ATOM      1  S   UNL     1       7.417   5.746  18.484  0.00  0.00    +0.000 S 
ATOM      2  O   UNL     1       7.792   7.074  18.043  0.00  0.00    +0.000 OA
ATOM      3  O   UNL     1       8.341   4.925  19.244  0.00  0.00    +0.000 OA
ENDROOT
BRANCH   1   4
ATOM      4  C   UNL     1       6.917   4.838  17.088  0.00  0.00    +0.000 C 
ATOM      5  C   UNL     1       7.259   5.274  15.867  0.00  0.00    +0.000 C 
BRANCH   5   6
ATOM      6  C   UNL     1       6.776   4.700  14.601  0.00  0.00    +0.000 A 
ATOM      7  C   UNL     1       7.578   4.842  13.459  0.00  0.00    +0.000 A 
ATOM      8  C   UNL     1       7.163   4.339  12.224  0.00  0.00    +0.000 A 
ATOM      9  C   UNL     1       5.944   3.675  12.118  0.00  0.00    +0.000 A 
ATOM     10  C   UNL     1       5.147   3.507  13.248  0.00  0.00    +0.000 A 
ATOM     11  C   UNL     1       5.562   4.013  14.484  0.00  0.00    +0.000 A 
ENDBRANCH   5   6
ENDBRANCH   1   4
BRANCH   1  12
ATOM     12  O   UNL     1       5.996   5.842  19.292  0.00  0.00    +0.000 OA
BRANCH  12  16
ATOM     13  C   UNL     1       2.686   3.576  18.099  0.00  0.00    +0.000 A 
ATOM     14  C   UNL     1       2.796   4.933  17.788  0.00  0.00    +0.000 A 
ATOM     15  C   UNL     1       3.921   5.666  18.185  0.00  0.00    +0.000 A 
ATOM     16  C   UNL     1       4.929   5.053  18.931  0.00  0.00    +0.000 A 
ATOM     17  C   UNL     1       4.821   3.696  19.236  0.00  0.00    +0.000 A 
ATOM     18  C   UNL     1       3.700   2.962  18.830  0.00  0.00    +0.000 A 
BRANCH  13  20
ATOM     19  C   UNL     1       0.792   2.283  18.673  0.00  0.00    +0.000 C 
ATOM     20  O   UNL     1       1.544   2.960  17.668  0.00  0.00    +0.000 OA
ENDBRANCH  13  20
ENDBRANCH  12  16
ENDBRANCH   1  12
TORSDOF 5
ENDMDL
MODEL 9
REMARK VINA RESULT:      -7.2      4.135      5.200
REMARK  Name = 
REMARK  6 active torsions:
REMARK  status: ('A' for Active; 'I' for Inactive)
REMARK    1  A    between atoms: C_1  and  O_2
REMARK    2  A    between atoms: O_2  and  C_3
REMARK    3  A    between atoms: C_6  and  O_7
REMARK    4  A    between atoms: O_7  and  S_8
REMARK    5  A    between atoms: S_8  and  C_11
REMARK    6  A    between atoms: C_12  and  C_13
REMARK                            x       y       z     vdW  Elec       q    Type
REMARK                         _______ _______ _______ _____ _____    ______ ____
ROOT
ATOM      1  S   UNL     1       5.846   6.201  16.594  0.00  0.00    +0.000 S 
ATOM      2  O   UNL     1       7.142   6.811  16.812  0.00  0.00    +0.000 OA
ATOM      3  O   UNL     1       5.187   6.293  15.305  0.00  0.00    +0.000 OA
ENDROOT
BRANCH   1   4
ATOM      4  C   UNL     1       4.754   6.816  17.799  0.00  0.00    +0.000 C 
ATOM      5  C   UNL     1       3.552   7.274  17.422  0.00  0.00    +0.000 C 
BRANCH   5   6
ATOM      6  C   UNL     1       2.597   7.963  18.304  0.00  0.00    +0.000 A 
ATOM      7  C   UNL     1       1.961   9.116  17.821  0.00  0.00    +0.000 A 
ATOM      8  C   UNL     1       1.062   9.828  18.620  0.00  0.00    +0.000 A 
ATOM      9  C   UNL     1       0.779   9.386  19.909  0.00  0.00    +0.000 A 
ATOM     10  C   UNL     1       1.386   8.230  20.395  0.00  0.00    +0.000 A 
ATOM     11  C   UNL     1       2.288   7.519  19.596  0.00  0.00    +0.000 A 
ENDBRANCH   5   6
ENDBRANCH   1   4
BRANCH   1  12
ATOM     12  O   UNL     1       5.922   4.629  17.046  0.00  0.00    +0.000 OA
BRANCH  12  16
ATOM     13  C   UNL     1       2.702   2.779  18.975  0.00  0.00    +0.000 A 
ATOM     14  C   UNL     1       3.854   3.156  19.669  0.00  0.00    +0.000 A 
ATOM     15  C   UNL     1       4.911   3.788  19.004  0.00  0.00    +0.000 A 
ATOM     16  C   UNL     1       4.839   4.013  17.628  0.00  0.00    +0.000 A 
ATOM     17  C   UNL     1       3.685   3.641  16.937  0.00  0.00    +0.000 A 
ATOM     18  C   UNL     1       2.626   3.018  17.605  0.00  0.00    +0.000 A 
BRANCH  13  20
ATOM     19  C   UNL     1       1.496   2.731  21.008  0.00  0.00    +0.000 C 
ATOM     20  O   UNL     1       1.735   2.164  19.722  0.00  0.00    +0.000 OA
ENDBRANCH  13  20
ENDBRANCH  12  16
ENDBRANCH   1  12
TORSDOF 5
ENDMDL
