MODEL 1
REMARK VINA RESULT:      -8.0      0.000      0.000
REMARK  Name = 
REMARK  4 active torsions:
REMARK  status: ('A' for Active; 'I' for Inactive)
REMARK    1  A    between atoms: C_2  and  C_11
REMARK    2  A    between atoms: N_3  and  C_4
REMARK    3  A    between atoms: C_15  and  S_16
REMARK    4  A    between atoms: S_16  and  N_19
REMARK                            x       y       z     vdW  Elec       q    Type
REMARK                         _______ _______ _______ _____ _____    ______ ____
ROOT
ATOM      1  C   UNL     1       2.318   7.280  19.112  0.00  0.00    +0.000 A 
ATOM      2  C   UNL     1       2.134   8.090  17.981  0.00  0.00    +0.000 A 
ATOM      3  C   UNL     1       1.394   9.272  18.080  0.00  0.00    +0.000 A 
ATOM      4  C   UNL     1       0.858   9.664  19.308  0.00  0.00    +0.000 A 
ATOM      5  C   UNL     1       1.075   8.878  20.443  0.00  0.00    +0.000 A 
ATOM      6  C   UNL     1       1.779   7.673  20.345  0.00  0.00    +0.000 A 
ENDROOT
BRANCH   1   8
ATOM      7  O   UNL     1       2.613   4.945  19.187  0.00  0.00    +0.000 OA
ATOM      8  C   UNL     1       3.148   6.041  19.066  0.00  0.00    +0.000 C 
ATOM      9  N   UNL     1       4.511   6.204  18.903  0.00  0.00    +0.000 N 
ATOM     10  H   UNL     1       4.820   7.077  18.486  0.00  0.00    +0.000 HD
BRANCH   9  11
ATOM     11  C   UNL     1       5.422   5.058  18.881  0.00  0.00    +0.000 C 
ATOM     12  C   UNL     1       6.852   5.450  19.301  0.00  0.00    +0.000 C 
ATOM     13  C   UNL     1       7.413   6.257  18.141  0.00  0.00    +0.000 C 
ATOM     14  S   UNL     1       6.906   5.341  16.701  0.00  0.00    +0.000 S 
ATOM     15  O   UNL     1       7.942   4.381  16.380  0.00  0.00    +0.000 OA
ATOM     16  O   UNL     1       6.369   6.263  15.722  0.00  0.00    +0.000 OA
ATOM     17  C   UNL     1       5.549   4.467  17.473  0.00  0.00    +0.000 C 
ENDBRANCH   9  11
ENDBRANCH   1   8
BRANCH   5  18
ATOM     18  S   UNL     1       0.357   9.360  22.009  0.00  0.00    +0.000 S 
ATOM     19  O   UNL     1      -0.735   8.449  22.271  0.00  0.00    +0.000 OA
ATOM     20  O   UNL     1       1.445   9.489  22.954  0.00  0.00    +0.000 OA
BRANCH  18  21
ATOM     21  N   UNL     1      -0.302  10.914  21.717  0.00  0.00    +0.000 NA
ATOM     22  C   UNL     1      -1.330  11.357  22.697  0.00  0.00    +0.000 C 
ATOM     23  C   UNL     1      -1.983  12.671  22.280  0.00  0.00    +0.000 C 
ATOM     24  C   UNL     1      -0.937  13.740  22.008  0.00  0.00    +0.000 C 
ATOM     25  C   UNL     1      -0.005  13.256  20.907  0.00  0.00    +0.000 C 
ATOM     26  C   UNL     1       0.675  11.947  21.294  0.00  0.00    +0.000 C 
ENDBRANCH  18  21
ENDBRANCH   5  18
TORSDOF 4
ENDMDL
MODEL 2
REMARK VINA RESULT:      -8.0      2.966      3.579
REMARK  Name = 
REMARK  4 active torsions:
REMARK  status: ('A' for Active; 'I' for Inactive)
REMARK    1  A    between atoms: C_2  and  C_11
REMARK    2  A    between atoms: N_3  and  C_4
REMARK    3  A    between atoms: C_15  and  S_16
REMARK    4  A    between atoms: S_16  and  N_19
REMARK                            x       y       z     vdW  Elec       q    Type
REMARK                         _______ _______ _______ _____ _____    ______ ____
ROOT
ATOM      1  C   UNL     1       1.952   8.213  19.185  0.00  0.00    +0.000 A 
ATOM      2  C   UNL     1       1.776   7.533  20.399  0.00  0.00    +0.000 A 
ATOM      3  C   UNL     1       0.908   8.043  21.369  0.00  0.00    +0.000 A 
ATOM      4  C   UNL     1       0.194   9.218  21.122  0.00  0.00    +0.000 A 
ATOM      5  C   UNL     1       0.338   9.874  19.897  0.00  0.00    +0.000 A 
ATOM      6  C   UNL     1       1.236   9.392  18.938  0.00  0.00    +0.000 A 
ENDROOT
BRANCH   1   8
ATOM      7  O   UNL     1       3.031   8.346  17.096  0.00  0.00    +0.000 OA
ATOM      8  C   UNL     1       2.823   7.675  18.100  0.00  0.00    +0.000 C 
ATOM      9  N   UNL     1       3.347   6.409  18.285  0.00  0.00    +0.000 N 
ATOM     10  H   UNL     1       3.408   6.076  19.243  0.00  0.00    +0.000 HD
BRANCH   9  11
ATOM     11  C   UNL     1       4.184   5.770  17.268  0.00  0.00    +0.000 C 
ATOM     12  C   UNL     1       4.174   4.235  17.394  0.00  0.00    +0.000 C 
ATOM     13  C   UNL     1       4.986   3.920  18.641  0.00  0.00    +0.000 C 
ATOM     14  S   UNL     1       6.396   5.001  18.514  0.00  0.00    +0.000 S 
ATOM     15  O   UNL     1       7.445   4.303  17.799  0.00  0.00    +0.000 OA
ATOM     16  O   UNL     1       6.618   5.637  19.795  0.00  0.00    +0.000 OA
ATOM     17  C   UNL     1       5.652   6.190  17.403  0.00  0.00    +0.000 C 
ENDBRANCH   9  11
ENDBRANCH   1   8
BRANCH   5  18
ATOM     18  S   UNL     1      -0.548  11.398  19.595  0.00  0.00    +0.000 S 
ATOM     19  O   UNL     1      -0.994  11.890  20.879  0.00  0.00    +0.000 OA
ATOM     20  O   UNL     1       0.292  12.218  18.749  0.00  0.00    +0.000 OA
BRANCH  18  21
ATOM     21  N   UNL     1      -1.927  10.921  18.697  0.00  0.00    +0.000 NA
ATOM     22  C   UNL     1      -3.109  11.814  18.834  0.00  0.00    +0.000 C 
ATOM     23  C   UNL     1      -4.339  11.237  18.141  0.00  0.00    +0.000 C 
ATOM     24  C   UNL     1      -4.038  10.886  16.693  0.00  0.00    +0.000 C 
ATOM     25  C   UNL     1      -2.904   9.874  16.653  0.00  0.00    +0.000 C 
ATOM     26  C   UNL     1      -1.650  10.420  17.328  0.00  0.00    +0.000 C 
ENDBRANCH  18  21
ENDBRANCH   5  18
TORSDOF 4
ENDMDL
MODEL 3
REMARK VINA RESULT:      -7.9      2.587      8.631
REMARK  Name = 
REMARK  4 active torsions:
REMARK  status: ('A' for Active; 'I' for Inactive)
REMARK    1  A    between atoms: C_2  and  C_11
REMARK    2  A    between atoms: N_3  and  C_4
REMARK    3  A    between atoms: C_15  and  S_16
REMARK    4  A    between atoms: S_16  and  N_19
REMARK                            x       y       z     vdW  Elec       q    Type
REMARK                         _______ _______ _______ _____ _____    ______ ____
ROOT
ATOM      1  C   UNL     1       2.380   7.135  19.022  0.00  0.00    +0.000 A 
ATOM      2  C   UNL     1       1.504   6.586  19.970  0.00  0.00    +0.000 A 
ATOM      3  C   UNL     1       1.847   5.410  20.643  0.00  0.00    +0.000 A 
ATOM      4  C   UNL     1       3.074   4.792  20.394  0.00  0.00    +0.000 A 
ATOM      5  C   UNL     1       3.965   5.360  19.479  0.00  0.00    +0.000 A 
ATOM      6  C   UNL     1       3.612   6.514  18.771  0.00  0.00    +0.000 A 
ENDROOT
BRANCH   1   8
ATOM      7  O   UNL     1       2.635   8.677  17.261  0.00  0.00    +0.000 OA
ATOM      8  C   UNL     1       2.080   8.418  18.322  0.00  0.00    +0.000 C 
ATOM      9  N   UNL     1       1.184   9.273  18.936  0.00  0.00    +0.000 N 
ATOM     10  H   UNL     1       0.540   8.857  19.602  0.00  0.00    +0.000 HD
BRANCH   9  11
ATOM     11  C   UNL     1       0.846  10.574  18.355  0.00  0.00    +0.000 C 
ATOM     12  C   UNL     1       1.729  11.703  18.917  0.00  0.00    +0.000 C 
ATOM     13  C   UNL     1       1.257  11.921  20.346  0.00  0.00    +0.000 C 
ATOM     14  S   UNL     1      -0.518  11.878  20.218  0.00  0.00    +0.000 S 
ATOM     15  O   UNL     1      -0.993  13.226  19.982  0.00  0.00    +0.000 OA
ATOM     16  O   UNL     1      -1.047  11.042  21.275  0.00  0.00    +0.000 OA
ATOM     17  C   UNL     1      -0.599  10.975  18.675  0.00  0.00    +0.000 C 
ENDBRANCH   9  11
ENDBRANCH   1   8
BRANCH   5  18
ATOM     18  S   UNL     1       5.521   4.548  19.131  0.00  0.00    +0.000 S 
ATOM     19  O   UNL     1       6.555   5.316  19.788  0.00  0.00    +0.000 OA
ATOM     20  O   UNL     1       5.346   3.144  19.436  0.00  0.00    +0.000 OA
BRANCH  18  21
ATOM     21  N   UNL     1       5.722   4.719  17.438  0.00  0.00    +0.000 NA
ATOM     22  C   UNL     1       7.133   4.694  16.965  0.00  0.00    +0.000 C 
ATOM     23  C   UNL     1       7.238   5.014  15.478  0.00  0.00    +0.000 C 
ATOM     24  C   UNL     1       6.331   4.111  14.657  0.00  0.00    +0.000 C 
ATOM     25  C   UNL     1       4.895   4.295  15.122  0.00  0.00    +0.000 C 
ATOM     26  C   UNL     1       4.747   3.973  16.605  0.00  0.00    +0.000 C 
ENDBRANCH  18  21
ENDBRANCH   5  18
TORSDOF 4
ENDMDL
MODEL 4
REMARK VINA RESULT:      -7.9      3.176      4.295
REMARK  Name = 
REMARK  4 active torsions:
REMARK  status: ('A' for Active; 'I' for Inactive)
REMARK    1  A    between atoms: C_2  and  C_11
REMARK    2  A    between atoms: N_3  and  C_4
REMARK    3  A    between atoms: C_15  and  S_16
REMARK    4  A    between atoms: S_16  and  N_19
REMARK                            x       y       z     vdW  Elec       q    Type
REMARK                         _______ _______ _______ _____ _____    ______ ____
ROOT
ATOM      1  C   UNL     1       1.849   8.077  19.573  0.00  0.00    +0.000 A 
ATOM      2  C   UNL     1       1.506   7.685  20.876  0.00  0.00    +0.000 A 
ATOM      3  C   UNL     1       0.766   8.544  21.693  0.00  0.00    +0.000 A 
ATOM      4  C   UNL     1       0.342   9.782  21.208  0.00  0.00    +0.000 A 
ATOM      5  C   UNL     1       0.648  10.156  19.897  0.00  0.00    +0.000 A 
ATOM      6  C   UNL     1       1.424   9.320  19.086  0.00  0.00    +0.000 A 
ENDROOT
BRANCH   1   8
ATOM      7  O   UNL     1       3.220   7.641  17.709  0.00  0.00    +0.000 OA
ATOM      8  C   UNL     1       2.588   7.170  18.647  0.00  0.00    +0.000 C 
ATOM      9  N   UNL     1       2.501   5.812  18.896  0.00  0.00    +0.000 N 
ATOM     10  H   UNL     1       2.257   5.537  19.842  0.00  0.00    +0.000 HD
BRANCH   9  11
ATOM     11  C   UNL     1       3.157   4.832  18.028  0.00  0.00    +0.000 C 
ATOM     12  C   UNL     1       2.149   3.847  17.406  0.00  0.00    +0.000 C 
ATOM     13  C   UNL     1       1.706   2.940  18.544  0.00  0.00    +0.000 C 
ATOM     14  S   UNL     1       3.220   2.563  19.401  0.00  0.00    +0.000 S 
ATOM     15  O   UNL     1       3.787   1.363  18.823  0.00  0.00    +0.000 OA
ATOM     16  O   UNL     1       3.005   2.714  20.825  0.00  0.00    +0.000 OA
ATOM     17  C   UNL     1       4.155   3.969  18.809  0.00  0.00    +0.000 C 
ENDBRANCH   9  11
ENDBRANCH   1   8
BRANCH   5  18
ATOM     18  S   UNL     1       0.139  11.758  19.286  0.00  0.00    +0.000 S 
ATOM     19  O   UNL     1      -0.206  12.560  20.439  0.00  0.00    +0.000 OA
ATOM     20  O   UNL     1       1.158  12.205  18.361  0.00  0.00    +0.000 OA
BRANCH  18  21
ATOM     21  N   UNL     1      -1.298  11.444  18.407  0.00  0.00    +0.000 NA
ATOM     22  C   UNL     1      -1.321  10.146  17.681  0.00  0.00    +0.000 C 
ATOM     23  C   UNL     1      -2.556  10.013  16.796  0.00  0.00    +0.000 C 
ATOM     24  C   UNL     1      -3.829  10.260  17.590  0.00  0.00    +0.000 C 
ATOM     25  C   UNL     1      -3.776  11.656  18.192  0.00  0.00    +0.000 C 
ATOM     26  C   UNL     1      -2.557  11.823  19.094  0.00  0.00    +0.000 C 
ENDBRANCH  18  21
ENDBRANCH   5  18
TORSDOF 4
ENDMDL
MODEL 5
REMARK VINA RESULT:      -7.9      2.030      2.767
REMARK  Name = 
REMARK  4 active torsions:
REMARK  status: ('A' for Active; 'I' for Inactive)
REMARK    1  A    between atoms: C_2  and  C_11
REMARK    2  A    between atoms: N_3  and  C_4
REMARK    3  A    between atoms: C_15  and  S_16
REMARK    4  A    between atoms: S_16  and  N_19
REMARK                            x       y       z     vdW  Elec       q    Type
REMARK                         _______ _______ _______ _____ _____    ______ ____
ROOT
ATOM      1  C   UNL     1       2.267   7.994  18.524  0.00  0.00    +0.000 A 
ATOM      2  C   UNL     1       1.713   8.840  17.551  0.00  0.00    +0.000 A 
ATOM      3  C   UNL     1       0.745   9.782  17.911  0.00  0.00    +0.000 A 
ATOM      4  C   UNL     1       0.343   9.901  19.243  0.00  0.00    +0.000 A 
ATOM      5  C   UNL     1       0.923   9.087  20.219  0.00  0.00    +0.000 A 
ATOM      6  C   UNL     1       1.863   8.114  19.861  0.00  0.00    +0.000 A 
ENDROOT
BRANCH   1   8
ATOM      7  O   UNL     1       4.265   7.348  17.459  0.00  0.00    +0.000 OA
ATOM      8  C   UNL     1       3.343   7.015  18.196  0.00  0.00    +0.000 C 
ATOM      9  N   UNL     1       3.229   5.749  18.740  0.00  0.00    +0.000 N 
ATOM     10  H   UNL     1       2.654   5.661  19.572  0.00  0.00    +0.000 HD
BRANCH   9  11
ATOM     11  C   UNL     1       4.210   4.701  18.453  0.00  0.00    +0.000 C 
ATOM     12  C   UNL     1       3.973   4.050  17.077  0.00  0.00    +0.000 C 
ATOM     13  C   UNL     1       2.718   3.204  17.234  0.00  0.00    +0.000 C 
ATOM     14  S   UNL     1       2.945   2.396  18.804  0.00  0.00    +0.000 S 
ATOM     15  O   UNL     1       3.623   1.137  18.578  0.00  0.00    +0.000 OA
ATOM     16  O   UNL     1       1.717   2.492  19.565  0.00  0.00    +0.000 OA
ATOM     17  C   UNL     1       4.128   3.560  19.473  0.00  0.00    +0.000 C 
ENDBRANCH   9  11
ENDBRANCH   1   8
BRANCH   5  18
ATOM     18  S   UNL     1       0.383   9.213  21.920  0.00  0.00    +0.000 S 
ATOM     19  O   UNL     1      -0.595   8.169  22.131  0.00  0.00    +0.000 OA
ATOM     20  O   UNL     1       1.572   9.280  22.740  0.00  0.00    +0.000 OA
BRANCH  18  21
ATOM     21  N   UNL     1      -0.423  10.723  22.001  0.00  0.00    +0.000 NA
ATOM     22  C   UNL     1      -1.341  10.886  23.160  0.00  0.00    +0.000 C 
ATOM     23  C   UNL     1      -2.139  12.184  23.074  0.00  0.00    +0.000 C 
ATOM     24  C   UNL     1      -1.221  13.380  22.882  0.00  0.00    +0.000 C 
ATOM     25  C   UNL     1      -0.412  13.188  21.609  0.00  0.00    +0.000 C 
ATOM     26  C   UNL     1       0.409  11.904  21.663  0.00  0.00    +0.000 C 
ENDBRANCH  18  21
ENDBRANCH   5  18
TORSDOF 4
ENDMDL
MODEL 6
REMARK VINA RESULT:      -7.9      3.418      4.534
REMARK  Name = 
REMARK  4 active torsions:
REMARK  status: ('A' for Active; 'I' for Inactive)
REMARK    1  A    between atoms: C_2  and  C_11
REMARK    2  A    between atoms: N_3  and  C_4
REMARK    3  A    between atoms: C_15  and  S_16
REMARK    4  A    between atoms: S_16  and  N_19
REMARK                            x       y       z     vdW  Elec       q    Type
REMARK                         _______ _______ _______ _____ _____    ______ ____
ROOT
ATOM      1  C   UNL     1       1.205   8.835  20.076  0.00  0.00    +0.000 A 
ATOM      2  C   UNL     1       1.041   8.509  21.431  0.00  0.00    +0.000 A 
ATOM      3  C   UNL     1       0.224   9.297  22.247  0.00  0.00    +0.000 A 
ATOM      4  C   UNL     1      -0.452  10.395  21.711  0.00  0.00    +0.000 A 
ATOM      5  C   UNL     1      -0.322  10.696  20.353  0.00  0.00    +0.000 A 
ATOM      6  C   UNL     1       0.526   9.937  19.539  0.00  0.00    +0.000 A 
ENDROOT
BRANCH   1   8
ATOM      7  O   UNL     1       2.384   8.441  18.077  0.00  0.00    +0.000 OA
ATOM      8  C   UNL     1       2.020   7.990  19.156  0.00  0.00    +0.000 C 
ATOM      9  N   UNL     1       2.312   6.705  19.577  0.00  0.00    +0.000 N 
ATOM     10  H   UNL     1       2.272   6.533  20.577  0.00  0.00    +0.000 HD
BRANCH   9  11
ATOM     11  C   UNL     1       3.074   5.779  18.737  0.00  0.00    +0.000 C 
ATOM     12  C   UNL     1       2.155   4.866  17.904  0.00  0.00    +0.000 C 
ATOM     13  C   UNL     1       1.545   3.886  18.894  0.00  0.00    +0.000 C 
ATOM     14  S   UNL     1       2.918   3.412  19.925  0.00  0.00    +0.000 S 
ATOM     15  O   UNL     1       3.549   2.247  19.341  0.00  0.00    +0.000 OA
ATOM     16  O   UNL     1       2.504   3.460  21.311  0.00  0.00    +0.000 OA
ATOM     17  C   UNL     1       3.942   4.839  19.581  0.00  0.00    +0.000 C 
ENDBRANCH   9  11
ENDBRANCH   1   8
BRANCH   5  18
ATOM     18  S   UNL     1      -1.158  12.124  19.674  0.00  0.00    +0.000 S 
ATOM     19  O   UNL     1      -1.779  12.817  20.781  0.00  0.00    +0.000 OA
ATOM     20  O   UNL     1      -0.208  12.808  18.823  0.00  0.00    +0.000 OA
BRANCH  18  21
ATOM     21  N   UNL     1      -2.398  11.467  18.691  0.00  0.00    +0.000 NA
ATOM     22  C   UNL     1      -3.766  11.979  18.975  0.00  0.00    +0.000 C 
ATOM     23  C   UNL     1      -4.829  11.231  18.177  0.00  0.00    +0.000 C 
ATOM     24  C   UNL     1      -4.501  11.232  16.692  0.00  0.00    +0.000 C 
ATOM     25  C   UNL     1      -3.145  10.577  16.482  0.00  0.00    +0.000 C 
ATOM     26  C   UNL     1      -2.052  11.306  17.258  0.00  0.00    +0.000 C 
ENDBRANCH  18  21
ENDBRANCH   5  18
TORSDOF 4
ENDMDL
MODEL 7
REMARK VINA RESULT:      -7.9      2.393      8.345
REMARK  Name = 
REMARK  4 active torsions:
REMARK  status: ('A' for Active; 'I' for Inactive)
REMARK    1  A    between atoms: C_2  and  C_11
REMARK    2  A    between atoms: N_3  and  C_4
REMARK    3  A    between atoms: C_15  and  S_16
REMARK    4  A    between atoms: S_16  and  N_19
REMARK                            x       y       z     vdW  Elec       q    Type
REMARK                         _______ _______ _______ _____ _____    ______ ____
ROOT
ATOM      1  C   UNL     1       2.058   7.419  19.107  0.00  0.00    +0.000 A 
ATOM      2  C   UNL     1       1.556   7.086  20.375  0.00  0.00    +0.000 A 
ATOM      3  C   UNL     1       1.874   5.853  20.951  0.00  0.00    +0.000 A 
ATOM      4  C   UNL     1       2.712   4.960  20.281  0.00  0.00    +0.000 A 
ATOM      5  C   UNL     1       3.244   5.308  19.036  0.00  0.00    +0.000 A 
ATOM      6  C   UNL     1       2.898   6.522  18.434  0.00  0.00    +0.000 A 
ENDROOT
BRANCH   1   8
ATOM      7  O   UNL     1       2.362   9.053  17.439  0.00  0.00    +0.000 OA
ATOM      8  C   UNL     1       1.792   8.746  18.479  0.00  0.00    +0.000 C 
ATOM      9  N   UNL     1       0.908   9.584  19.133  0.00  0.00    +0.000 N 
ATOM     10  H   UNL     1       0.249   9.145  19.769  0.00  0.00    +0.000 HD
BRANCH   9  11
ATOM     11  C   UNL     1       0.603  10.923  18.624  0.00  0.00    +0.000 C 
ATOM     12  C   UNL     1       1.556  11.988  19.197  0.00  0.00    +0.000 C 
ATOM     13  C   UNL     1       1.153  12.160  20.653  0.00  0.00    +0.000 C 
ATOM     14  S   UNL     1      -0.627  12.197  20.599  0.00  0.00    +0.000 S 
ATOM     15  O   UNL     1      -1.052  13.572  20.442  0.00  0.00    +0.000 OA
ATOM     16  O   UNL     1      -1.147  11.336  21.640  0.00  0.00    +0.000 OA
ATOM     17  C   UNL     1      -0.809  11.369  19.023  0.00  0.00    +0.000 C 
ENDBRANCH   9  11
ENDBRANCH   1   8
BRANCH   5  18
ATOM     18  S   UNL     1       4.286   4.148  18.159  0.00  0.00    +0.000 S 
ATOM     19  O   UNL     1       4.453   2.996  19.017  0.00  0.00    +0.000 OA
ATOM     20  O   UNL     1       3.732   3.998  16.831  0.00  0.00    +0.000 OA
BRANCH  18  21
ATOM     21  N   UNL     1       5.799   4.944  18.034  0.00  0.00    +0.000 NA
ATOM     22  C   UNL     1       5.906   5.923  16.919  0.00  0.00    +0.000 C 
ATOM     23  C   UNL     1       7.325   6.464  16.774  0.00  0.00    +0.000 C 
ATOM     24  C   UNL     1       7.835   7.022  18.093  0.00  0.00    +0.000 C 
ATOM     25  C   UNL     1       7.810   5.922  19.142  0.00  0.00    +0.000 C 
ATOM     26  C   UNL     1       6.403   5.362  19.323  0.00  0.00    +0.000 C 
ENDBRANCH  18  21
ENDBRANCH   5  18
TORSDOF 4
ENDMDL
MODEL 8
REMARK VINA RESULT:      -7.8      0.942      1.256
REMARK  Name = 
REMARK  4 active torsions:
REMARK  status: ('A' for Active; 'I' for Inactive)
REMARK    1  A    between atoms: C_2  and  C_11
REMARK    2  A    between atoms: N_3  and  C_4
REMARK    3  A    between atoms: C_15  and  S_16
REMARK    4  A    between atoms: S_16  and  N_19
REMARK                            x       y       z     vdW  Elec       q    Type
REMARK                         _______ _______ _______ _____ _____    ______ ____
ROOT
ATOM      1  C   UNL     1       2.145   7.552  18.773  0.00  0.00    +0.000 A 
ATOM      2  C   UNL     1       2.251   8.571  17.814  0.00  0.00    +0.000 A 
ATOM      3  C   UNL     1       1.745   9.845  18.089  0.00  0.00    +0.000 A 
ATOM      4  C   UNL     1       1.155  10.115  19.325  0.00  0.00    +0.000 A 
ATOM      5  C   UNL     1       1.085   9.111  20.294  0.00  0.00    +0.000 A 
ATOM      6  C   UNL     1       1.552   7.822  20.013  0.00  0.00    +0.000 A 
ENDROOT
BRANCH   1   8
ATOM      7  O   UNL     1       2.168   5.210  19.021  0.00  0.00    +0.000 OA
ATOM      8  C   UNL     1       2.722   6.195  18.545  0.00  0.00    +0.000 C 
ATOM      9  N   UNL     1       3.889   6.124  17.807  0.00  0.00    +0.000 N 
ATOM     10  H   UNL     1       4.086   6.906  17.189  0.00  0.00    +0.000 HD
BRANCH   9  11
ATOM     11  C   UNL     1       4.559   4.847  17.556  0.00  0.00    +0.000 C 
ATOM     12  C   UNL     1       5.416   4.400  18.755  0.00  0.00    +0.000 C 
ATOM     13  C   UNL     1       6.618   5.332  18.771  0.00  0.00    +0.000 C 
ATOM     14  S   UNL     1       7.098   5.436  17.059  0.00  0.00    +0.000 S 
ATOM     15  O   UNL     1       8.062   4.390  16.789  0.00  0.00    +0.000 OA
ATOM     16  O   UNL     1       7.340   6.823  16.722  0.00  0.00    +0.000 OA
ATOM     17  C   UNL     1       5.523   4.942  16.367  0.00  0.00    +0.000 C 
ENDBRANCH   9  11
ENDBRANCH   1   8
BRANCH   5  18
ATOM     18  S   UNL     1       0.296   9.444  21.865  0.00  0.00    +0.000 S 
ATOM     19  O   UNL     1      -0.736   8.447  22.039  0.00  0.00    +0.000 OA
ATOM     20  O   UNL     1       1.348   9.589  22.848  0.00  0.00    +0.000 OA
BRANCH  18  21
ATOM     21  N   UNL     1      -0.463  10.965  21.647  0.00  0.00    +0.000 NA
ATOM     22  C   UNL     1      -1.326  11.072  20.440  0.00  0.00    +0.000 C 
ATOM     23  C   UNL     1      -1.832  12.496  20.229  0.00  0.00    +0.000 C 
ATOM     24  C   UNL     1      -2.511  13.027  21.482  0.00  0.00    +0.000 C 
ATOM     25  C   UNL     1      -1.520  13.000  22.634  0.00  0.00    +0.000 C 
ATOM     26  C   UNL     1      -0.999  11.588  22.883  0.00  0.00    +0.000 C 
ENDBRANCH  18  21
ENDBRANCH   5  18
TORSDOF 4
ENDMDL
MODEL 9
REMARK VINA RESULT:      -7.7      2.773      8.518
REMARK  Name = 
REMARK  4 active torsions:
REMARK  status: ('A' for Active; 'I' for Inactive)
REMARK    1  A    between atoms: C_2  and  C_11
REMARK    2  A    between atoms: N_3  and  C_4
REMARK    3  A    between atoms: C_15  and  S_16
REMARK    4  A    between atoms: S_16  and  N_19
REMARK                            x       y       z     vdW  Elec       q    Type
REMARK                         _______ _______ _______ _____ _____    ______ ____
ROOT
ATOM      1  C   UNL     1       2.095   7.131  18.981  0.00  0.00    +0.000 A 
ATOM      2  C   UNL     1       1.908   6.987  20.364  0.00  0.00    +0.000 A 
ATOM      3  C   UNL     1       2.131   5.750  20.976  0.00  0.00    +0.000 A 
ATOM      4  C   UNL     1       2.565   4.661  20.218  0.00  0.00    +0.000 A 
ATOM      5  C   UNL     1       2.791   4.814  18.848  0.00  0.00    +0.000 A 
ATOM      6  C   UNL     1       2.530   6.037  18.220  0.00  0.00    +0.000 A 
ENDROOT
BRANCH   1   8
ATOM      7  O   UNL     1       2.536   8.675  17.259  0.00  0.00    +0.000 OA
ATOM      8  C   UNL     1       1.925   8.445  18.296  0.00  0.00    +0.000 C 
ATOM      9  N   UNL     1       1.079   9.360  18.894  0.00  0.00    +0.000 N 
ATOM     10  H   UNL     1       0.380   8.987  19.530  0.00  0.00    +0.000 HD
BRANCH   9  11
ATOM     11  C   UNL     1       0.868  10.693  18.326  0.00  0.00    +0.000 C 
ATOM     12  C   UNL     1       1.791  11.746  18.967  0.00  0.00    +0.000 C 
ATOM     13  C   UNL     1       1.249  11.966  20.371  0.00  0.00    +0.000 C 
ATOM     14  S   UNL     1      -0.514  12.052  20.137  0.00  0.00    +0.000 S 
ATOM     15  O   UNL     1      -0.879  13.435  19.907  0.00  0.00    +0.000 OA
ATOM     16  O   UNL     1      -1.162  11.234  21.140  0.00  0.00    +0.000 OA
ATOM     17  C   UNL     1      -0.562  11.189  18.570  0.00  0.00    +0.000 C 
ENDBRANCH   9  11
ENDBRANCH   1   8
BRANCH   5  18
ATOM     18  S   UNL     1       3.310   3.409  17.870  0.00  0.00    +0.000 S 
ATOM     19  O   UNL     1       3.451   2.291  18.776  0.00  0.00    +0.000 OA
ATOM     20  O   UNL     1       2.414   3.324  16.737  0.00  0.00    +0.000 OA
BRANCH  18  21
ATOM     21  N   UNL     1       4.870   3.836  17.303  0.00  0.00    +0.000 NA
ATOM     22  C   UNL     1       4.908   4.404  15.929  0.00  0.00    +0.000 C 
ATOM     23  C   UNL     1       6.338   4.605  15.437  0.00  0.00    +0.000 C 
ATOM     24  C   UNL     1       7.149   5.423  16.430  0.00  0.00    +0.000 C 
ATOM     25  C   UNL     1       7.162   4.707  17.771  0.00  0.00    +0.000 C 
ATOM     26  C   UNL     1       5.747   4.497  18.301  0.00  0.00    +0.000 C 
ENDBRANCH  18  21
ENDBRANCH   5  18
TORSDOF 4
ENDMDL
