MODEL 1
REMARK VINA RESULT:      -7.9      0.000      0.000
REMARK  Name = 
REMARK  4 active torsions:
REMARK  status: ('A' for Active; 'I' for Inactive)
REMARK    1  A    between atoms: C_1  and  O_2
REMARK    2  A    between atoms: O_2  and  C_3
REMARK    3  A    between atoms: C_4  and  O_5
REMARK    4  A    between atoms: C_6  and  O_7
REMARK                            x       y       z     vdW  Elec       q    Type
REMARK                         _______ _______ _______ _____ _____    ______ ____
ROOT
ATOM      1  C   UNL     1       3.106   3.884  20.160  0.00  0.00    +0.000 A 
ATOM      2  C   UNL     1       3.871   3.301  19.139  0.00  0.00    +0.000 A 
ATOM      3  C   UNL     1       4.220   4.000  17.988  0.00  0.00    +0.000 A 
ATOM      4  C   UNL     1       3.817   5.316  17.788  0.00  0.00    +0.000 A 
ATOM      5  C   UNL     1       3.046   5.938  18.788  0.00  0.00    +0.000 A 
ATOM      6  C   UNL     1       2.719   5.218  19.948  0.00  0.00    +0.000 A 
ATOM      7  O   UNL     1       1.978   6.013  20.793  0.00  0.00    +0.000 OA
ATOM      8  C   UNL     1       1.825   7.197  20.160  0.00  0.00    +0.000 A 
ATOM      9  C   UNL     1       1.072   8.284  20.723  0.00  0.00    +0.000 A 
ATOM     10  C   UNL     1       0.444   8.287  21.964  0.00  0.00    +0.000 A 
ATOM     11  C   UNL     1      -0.257   9.427  22.376  0.00  0.00    +0.000 A 
ATOM     12  C   UNL     1      -0.328  10.558  21.552  0.00  0.00    +0.000 A 
ATOM     13  C   UNL     1       0.300  10.563  20.308  0.00  0.00    +0.000 A 
ATOM     14  C   UNL     1       0.995   9.426  19.910  0.00  0.00    +0.000 A 
ATOM     15  O   UNL     1       1.632   9.466  18.632  0.00  0.00    +0.000 OA
ATOM     16  C   UNL     1       2.372   8.382  18.099  0.00  0.00    +0.000 A 
ATOM     17  O   UNL     1       2.901   8.454  16.995  0.00  0.00    +0.000 OA
ATOM     18  C   UNL     1       2.444   7.210  18.940  0.00  0.00    +0.000 A 
ENDROOT
BRANCH   1  20
ATOM     19  C   UNL     1       1.482   2.699  21.409  0.00  0.00    +0.000 C 
ATOM     20  O   UNL     1       2.848   3.074  21.255  0.00  0.00    +0.000 OA
ENDBRANCH   1  20
BRANCH   2  21
ATOM     21  O   UNL     1       4.277   1.991  19.234  0.00  0.00    +0.000 OA
ATOM     22  H   UNL     1       4.955   1.884  18.536  0.00  0.00    +0.000 HD
ENDBRANCH   2  21
BRANCH   3  23
ATOM     23  O   UNL     1       4.962   3.387  17.018  0.00  0.00    +0.000 OA
ATOM     24  H   UNL     1       4.878   3.967  16.235  0.00  0.00    +0.000 HD
ENDBRANCH   3  23
TORSDOF 3
ENDMDL
MODEL 2
REMARK VINA RESULT:      -7.8      0.986      1.143
REMARK  Name = 
REMARK  4 active torsions:
REMARK  status: ('A' for Active; 'I' for Inactive)
REMARK    1  A    between atoms: C_1  and  O_2
REMARK    2  A    between atoms: O_2  and  C_3
REMARK    3  A    between atoms: C_4  and  O_5
REMARK    4  A    between atoms: C_6  and  O_7
REMARK                            x       y       z     vdW  Elec       q    Type
REMARK                         _______ _______ _______ _____ _____    ______ ____
ROOT
ATOM      1  C   UNL     1       2.754   4.818  20.053  0.00  0.00    +0.000 A 
ATOM      2  C   UNL     1       3.456   4.368  18.926  0.00  0.00    +0.000 A 
ATOM      3  C   UNL     1       3.694   5.189  17.829  0.00  0.00    +0.000 A 
ATOM      4  C   UNL     1       3.236   6.502  17.791  0.00  0.00    +0.000 A 
ATOM      5  C   UNL     1       2.525   6.993  18.903  0.00  0.00    +0.000 A 
ATOM      6  C   UNL     1       2.311   6.151  20.006  0.00  0.00    +0.000 A 
ATOM      7  O   UNL     1       1.613   6.830  20.978  0.00  0.00    +0.000 OA
ATOM      8  C   UNL     1       1.375   8.063  20.480  0.00  0.00    +0.000 A 
ATOM      9  C   UNL     1       0.634   9.061  21.204  0.00  0.00    +0.000 A 
ATOM     10  C   UNL     1       0.103   8.918  22.481  0.00  0.00    +0.000 A 
ATOM     11  C   UNL     1      -0.599   9.984  23.055  0.00  0.00    +0.000 A 
ATOM     12  C   UNL     1      -0.769  11.187  22.357  0.00  0.00    +0.000 A 
ATOM     13  C   UNL     1      -0.238  11.337  21.077  0.00  0.00    +0.000 A 
ATOM     14  C   UNL     1       0.459  10.273  20.517  0.00  0.00    +0.000 A 
ATOM     15  O   UNL     1       0.995  10.462  19.206  0.00  0.00    +0.000 OA
ATOM     16  C   UNL     1       1.725   9.465  18.514  0.00  0.00    +0.000 A 
ATOM     17  O   UNL     1       2.165   9.665  17.387  0.00  0.00    +0.000 OA
ATOM     18  C   UNL     1       1.897   8.220  19.226  0.00  0.00    +0.000 A 
ENDROOT
BRANCH   1  20
ATOM     19  C   UNL     1       1.344   3.236  21.106  0.00  0.00    +0.000 C 
ATOM     20  O   UNL     1       2.606   3.895  21.078  0.00  0.00    +0.000 OA
ENDBRANCH   1  20
BRANCH   2  21
ATOM     21  O   UNL     1       3.909   3.072  18.859  0.00  0.00    +0.000 OA
ATOM     22  H   UNL     1       3.148   2.521  19.132  0.00  0.00    +0.000 HD
ENDBRANCH   2  21
BRANCH   3  23
ATOM     23  O   UNL     1       4.379   4.703  16.751  0.00  0.00    +0.000 OA
ATOM     24  H   UNL     1       4.170   5.322  16.022  0.00  0.00    +0.000 HD
ENDBRANCH   3  23
TORSDOF 3
ENDMDL
MODEL 3
REMARK VINA RESULT:      -7.4      1.636      6.000
REMARK  Name = 
REMARK  4 active torsions:
REMARK  status: ('A' for Active; 'I' for Inactive)
REMARK    1  A    between atoms: C_1  and  O_2
REMARK    2  A    between atoms: O_2  and  C_3
REMARK    3  A    between atoms: C_4  and  O_5
REMARK    4  A    between atoms: C_6  and  O_7
REMARK                            x       y       z     vdW  Elec       q    Type
REMARK                         _______ _______ _______ _____ _____    ______ ____
ROOT
ATOM      1  C   UNL     1       0.601   9.333  20.504  0.00  0.00    +0.000 A 
ATOM      2  C   UNL     1       0.691  10.496  19.726  0.00  0.00    +0.000 A 
ATOM      3  C   UNL     1       1.476  10.557  18.579  0.00  0.00    +0.000 A 
ATOM      4  C   UNL     1       2.222   9.464  18.150  0.00  0.00    +0.000 A 
ATOM      5  C   UNL     1       2.161   8.277  18.904  0.00  0.00    +0.000 A 
ATOM      6  C   UNL     1       1.349   8.233  20.049  0.00  0.00    +0.000 A 
ATOM      7  O   UNL     1       1.424   6.985  20.623  0.00  0.00    +0.000 OA
ATOM      8  C   UNL     1       2.287   6.272  19.863  0.00  0.00    +0.000 A 
ATOM      9  C   UNL     1       2.649   4.915  20.171  0.00  0.00    +0.000 A 
ATOM     10  C   UNL     1       2.161   4.159  21.231  0.00  0.00    +0.000 A 
ATOM     11  C   UNL     1       2.612   2.844  21.401  0.00  0.00    +0.000 A 
ATOM     12  C   UNL     1       3.545   2.289  20.516  0.00  0.00    +0.000 A 
ATOM     13  C   UNL     1       4.036   3.040  19.450  0.00  0.00    +0.000 A 
ATOM     14  C   UNL     1       3.580   4.344  19.289  0.00  0.00    +0.000 A 
ATOM     15  O   UNL     1       4.100   5.085  18.184  0.00  0.00    +0.000 OA
ATOM     16  C   UNL     1       3.725   6.421  17.899  0.00  0.00    +0.000 A 
ATOM     17  O   UNL     1       4.198   7.025  16.942  0.00  0.00    +0.000 OA
ATOM     18  C   UNL     1       2.769   7.002  18.813  0.00  0.00    +0.000 A 
ENDROOT
BRANCH   1  20
ATOM     19  C   UNL     1       0.446   9.464  22.861  0.00  0.00    +0.000 C 
ATOM     20  O   UNL     1      -0.231   9.412  21.610  0.00  0.00    +0.000 OA
ENDBRANCH   1  20
BRANCH   2  21
ATOM     21  O   UNL     1       0.021  11.637  20.098  0.00  0.00    +0.000 OA
ATOM     22  H   UNL     1       0.262  11.779  21.035  0.00  0.00    +0.000 HD
ENDBRANCH   2  21
BRANCH   3  23
ATOM     23  O   UNL     1       1.537  11.716  17.857  0.00  0.00    +0.000 OA
ATOM     24  H   UNL     1       0.730  11.708  17.303  0.00  0.00    +0.000 HD
ENDBRANCH   3  23
TORSDOF 3
ENDMDL
MODEL 4
REMARK VINA RESULT:      -7.2      3.314      6.794
REMARK  Name = 
REMARK  4 active torsions:
REMARK  status: ('A' for Active; 'I' for Inactive)
REMARK    1  A    between atoms: C_1  and  O_2
REMARK    2  A    between atoms: O_2  and  C_3
REMARK    3  A    between atoms: C_4  and  O_5
REMARK    4  A    between atoms: C_6  and  O_7
REMARK                            x       y       z     vdW  Elec       q    Type
REMARK                         _______ _______ _______ _____ _____    ______ ____
ROOT
ATOM      1  C   UNL     1       2.150   3.985  18.143  0.00  0.00    +0.000 A 
ATOM      2  C   UNL     1       1.937   4.600  19.386  0.00  0.00    +0.000 A 
ATOM      3  C   UNL     1       2.799   5.571  19.886  0.00  0.00    +0.000 A 
ATOM      4  C   UNL     1       3.927   5.975  19.178  0.00  0.00    +0.000 A 
ATOM      5  C   UNL     1       4.177   5.381  17.926  0.00  0.00    +0.000 A 
ATOM      6  C   UNL     1       3.285   4.415  17.435  0.00  0.00    +0.000 A 
ATOM      7  O   UNL     1       3.708   3.979  16.200  0.00  0.00    +0.000 OA
ATOM      8  C   UNL     1       4.856   4.642  15.939  0.00  0.00    +0.000 A 
ATOM      9  C   UNL     1       5.619   4.426  14.739  0.00  0.00    +0.000 A 
ATOM     10  C   UNL     1       5.284   3.563  13.702  0.00  0.00    +0.000 A 
ATOM     11  C   UNL     1       6.134   3.460  12.594  0.00  0.00    +0.000 A 
ATOM     12  C   UNL     1       7.310   4.217  12.522  0.00  0.00    +0.000 A 
ATOM     13  C   UNL     1       7.651   5.086  13.558  0.00  0.00    +0.000 A 
ATOM     14  C   UNL     1       6.800   5.182  14.653  0.00  0.00    +0.000 A 
ATOM     15  O   UNL     1       7.176   6.085  15.693  0.00  0.00    +0.000 OA
ATOM     16  C   UNL     1       6.405   6.283  16.866  0.00  0.00    +0.000 A 
ATOM     17  O   UNL     1       6.765   7.065  17.739  0.00  0.00    +0.000 OA
ATOM     18  C   UNL     1       5.194   5.500  16.949  0.00  0.00    +0.000 A 
ENDROOT
BRANCH   1  20
ATOM     19  C   UNL     1       1.265   1.816  18.480  0.00  0.00    +0.000 C 
ATOM     20  O   UNL     1       1.201   3.048  17.767  0.00  0.00    +0.000 OA
ENDBRANCH   1  20
BRANCH   2  21
ATOM     21  O   UNL     1       0.872   4.232  20.173  0.00  0.00    +0.000 OA
ATOM     22  H   UNL     1       0.900   4.839  20.939  0.00  0.00    +0.000 HD
ENDBRANCH   2  21
BRANCH   3  23
ATOM     23  O   UNL     1       2.553   6.137  21.105  0.00  0.00    +0.000 OA
ATOM     24  H   UNL     1       3.439   6.307  21.485  0.00  0.00    +0.000 HD
ENDBRANCH   3  23
TORSDOF 3
ENDMDL
MODEL 5
REMARK VINA RESULT:      -7.2      1.862      6.820
REMARK  Name = 
REMARK  4 active torsions:
REMARK  status: ('A' for Active; 'I' for Inactive)
REMARK    1  A    between atoms: C_1  and  O_2
REMARK    2  A    between atoms: O_2  and  C_3
REMARK    3  A    between atoms: C_4  and  O_5
REMARK    4  A    between atoms: C_6  and  O_7
REMARK                            x       y       z     vdW  Elec       q    Type
REMARK                         _______ _______ _______ _____ _____    ______ ____
ROOT
ATOM      1  C   UNL     1       1.115   9.741  19.184  0.00  0.00    +0.000 A 
ATOM      2  C   UNL     1       0.320   9.863  20.333  0.00  0.00    +0.000 A 
ATOM      3  C   UNL     1       0.257   8.860  21.295  0.00  0.00    +0.000 A 
ATOM      4  C   UNL     1       0.975   7.677  21.159  0.00  0.00    +0.000 A 
ATOM      5  C   UNL     1       1.785   7.514  20.019  0.00  0.00    +0.000 A 
ATOM      6  C   UNL     1       1.846   8.547  19.069  0.00  0.00    +0.000 A 
ATOM      7  O   UNL     1       2.699   8.189  18.051  0.00  0.00    +0.000 OA
ATOM      8  C   UNL     1       3.142   6.947  18.348  0.00  0.00    +0.000 A 
ATOM      9  C   UNL     1       4.038   6.219  17.491  0.00  0.00    +0.000 A 
ATOM     10  C   UNL     1       4.582   6.680  16.297  0.00  0.00    +0.000 A 
ATOM     11  C   UNL     1       5.443   5.849  15.570  0.00  0.00    +0.000 A 
ATOM     12  C   UNL     1       5.758   4.565  16.034  0.00  0.00    +0.000 A 
ATOM     13  C   UNL     1       5.218   4.097  17.230  0.00  0.00    +0.000 A 
ATOM     14  C   UNL     1       4.365   4.931  17.946  0.00  0.00    +0.000 A 
ATOM     15  O   UNL     1       3.833   4.424  19.170  0.00  0.00    +0.000 OA
ATOM     16  C   UNL     1       2.954   5.162  20.000  0.00  0.00    +0.000 A 
ATOM     17  O   UNL     1       2.515   4.688  21.042  0.00  0.00    +0.000 OA
ATOM     18  C   UNL     1       2.619   6.484  19.524  0.00  0.00    +0.000 A 
ENDROOT
BRANCH   1  20
ATOM     19  C   UNL     1       2.232  11.677  18.406  0.00  0.00    +0.000 C 
ATOM     20  O   UNL     1       1.093  10.826  18.320  0.00  0.00    +0.000 OA
ENDBRANCH   1  20
BRANCH   2  21
ATOM     21  O   UNL     1      -0.456  10.980  20.529  0.00  0.00    +0.000 OA
ATOM     22  H   UNL     1       0.106  11.593  21.044  0.00  0.00    +0.000 HD
ENDBRANCH   2  21
BRANCH   3  23
ATOM     23  O   UNL     1      -0.538   9.022  22.395  0.00  0.00    +0.000 OA
ATOM     24  H   UNL     1      -0.736   9.980  22.422  0.00  0.00    +0.000 HD
ENDBRANCH   3  23
TORSDOF 3
ENDMDL
MODEL 6
REMARK VINA RESULT:      -6.8      3.906      6.545
REMARK  Name = 
REMARK  4 active torsions:
REMARK  status: ('A' for Active; 'I' for Inactive)
REMARK    1  A    between atoms: C_1  and  O_2
REMARK    2  A    between atoms: O_2  and  C_3
REMARK    3  A    between atoms: C_4  and  O_5
REMARK    4  A    between atoms: C_6  and  O_7
REMARK                            x       y       z     vdW  Elec       q    Type
REMARK                         _______ _______ _______ _____ _____    ______ ____
ROOT
ATOM      1  C   UNL     1       5.889   3.748  13.417  0.00  0.00    +0.000 A 
ATOM      2  C   UNL     1       7.031   4.422  12.960  0.00  0.00    +0.000 A 
ATOM      3  C   UNL     1       7.737   5.309  13.766  0.00  0.00    +0.000 A 
ATOM      4  C   UNL     1       7.337   5.580  15.071  0.00  0.00    +0.000 A 
ATOM      5  C   UNL     1       6.194   4.926  15.568  0.00  0.00    +0.000 A 
ATOM      6  C   UNL     1       5.507   4.023  14.741  0.00  0.00    +0.000 A 
ATOM      7  O   UNL     1       4.438   3.490  15.424  0.00  0.00    +0.000 OA
ATOM      8  C   UNL     1       4.444   4.070  16.645  0.00  0.00    +0.000 A 
ATOM      9  C   UNL     1       3.447   3.786  17.642  0.00  0.00    +0.000 A 
ATOM     10  C   UNL     1       2.394   2.888  17.512  0.00  0.00    +0.000 A 
ATOM     11  C   UNL     1       1.499   2.720  18.576  0.00  0.00    +0.000 A 
ATOM     12  C   UNL     1       1.658   3.447  19.764  0.00  0.00    +0.000 A 
ATOM     13  C   UNL     1       2.712   4.347  19.902  0.00  0.00    +0.000 A 
ATOM     14  C   UNL     1       3.596   4.505  18.839  0.00  0.00    +0.000 A 
ATOM     15  O   UNL     1       4.668   5.431  19.016  0.00  0.00    +0.000 OA
ATOM     16  C   UNL     1       5.641   5.692  18.019  0.00  0.00    +0.000 A 
ATOM     17  O   UNL     1       6.545   6.499  18.207  0.00  0.00    +0.000 OA
ATOM     18  C   UNL     1       5.479   4.952  16.789  0.00  0.00    +0.000 A 
ENDROOT
BRANCH   1  20
ATOM     19  C   UNL     1       4.305   3.479  11.680  0.00  0.00    +0.000 C 
ATOM     20  O   UNL     1       5.298   2.883  12.509  0.00  0.00    +0.000 OA
ENDBRANCH   1  20
BRANCH   2  21
ATOM     21  O   UNL     1       7.475   4.246  11.670  0.00  0.00    +0.000 OA
ATOM     22  H   UNL     1       7.524   5.147  11.293  0.00  0.00    +0.000 HD
ENDBRANCH   2  21
BRANCH   3  23
ATOM     23  O   UNL     1       8.841   5.946  13.273  0.00  0.00    +0.000 OA
ATOM     24  H   UNL     1       8.611   6.164  12.347  0.00  0.00    +0.000 HD
ENDBRANCH   3  23
TORSDOF 3
ENDMDL
MODEL 7
REMARK VINA RESULT:      -6.6      9.736     11.442
REMARK  Name = 
REMARK  4 active torsions:
REMARK  status: ('A' for Active; 'I' for Inactive)
REMARK    1  A    between atoms: C_1  and  O_2
REMARK    2  A    between atoms: O_2  and  C_3
REMARK    3  A    between atoms: C_4  and  O_5
REMARK    4  A    between atoms: C_6  and  O_7
REMARK                            x       y       z     vdW  Elec       q    Type
REMARK                         _______ _______ _______ _____ _____    ______ ____
ROOT
ATOM      1  C   UNL     1      10.860  15.528  18.570  0.00  0.00    +0.000 A 
ATOM      2  C   UNL     1      11.257  15.067  17.306  0.00  0.00    +0.000 A 
ATOM      3  C   UNL     1      11.118  13.735  16.930  0.00  0.00    +0.000 A 
ATOM      4  C   UNL     1      10.585  12.787  17.798  0.00  0.00    +0.000 A 
ATOM      5  C   UNL     1      10.175  13.209  19.076  0.00  0.00    +0.000 A 
ATOM      6  C   UNL     1      10.309  14.561  19.428  0.00  0.00    +0.000 A 
ATOM      7  O   UNL     1       9.838  14.757  20.707  0.00  0.00    +0.000 OA
ATOM      8  C   UNL     1       9.442  13.543  21.152  0.00  0.00    +0.000 A 
ATOM      9  C   UNL     1       8.915  13.339  22.474  0.00  0.00    +0.000 A 
ATOM     10  C   UNL     1       8.717  14.323  23.436  0.00  0.00    +0.000 A 
ATOM     11  C   UNL     1       8.194  13.966  24.685  0.00  0.00    +0.000 A 
ATOM     12  C   UNL     1       7.871  12.633  24.970  0.00  0.00    +0.000 A 
ATOM     13  C   UNL     1       8.066  11.642  24.010  0.00  0.00    +0.000 A 
ATOM     14  C   UNL     1       8.584  12.007  22.772  0.00  0.00    +0.000 A 
ATOM     15  O   UNL     1       8.766  10.968  21.809  0.00  0.00    +0.000 OA
ATOM     16  C   UNL     1       9.284  11.195  20.510  0.00  0.00    +0.000 A 
ATOM     17  O   UNL     1       9.430  10.275  19.713  0.00  0.00    +0.000 OA
ATOM     18  C   UNL     1       9.626  12.567  20.213  0.00  0.00    +0.000 A 
ENDROOT
BRANCH   1  20
ATOM     19  C   UNL     1       9.863  17.672  18.675  0.00  0.00    +0.000 C 
ATOM     20  O   UNL     1      11.042  16.883  18.800  0.00  0.00    +0.000 OA
ENDBRANCH   1  20
BRANCH   2  21
ATOM     21  O   UNL     1      11.833  15.925  16.400  0.00  0.00    +0.000 OA
ATOM     22  H   UNL     1      12.654  15.478  16.112  0.00  0.00    +0.000 HD
ENDBRANCH   2  21
BRANCH   3  23
ATOM     23  O   UNL     1      11.526  13.332  15.690  0.00  0.00    +0.000 OA
ATOM     24  H   UNL     1      12.107  12.561  15.855  0.00  0.00    +0.000 HD
ENDBRANCH   3  23
TORSDOF 3
ENDMDL
MODEL 8
REMARK VINA RESULT:      -6.5      1.570      3.599
REMARK  Name = 
REMARK  4 active torsions:
REMARK  status: ('A' for Active; 'I' for Inactive)
REMARK    1  A    between atoms: C_1  and  O_2
REMARK    2  A    between atoms: O_2  and  C_3
REMARK    3  A    between atoms: C_4  and  O_5
REMARK    4  A    between atoms: C_6  and  O_7
REMARK                            x       y       z     vdW  Elec       q    Type
REMARK                         _______ _______ _______ _____ _____    ______ ____
ROOT
ATOM      1  C   UNL     1       4.565   5.004  16.661  0.00  0.00    +0.000 A 
ATOM      2  C   UNL     1       4.745   3.647  16.963  0.00  0.00    +0.000 A 
ATOM      3  C   UNL     1       4.139   3.049  18.064  0.00  0.00    +0.000 A 
ATOM      4  C   UNL     1       3.328   3.776  18.930  0.00  0.00    +0.000 A 
ATOM      5  C   UNL     1       3.123   5.143  18.663  0.00  0.00    +0.000 A 
ATOM      6  C   UNL     1       3.732   5.721  17.537  0.00  0.00    +0.000 A 
ATOM      7  O   UNL     1       3.391   7.051  17.457  0.00  0.00    +0.000 OA
ATOM      8  C   UNL     1       2.605   7.304  18.528  0.00  0.00    +0.000 A 
ATOM      9  C   UNL     1       2.073   8.610  18.806  0.00  0.00    +0.000 A 
ATOM     10  C   UNL     1       2.255   9.749  18.030  0.00  0.00    +0.000 A 
ATOM     11  C   UNL     1       1.671  10.956  18.434  0.00  0.00    +0.000 A 
ATOM     12  C   UNL     1       0.909  11.023  19.608  0.00  0.00    +0.000 A 
ATOM     13  C   UNL     1       0.720   9.885  20.389  0.00  0.00    +0.000 A 
ATOM     14  C   UNL     1       1.303   8.691  19.978  0.00  0.00    +0.000 A 
ATOM     15  O   UNL     1       1.085   7.543  20.798  0.00  0.00    +0.000 OA
ATOM     16  C   UNL     1       1.618   6.263  20.502  0.00  0.00    +0.000 A 
ATOM     17  O   UNL     1       1.413   5.303  21.235  0.00  0.00    +0.000 OA
ATOM     18  C   UNL     1       2.412   6.190  19.297  0.00  0.00    +0.000 A 
ENDROOT
BRANCH   1  20
ATOM     19  C   UNL     1       6.563   5.872  15.737  0.00  0.00    +0.000 C 
ATOM     20  O   UNL     1       5.217   5.459  15.525  0.00  0.00    +0.000 OA
ENDBRANCH   1  20
BRANCH   2  21
ATOM     21  O   UNL     1       5.563   2.862  16.186  0.00  0.00    +0.000 OA
ATOM     22  H   UNL     1       5.546   3.276  15.300  0.00  0.00    +0.000 HD
ENDBRANCH   2  21
BRANCH   3  23
ATOM     23  O   UNL     1       4.349   1.724  18.320  0.00  0.00    +0.000 OA
ATOM     24  H   UNL     1       5.113   1.478  17.759  0.00  0.00    +0.000 HD
ENDBRANCH   3  23
TORSDOF 3
ENDMDL
MODEL 9
REMARK VINA RESULT:      -6.4      1.941      6.218
REMARK  Name = 
REMARK  4 active torsions:
REMARK  status: ('A' for Active; 'I' for Inactive)
REMARK    1  A    between atoms: C_1  and  O_2
REMARK    2  A    between atoms: O_2  and  C_3
REMARK    3  A    between atoms: C_4  and  O_5
REMARK    4  A    between atoms: C_6  and  O_7
REMARK                            x       y       z     vdW  Elec       q    Type
REMARK                         _______ _______ _______ _____ _____    ______ ____
ROOT
ATOM      1  C   UNL     1       0.789  10.146  21.663  0.00  0.00    +0.000 A 
ATOM      2  C   UNL     1       0.722  11.402  21.044  0.00  0.00    +0.000 A 
ATOM      3  C   UNL     1       1.079  11.589  19.713  0.00  0.00    +0.000 A 
ATOM      4  C   UNL     1       1.532  10.533  18.928  0.00  0.00    +0.000 A 
ATOM      5  C   UNL     1       1.616   9.255  19.512  0.00  0.00    +0.000 A 
ATOM      6  C   UNL     1       1.235   9.088  20.853  0.00  0.00    +0.000 A 
ATOM      7  O   UNL     1       1.381   7.768  21.215  0.00  0.00    +0.000 OA
ATOM      8  C   UNL     1       1.869   7.131  20.127  0.00  0.00    +0.000 A 
ATOM      9  C   UNL     1       2.185   5.728  20.130  0.00  0.00    +0.000 A 
ATOM     10  C   UNL     1       2.012   4.853  21.197  0.00  0.00    +0.000 A 
ATOM     11  C   UNL     1       2.369   3.508  21.046  0.00  0.00    +0.000 A 
ATOM     12  C   UNL     1       2.895   3.040  19.835  0.00  0.00    +0.000 A 
ATOM     13  C   UNL     1       3.069   3.911  18.760  0.00  0.00    +0.000 A 
ATOM     14  C   UNL     1       2.709   5.244  18.920  0.00  0.00    +0.000 A 
ATOM     15  O   UNL     1       2.895   6.109  17.799  0.00  0.00    +0.000 OA
ATOM     16  C   UNL     1       2.573   7.489  17.819  0.00  0.00    +0.000 A 
ATOM     17  O   UNL     1       2.752   8.199  16.836  0.00  0.00    +0.000 OA
ATOM     18  C   UNL     1       2.037   7.979  19.068  0.00  0.00    +0.000 A 
ENDROOT
BRANCH   1  20
ATOM     19  C   UNL     1      -0.935   9.616  23.195  0.00  0.00    +0.000 C 
ATOM     20  O   UNL     1       0.386  10.107  22.989  0.00  0.00    +0.000 OA
ENDBRANCH   1  20
BRANCH   2  21
ATOM     21  O   UNL     1       0.324  12.510  21.755  0.00  0.00    +0.000 OA
ATOM     22  H   UNL     1       0.129  13.190  21.079  0.00  0.00    +0.000 HD
ENDBRANCH   2  21
BRANCH   3  23
ATOM     23  O   UNL     1       1.002  12.834  19.155  0.00  0.00    +0.000 OA
ATOM     24  H   UNL     1       0.051  13.066  19.191  0.00  0.00    +0.000 HD
ENDBRANCH   3  23
TORSDOF 3
ENDMDL
