MODEL 1
REMARK VINA RESULT:      -8.3      0.000      0.000
REMARK  Name = 
REMARK  4 active torsions:
REMARK  status: ('A' for Active; 'I' for Inactive)
REMARK    1  A    between atoms: C_1  and  O_2
REMARK    2  A    between atoms: O_2  and  C_3
REMARK    3  A    between atoms: N_13  and  C_14
REMARK    4  A    between atoms: C_22  and  C_23
REMARK                            x       y       z     vdW  Elec       q    Type
REMARK                         _______ _______ _______ _____ _____    ______ ____
ROOT
ATOM      1  C   UNL     1       6.397   4.446  14.507  0.00  0.00    +0.000 A 
ATOM      2  C   UNL     1       5.041   4.267  14.773  0.00  0.00    +0.000 A 
ATOM      3  C   UNL     1       4.540   4.398  16.076  0.00  0.00    +0.000 A 
ATOM      4  C   UNL     1       5.388   4.689  17.149  0.00  0.00    +0.000 A 
ATOM      5  C   UNL     1       6.757   4.904  16.843  0.00  0.00    +0.000 A 
ATOM      6  C   UNL     1       7.254   4.808  15.541  0.00  0.00    +0.000 A 
ATOM      7  N   UNL     1       7.648   5.265  17.867  0.00  0.00    +0.000 N 
ATOM      8  C   UNL     1       7.300   5.155  19.188  0.00  0.00    +0.000 C 
ATOM      9  O   UNL     1       8.035   5.553  20.087  0.00  0.00    +0.000 OA
ATOM     10  C   UNL     1       5.989   4.413  19.437  0.00  0.00    +0.000 C 
ATOM     11  N   UNL     1       4.952   4.883  18.498  0.00  0.00    +0.000 N 
ATOM     12  H   UNL     1       8.565   5.635  17.654  0.00  0.00    +0.000 HD
ENDROOT
BRANCH  11  13
ATOM     13  C   UNL     1       3.648   4.960  19.021  0.00  0.00    +0.000 A 
ATOM     14  N   UNL     1       3.200   6.131  19.542  0.00  0.00    +0.000 NA
ATOM     15  C   UNL     1       1.979   6.201  20.092  0.00  0.00    +0.000 A 
ATOM     16 CL   UNL     1       1.559   7.712  20.770  0.00  0.00    +0.000 Cl
ATOM     17  N   UNL     1       1.067   5.242  20.201  0.00  0.00    +0.000 NA
ATOM     18  C   UNL     1       1.530   4.096  19.697  0.00  0.00    +0.000 A 
ATOM     19  O   UNL     1       0.807   2.946  19.708  0.00  0.00    +0.000 OA
ATOM     20  N   UNL     1       1.549   1.919  19.169  0.00  0.00    +0.000 NA
ATOM     21  C   UNL     1       2.734   2.453  18.843  0.00  0.00    +0.000 A 
ATOM     22  C   UNL     1       3.768   1.545  18.290  0.00  0.00    +0.000 C 
ATOM     23  C   UNL     1       2.769   3.853  19.118  0.00  0.00    +0.000 A 
ENDBRANCH  11  13
BRANCH   1  25
ATOM     24  C   UNL     1       5.987   3.366  12.456  0.00  0.00    +0.000 C 
ATOM     25  O   UNL     1       6.783   4.284  13.205  0.00  0.00    +0.000 OA
ENDBRANCH   1  25
TORSDOF 2
ENDMDL
MODEL 2
REMARK VINA RESULT:      -8.0      2.155      2.884
REMARK  Name = 
REMARK  4 active torsions:
REMARK  status: ('A' for Active; 'I' for Inactive)
REMARK    1  A    between atoms: C_1  and  O_2
REMARK    2  A    between atoms: O_2  and  C_3
REMARK    3  A    between atoms: N_13  and  C_14
REMARK    4  A    between atoms: C_22  and  C_23
REMARK                            x       y       z     vdW  Elec       q    Type
REMARK                         _______ _______ _______ _____ _____    ______ ____
ROOT
ATOM      1  C   UNL     1       6.562   4.308  13.831  0.00  0.00    +0.000 A 
ATOM      2  C   UNL     1       5.682   3.502  14.550  0.00  0.00    +0.000 A 
ATOM      3  C   UNL     1       5.466   3.714  15.919  0.00  0.00    +0.000 A 
ATOM      4  C   UNL     1       6.143   4.726  16.607  0.00  0.00    +0.000 A 
ATOM      5  C   UNL     1       7.003   5.556  15.843  0.00  0.00    +0.000 A 
ATOM      6  C   UNL     1       7.195   5.368  14.472  0.00  0.00    +0.000 A 
ATOM      7  N   UNL     1       7.661   6.630  16.462  0.00  0.00    +0.000 N 
ATOM      8  C   UNL     1       7.713   6.744  17.827  0.00  0.00    +0.000 C 
ATOM      9  O   UNL     1       8.204   7.726  18.377  0.00  0.00    +0.000 OA
ATOM     10  C   UNL     1       7.209   5.518  18.584  0.00  0.00    +0.000 C 
ATOM     11  N   UNL     1       5.946   5.037  17.990  0.00  0.00    +0.000 N 
ATOM     12  H   UNL     1       8.097   7.360  15.915  0.00  0.00    +0.000 HD
ENDROOT
BRANCH  11  13
ATOM     13  C   UNL     1       4.998   4.535  18.901  0.00  0.00    +0.000 A 
ATOM     14  N   UNL     1       5.212   3.335  19.500  0.00  0.00    +0.000 NA
ATOM     15  C   UNL     1       4.292   2.822  20.329  0.00  0.00    +0.000 A 
ATOM     16 CL   UNL     1       4.649   1.278  20.967  0.00  0.00    +0.000 Cl
ATOM     17  N   UNL     1       3.128   3.346  20.695  0.00  0.00    +0.000 NA
ATOM     18  C   UNL     1       2.928   4.516  20.086  0.00  0.00    +0.000 A 
ATOM     19  O   UNL     1       1.800   5.252  20.262  0.00  0.00    +0.000 OA
ATOM     20  N   UNL     1       1.847   6.382  19.476  0.00  0.00    +0.000 NA
ATOM     21  C   UNL     1       3.009   6.319  18.812  0.00  0.00    +0.000 A 
ATOM     22  C   UNL     1       3.299   7.394  17.832  0.00  0.00    +0.000 C 
ATOM     23  C   UNL     1       3.765   5.170  19.190  0.00  0.00    +0.000 A 
ENDBRANCH  11  13
BRANCH   1  25
ATOM     24  C   UNL     1       5.716   3.128  11.979  0.00  0.00    +0.000 C 
ATOM     25  O   UNL     1       6.709   4.008  12.505  0.00  0.00    +0.000 OA
ENDBRANCH   1  25
TORSDOF 2
ENDMDL
MODEL 3
REMARK VINA RESULT:      -7.5      2.068      2.854
REMARK  Name = 
REMARK  4 active torsions:
REMARK  status: ('A' for Active; 'I' for Inactive)
REMARK    1  A    between atoms: C_1  and  O_2
REMARK    2  A    between atoms: O_2  and  C_3
REMARK    3  A    between atoms: N_13  and  C_14
REMARK    4  A    between atoms: C_22  and  C_23
REMARK                            x       y       z     vdW  Elec       q    Type
REMARK                         _______ _______ _______ _____ _____    ______ ____
ROOT
ATOM      1  C   UNL     1       6.190   4.047  14.186  0.00  0.00    +0.000 A 
ATOM      2  C   UNL     1       5.095   3.553  14.890  0.00  0.00    +0.000 A 
ATOM      3  C   UNL     1       4.835   3.971  16.202  0.00  0.00    +0.000 A 
ATOM      4  C   UNL     1       5.678   4.879  16.851  0.00  0.00    +0.000 A 
ATOM      5  C   UNL     1       6.764   5.395  16.097  0.00  0.00    +0.000 A 
ATOM      6  C   UNL     1       7.006   5.005  14.778  0.00  0.00    +0.000 A 
ATOM      7  N   UNL     1       7.609   6.359  16.669  0.00  0.00    +0.000 N 
ATOM      8  C   UNL     1       7.585   6.621  18.015  0.00  0.00    +0.000 C 
ATOM      9  O   UNL     1       8.252   7.525  18.510  0.00  0.00    +0.000 OA
ATOM     10  C   UNL     1       6.752   5.641  18.835  0.00  0.00    +0.000 C 
ATOM     11  N   UNL     1       5.459   5.390  18.169  0.00  0.00    +0.000 N 
ATOM     12  H   UNL     1       8.244   6.900  16.099  0.00  0.00    +0.000 HD
ENDROOT
BRANCH  11  13
ATOM     13  C   UNL     1       4.355   5.227  19.027  0.00  0.00    +0.000 A 
ATOM     14  N   UNL     1       4.226   4.084  19.748  0.00  0.00    +0.000 NA
ATOM     15  C   UNL     1       3.151   3.896  20.527  0.00  0.00    +0.000 A 
ATOM     16 CL   UNL     1       3.075   2.390  21.331  0.00  0.00    +0.000 Cl
ATOM     17  N   UNL     1       2.127   4.716  20.732  0.00  0.00    +0.000 NA
ATOM     18  C   UNL     1       2.264   5.827  20.006  0.00  0.00    +0.000 A 
ATOM     19  O   UNL     1       1.340   6.823  20.008  0.00  0.00    +0.000 OA
ATOM     20  N   UNL     1       1.717   7.817  19.133  0.00  0.00    +0.000 NA
ATOM     21  C   UNL     1       2.873   7.410  18.591  0.00  0.00    +0.000 A 
ATOM     22  C   UNL     1       3.485   8.273  17.551  0.00  0.00    +0.000 C 
ATOM     23  C   UNL     1       3.297   6.163  19.139  0.00  0.00    +0.000 A 
ENDBRANCH  11  13
BRANCH   1  25
ATOM     24  C   UNL     1       5.150   3.375  12.184  0.00  0.00    +0.000 C 
ATOM     25  O   UNL     1       6.360   3.565  12.917  0.00  0.00    +0.000 OA
ENDBRANCH   1  25
TORSDOF 2
ENDMDL
MODEL 4
REMARK VINA RESULT:      -7.1      2.747      6.606
REMARK  Name = 
REMARK  4 active torsions:
REMARK  status: ('A' for Active; 'I' for Inactive)
REMARK    1  A    between atoms: C_1  and  O_2
REMARK    2  A    between atoms: O_2  and  C_3
REMARK    3  A    between atoms: N_13  and  C_14
REMARK    4  A    between atoms: C_22  and  C_23
REMARK                            x       y       z     vdW  Elec       q    Type
REMARK                         _______ _______ _______ _____ _____    ______ ____
ROOT
ATOM      1  C   UNL     1       1.566   6.320  20.465  0.00  0.00    +0.000 A 
ATOM      2  C   UNL     1       2.422   7.008  19.608  0.00  0.00    +0.000 A 
ATOM      3  C   UNL     1       3.284   6.319  18.744  0.00  0.00    +0.000 A 
ATOM      4  C   UNL     1       3.327   4.921  18.732  0.00  0.00    +0.000 A 
ATOM      5  C   UNL     1       2.418   4.246  19.587  0.00  0.00    +0.000 A 
ATOM      6  C   UNL     1       1.535   4.930  20.425  0.00  0.00    +0.000 A 
ATOM      7  N   UNL     1       2.366   2.843  19.574  0.00  0.00    +0.000 N 
ATOM      8  C   UNL     1       3.343   2.098  18.965  0.00  0.00    +0.000 C 
ATOM      9  O   UNL     1       3.260   0.877  18.868  0.00  0.00    +0.000 OA
ATOM     10  C   UNL     1       4.565   2.898  18.523  0.00  0.00    +0.000 C 
ATOM     11  N   UNL     1       4.143   4.143  17.852  0.00  0.00    +0.000 N 
ATOM     12  H   UNL     1       1.594   2.345  19.997  0.00  0.00    +0.000 HD
ENDROOT
BRANCH  11  13
ATOM     13  C   UNL     1       4.943   4.551  16.768  0.00  0.00    +0.000 A 
ATOM     14  N   UNL     1       4.648   4.117  15.515  0.00  0.00    +0.000 NA
ATOM     15  C   UNL     1       5.434   4.455  14.483  0.00  0.00    +0.000 A 
ATOM     16 CL   UNL     1       4.994   3.794  12.970  0.00  0.00    +0.000 Cl
ATOM     17  N   UNL     1       6.525   5.214  14.490  0.00  0.00    +0.000 NA
ATOM     18  C   UNL     1       6.806   5.618  15.730  0.00  0.00    +0.000 A 
ATOM     19  O   UNL     1       7.888   6.385  16.023  0.00  0.00    +0.000 OA
ATOM     20  N   UNL     1       7.954   6.607  17.381  0.00  0.00    +0.000 NA
ATOM     21  C   UNL     1       6.908   5.958  17.910  0.00  0.00    +0.000 A 
ATOM     22  C   UNL     1       6.765   5.975  19.387  0.00  0.00    +0.000 C 
ATOM     23  C   UNL     1       6.112   5.340  16.901  0.00  0.00    +0.000 A 
ENDBRANCH  11  13
BRANCH   1  25
ATOM     24  C   UNL     1       1.178   8.453  21.380  0.00  0.00    +0.000 C 
ATOM     25  O   UNL     1       0.776   7.088  21.275  0.00  0.00    +0.000 OA
ENDBRANCH   1  25
TORSDOF 2
ENDMDL
MODEL 5
REMARK VINA RESULT:      -6.8      2.714      6.241
REMARK  Name = 
REMARK  4 active torsions:
REMARK  status: ('A' for Active; 'I' for Inactive)
REMARK    1  A    between atoms: C_1  and  O_2
REMARK    2  A    between atoms: O_2  and  C_3
REMARK    3  A    between atoms: N_13  and  C_14
REMARK    4  A    between atoms: C_22  and  C_23
REMARK                            x       y       z     vdW  Elec       q    Type
REMARK                         _______ _______ _______ _____ _____    ______ ____
ROOT
ATOM      1  C   UNL     1       2.771   3.080  21.152  0.00  0.00    +0.000 A 
ATOM      2  C   UNL     1       3.902   2.832  20.378  0.00  0.00    +0.000 A 
ATOM      3  C   UNL     1       4.408   3.809  19.509  0.00  0.00    +0.000 A 
ATOM      4  C   UNL     1       3.780   5.051  19.376  0.00  0.00    +0.000 A 
ATOM      5  C   UNL     1       2.652   5.290  20.204  0.00  0.00    +0.000 A 
ATOM      6  C   UNL     1       2.166   4.331  21.095  0.00  0.00    +0.000 A 
ATOM      7  N   UNL     1       2.017   6.541  20.165  0.00  0.00    +0.000 N 
ATOM      8  C   UNL     1       2.278   7.444  19.167  0.00  0.00    +0.000 C 
ATOM      9  O   UNL     1       1.798   8.575  19.175  0.00  0.00    +0.000 OA
ATOM     10  C   UNL     1       3.117   6.892  18.019  0.00  0.00    +0.000 C 
ATOM     11  N   UNL     1       4.256   6.116  18.547  0.00  0.00    +0.000 N 
ATOM     12  H   UNL     1       1.363   6.817  20.886  0.00  0.00    +0.000 HD
ENDROOT
BRANCH  11  13
ATOM     13  C   UNL     1       5.456   6.225  17.819  0.00  0.00    +0.000 A 
ATOM     14  N   UNL     1       6.300   7.258  18.067  0.00  0.00    +0.000 NA
ATOM     15  C   UNL     1       7.420   7.402  17.344  0.00  0.00    +0.000 A 
ATOM     16 CL   UNL     1       8.365   8.778  17.708  0.00  0.00    +0.000 Cl
ATOM     17  N   UNL     1       7.874   6.629  16.364  0.00  0.00    +0.000 NA
ATOM     18  C   UNL     1       7.025   5.628  16.125  0.00  0.00    +0.000 A 
ATOM     19  O   UNL     1       7.235   4.705  15.151  0.00  0.00    +0.000 OA
ATOM     20  N   UNL     1       6.177   3.824  15.101  0.00  0.00    +0.000 NA
ATOM     21  C   UNL     1       5.317   4.229  16.046  0.00  0.00    +0.000 A 
ATOM     22  C   UNL     1       4.039   3.486  16.175  0.00  0.00    +0.000 C 
ATOM     23  C   UNL     1       5.822   5.354  16.764  0.00  0.00    +0.000 A 
ENDBRANCH  11  13
BRANCH   1  25
ATOM     24  C   UNL     1       1.008   2.168  22.417  0.00  0.00    +0.000 C 
ATOM     25  O   UNL     1       2.354   2.056  21.957  0.00  0.00    +0.000 OA
ENDBRANCH   1  25
TORSDOF 2
ENDMDL
MODEL 6
REMARK VINA RESULT:      -6.8      6.888      9.742
REMARK  Name = 
REMARK  4 active torsions:
REMARK  status: ('A' for Active; 'I' for Inactive)
REMARK    1  A    between atoms: C_1  and  O_2
REMARK    2  A    between atoms: O_2  and  C_3
REMARK    3  A    between atoms: N_13  and  C_14
REMARK    4  A    between atoms: C_22  and  C_23
REMARK                            x       y       z     vdW  Elec       q    Type
REMARK                         _______ _______ _______ _____ _____    ______ ____
ROOT
ATOM      1  C   UNL     1      -3.618  10.571  15.989  0.00  0.00    +0.000 A 
ATOM      2  C   UNL     1      -2.503   9.758  16.178  0.00  0.00    +0.000 A 
ATOM      3  C   UNL     1      -1.701   9.889  17.320  0.00  0.00    +0.000 A 
ATOM      4  C   UNL     1      -1.983  10.854  18.292  0.00  0.00    +0.000 A 
ATOM      5  C   UNL     1      -3.146  11.642  18.093  0.00  0.00    +0.000 A 
ATOM      6  C   UNL     1      -3.966  11.491  16.973  0.00  0.00    +0.000 A 
ATOM      7  N   UNL     1      -3.520  12.584  19.065  0.00  0.00    +0.000 N 
ATOM      8  C   UNL     1      -2.660  12.957  20.066  0.00  0.00    +0.000 C 
ATOM      9  O   UNL     1      -3.009  13.708  20.972  0.00  0.00    +0.000 OA
ATOM     10  C   UNL     1      -1.232  12.447  19.895  0.00  0.00    +0.000 C 
ATOM     11  N   UNL     1      -1.243  11.023  19.505  0.00  0.00    +0.000 N 
ATOM     12  H   UNL     1      -4.443  12.997  19.064  0.00  0.00    +0.000 HD
ENDROOT
BRANCH  11  13
ATOM     13  C   UNL     1      -0.211  10.236  20.048  0.00  0.00    +0.000 A 
ATOM     14  N   UNL     1       0.602   9.529  19.222  0.00  0.00    +0.000 NA
ATOM     15  C   UNL     1       1.554   8.734  19.730  0.00  0.00    +0.000 A 
ATOM     16 CL   UNL     1       2.467   7.849  18.589  0.00  0.00    +0.000 Cl
ATOM     17  N   UNL     1       1.860   8.525  21.006  0.00  0.00    +0.000 NA
ATOM     18  C   UNL     1       1.043   9.216  21.803  0.00  0.00    +0.000 A 
ATOM     19  O   UNL     1       1.120   9.161  23.158  0.00  0.00    +0.000 OA
ATOM     20  N   UNL     1       0.127   9.933  23.718  0.00  0.00    +0.000 NA
ATOM     21  C   UNL     1      -0.562  10.448  22.691  0.00  0.00    +0.000 A 
ATOM     22  C   UNL     1      -1.746  11.284  23.007  0.00  0.00    +0.000 C 
ATOM     23  C   UNL     1       0.001  10.060  21.438  0.00  0.00    +0.000 A 
ENDBRANCH  11  13
BRANCH   1  25
ATOM     24  C   UNL     1      -3.533   9.999  13.708  0.00  0.00    +0.000 C 
ATOM     25  O   UNL     1      -4.325  10.368  14.836  0.00  0.00    +0.000 OA
ENDBRANCH   1  25
TORSDOF 2
ENDMDL
MODEL 7
REMARK VINA RESULT:      -6.6      2.934      6.444
REMARK  Name = 
REMARK  4 active torsions:
REMARK  status: ('A' for Active; 'I' for Inactive)
REMARK    1  A    between atoms: C_1  and  O_2
REMARK    2  A    between atoms: O_2  and  C_3
REMARK    3  A    between atoms: N_13  and  C_14
REMARK    4  A    between atoms: C_22  and  C_23
REMARK                            x       y       z     vdW  Elec       q    Type
REMARK                         _______ _______ _______ _____ _____    ______ ____
ROOT
ATOM      1  C   UNL     1       1.472   3.716  20.392  0.00  0.00    +0.000 A 
ATOM      2  C   UNL     1       2.277   2.956  19.547  0.00  0.00    +0.000 A 
ATOM      3  C   UNL     1       3.072   3.567  18.567  0.00  0.00    +0.000 A 
ATOM      4  C   UNL     1       3.065   4.954  18.395  0.00  0.00    +0.000 A 
ATOM      5  C   UNL     1       2.265   5.707  19.294  0.00  0.00    +0.000 A 
ATOM      6  C   UNL     1       1.498   5.103  20.293  0.00  0.00    +0.000 A 
ATOM      7  N   UNL     1       2.266   7.109  19.215  0.00  0.00    +0.000 N 
ATOM      8  C   UNL     1       2.798   7.763  18.134  0.00  0.00    +0.000 C 
ATOM      9  O   UNL     1       2.886   8.987  18.097  0.00  0.00    +0.000 OA
ATOM     10  C   UNL     1       3.165   6.855  16.963  0.00  0.00    +0.000 C 
ATOM     11  N   UNL     1       3.878   5.658  17.451  0.00  0.00    +0.000 N 
ATOM     12  H   UNL     1       1.891   7.673  19.965  0.00  0.00    +0.000 HD
ENDROOT
BRANCH  11  13
ATOM     13  C   UNL     1       4.909   5.184  16.619  0.00  0.00    +0.000 A 
ATOM     14  N   UNL     1       4.645   4.893  15.320  0.00  0.00    +0.000 NA
ATOM     15  C   UNL     1       5.606   4.390  14.532  0.00  0.00    +0.000 A 
ATOM     16 CL   UNL     1       5.130   4.006  12.937  0.00  0.00    +0.000 Cl
ATOM     17  N   UNL     1       6.871   4.128  14.840  0.00  0.00    +0.000 NA
ATOM     18  C   UNL     1       7.109   4.406  16.123  0.00  0.00    +0.000 A 
ATOM     19  O   UNL     1       8.319   4.202  16.705  0.00  0.00    +0.000 OA
ATOM     20  N   UNL     1       8.259   4.530  18.041  0.00  0.00    +0.000 NA
ATOM     21  C   UNL     1       6.998   4.924  18.267  0.00  0.00    +0.000 A 
ATOM     22  C   UNL     1       6.630   5.282  19.659  0.00  0.00    +0.000 C 
ATOM     23  C   UNL     1       6.223   4.906  17.070  0.00  0.00    +0.000 A 
ENDBRANCH  11  13
BRANCH   1  25
ATOM     24  C   UNL     1       1.489   2.252  22.235  0.00  0.00    +0.000 C 
ATOM     25  O   UNL     1       0.728   3.020  21.304  0.00  0.00    +0.000 OA
ENDBRANCH   1  25
TORSDOF 2
ENDMDL
MODEL 8
REMARK VINA RESULT:      -6.5      6.861      9.206
REMARK  Name = 
REMARK  4 active torsions:
REMARK  status: ('A' for Active; 'I' for Inactive)
REMARK    1  A    between atoms: C_1  and  O_2
REMARK    2  A    between atoms: O_2  and  C_3
REMARK    3  A    between atoms: N_13  and  C_14
REMARK    4  A    between atoms: C_22  and  C_23
REMARK                            x       y       z     vdW  Elec       q    Type
REMARK                         _______ _______ _______ _____ _____    ______ ____
ROOT
ATOM      1  C   UNL     1      -3.046  10.553  16.028  0.00  0.00    +0.000 A 
ATOM      2  C   UNL     1      -2.570   9.433  16.705  0.00  0.00    +0.000 A 
ATOM      3  C   UNL     1      -1.589   9.554  17.698  0.00  0.00    +0.000 A 
ATOM      4  C   UNL     1      -1.043  10.799  18.024  0.00  0.00    +0.000 A 
ATOM      5  C   UNL     1      -1.573  11.928  17.347  0.00  0.00    +0.000 A 
ATOM      6  C   UNL     1      -2.574  11.814  16.380  0.00  0.00    +0.000 A 
ATOM      7  N   UNL     1      -1.113  13.213  17.676  0.00  0.00    +0.000 N 
ATOM      8  C   UNL     1       0.016  13.395  18.432  0.00  0.00    +0.000 C 
ATOM      9  O   UNL     1       0.374  14.509  18.803  0.00  0.00    +0.000 OA
ATOM     10  C   UNL     1       0.825  12.124  18.678  0.00  0.00    +0.000 C 
ATOM     11  N   UNL     1      -0.073  11.014  19.054  0.00  0.00    +0.000 N 
ATOM     12  H   UNL     1      -1.615  14.039  17.379  0.00  0.00    +0.000 HD
ENDROOT
BRANCH  11  13
ATOM     13  C   UNL     1       0.435  10.120  20.015  0.00  0.00    +0.000 A 
ATOM     14  N   UNL     1       1.161   9.044  19.615  0.00  0.00    +0.000 NA
ATOM     15  C   UNL     1       1.604   8.157  20.517  0.00  0.00    +0.000 A 
ATOM     16 CL   UNL     1       2.448   6.814  19.882  0.00  0.00    +0.000 Cl
ATOM     17  N   UNL     1       1.448   8.174  21.836  0.00  0.00    +0.000 NA
ATOM     18  C   UNL     1       0.722   9.229  22.209  0.00  0.00    +0.000 A 
ATOM     19  O   UNL     1       0.390   9.471  23.504  0.00  0.00    +0.000 OA
ATOM     20  N   UNL     1      -0.400  10.595  23.585  0.00  0.00    +0.000 NA
ATOM     21  C   UNL     1      -0.555  11.028  22.327  0.00  0.00    +0.000 A 
ATOM     22  C   UNL     1      -1.426  12.209  22.108  0.00  0.00    +0.000 C 
ATOM     23  C   UNL     1       0.174  10.220  21.404  0.00  0.00    +0.000 A 
ENDBRANCH  11  13
BRANCH   1  25
ATOM     24  C   UNL     1      -3.473  10.011  13.778  0.00  0.00    +0.000 C 
ATOM     25  O   UNL     1      -3.994  10.323  15.070  0.00  0.00    +0.000 OA
ENDBRANCH   1  25
TORSDOF 2
ENDMDL
MODEL 9
REMARK VINA RESULT:      -6.4      7.768     10.340
REMARK  Name = 
REMARK  4 active torsions:
REMARK  status: ('A' for Active; 'I' for Inactive)
REMARK    1  A    between atoms: C_1  and  O_2
REMARK    2  A    between atoms: O_2  and  C_3
REMARK    3  A    between atoms: N_13  and  C_14
REMARK    4  A    between atoms: C_22  and  C_23
REMARK                            x       y       z     vdW  Elec       q    Type
REMARK                         _______ _______ _______ _____ _____    ______ ____
ROOT
ATOM      1  C   UNL     1      -3.338  10.739  16.569  0.00  0.00    +0.000 A 
ATOM      2  C   UNL     1      -3.855  11.503  17.613  0.00  0.00    +0.000 A 
ATOM      3  C   UNL     1      -3.119  11.708  18.788  0.00  0.00    +0.000 A 
ATOM      4  C   UNL     1      -1.855  11.135  18.957  0.00  0.00    +0.000 A 
ATOM      5  C   UNL     1      -1.336  10.394  17.863  0.00  0.00    +0.000 A 
ATOM      6  C   UNL     1      -2.054  10.216  16.678  0.00  0.00    +0.000 A 
ATOM      7  N   UNL     1      -0.045   9.849  17.945  0.00  0.00    +0.000 N 
ATOM      8  C   UNL     1       0.625   9.777  19.138  0.00  0.00    +0.000 C 
ATOM      9  O   UNL     1       1.788   9.388  19.205  0.00  0.00    +0.000 OA
ATOM     10  C   UNL     1      -0.222  10.119  20.361  0.00  0.00    +0.000 C 
ATOM     11  N   UNL     1      -1.022  11.332  20.103  0.00  0.00    +0.000 N 
ATOM     12  H   UNL     1       0.432   9.513  17.119  0.00  0.00    +0.000 HD
ENDROOT
BRANCH  11  13
ATOM     13  C   UNL     1      -1.191  12.194  21.203  0.00  0.00    +0.000 A 
ATOM     14  N   UNL     1      -2.363  12.186  21.889  0.00  0.00    +0.000 NA
ATOM     15  C   UNL     1      -2.556  13.039  22.905  0.00  0.00    +0.000 A 
ATOM     16 CL   UNL     1      -4.095  12.975  23.644  0.00  0.00    +0.000 Cl
ATOM     17  N   UNL     1      -1.716  13.945  23.391  0.00  0.00    +0.000 NA
ATOM     18  C   UNL     1      -0.576  13.949  22.697  0.00  0.00    +0.000 A 
ATOM     19  O   UNL     1       0.446  14.801  22.969  0.00  0.00    +0.000 OA
ATOM     20  N   UNL     1       1.469  14.613  22.066  0.00  0.00    +0.000 NA
ATOM     21  C   UNL     1       1.053  13.646  21.237  0.00  0.00    +0.000 A 
ATOM     22  C   UNL     1       1.946  13.277  20.110  0.00  0.00    +0.000 C 
ATOM     23  C   UNL     1      -0.231  13.151  21.613  0.00  0.00    +0.000 A 
ENDBRANCH  11  13
BRANCH   1  25
ATOM     24  C   UNL     1      -3.468  10.159  14.292  0.00  0.00    +0.000 C 
ATOM     25  O   UNL     1      -4.142  10.591  15.473  0.00  0.00    +0.000 OA
ENDBRANCH   1  25
TORSDOF 2
ENDMDL
