MODEL 1
REMARK VINA RESULT:      -7.6      0.000      0.000
REMARK  Name = 
REMARK  4 active torsions:
REMARK  status: ('A' for Active; 'I' for Inactive)
REMARK    1  A    between atoms: C_5  and  C_6
REMARK    2  A    between atoms: C_6  and  C_7
REMARK    3  A    between atoms: C_6  and  N_17
REMARK    4  A    between atoms: N_11  and  C_12
REMARK                            x       y       z     vdW  Elec       q    Type
REMARK                         _______ _______ _______ _____ _____    ______ ____
ROOT
ATOM      1  C   UNL     1       4.023   4.921  18.485  0.00  0.00    +0.000 C 
ENDROOT
BRANCH   1   6
ATOM      2  C   UNL     1       2.599   8.445  17.769  0.00  0.00    +0.000 A 
ATOM      3  C   UNL     1       1.930   8.654  18.956  0.00  0.00    +0.000 A 
ATOM      4  N   UNL     1       1.913   7.746  19.954  0.00  0.00    +0.000 NA
ATOM      5  C   UNL     1       2.591   6.587  19.753  0.00  0.00    +0.000 A 
ATOM      6  C   UNL     1       3.298   6.268  18.595  0.00  0.00    +0.000 A 
ATOM      7  C   UNL     1       3.287   7.244  17.586  0.00  0.00    +0.000 A 
ENDBRANCH   1   6
BRANCH   1   8
ATOM      8  C   UNL     1       5.504   5.012  18.817  0.00  0.00    +0.000 A 
ATOM      9  N   UNL     1       6.006   5.138  20.037  0.00  0.00    +0.000 NA
ATOM     10  N   UNL     1       7.362   5.214  19.911  0.00  0.00    +0.000 NA
ATOM     11  N   UNL     1       7.719   5.124  18.644  0.00  0.00    +0.000 NA
ATOM     12  N   UNL     1       6.574   4.974  17.944  0.00  0.00    +0.000 N 
BRANCH  12  13
ATOM     13  C   UNL     1       6.701   4.826  16.509  0.00  0.00    +0.000 C 
ATOM     14  C   UNL     1       6.065   3.579  15.903  0.00  0.00    +0.000 C 
ATOM     15  C   UNL     1       5.583   3.976  14.516  0.00  0.00    +0.000 C 
ATOM     16  C   UNL     1       5.456   5.492  14.500  0.00  0.00    +0.000 C 
ATOM     17  C   UNL     1       6.240   6.031  15.689  0.00  0.00    +0.000 C 
ENDBRANCH  12  13
ENDBRANCH   1   8
BRANCH   1  18
ATOM     18  N   UNL     1       3.383   3.786  19.190  0.00  0.00    +0.000 NA
ATOM     19  C   UNL     1       4.151   2.542  19.234  0.00  0.00    +0.000 C 
ATOM     20  C   UNL     1       3.504   1.609  18.230  0.00  0.00    +0.000 C 
ATOM     21  C   UNL     1       2.042   1.999  18.262  0.00  0.00    +0.000 C 
ATOM     22  C   UNL     1       2.015   3.433  18.786  0.00  0.00    +0.000 C 
ENDBRANCH   1  18
TORSDOF 4
ENDMDL
MODEL 2
REMARK VINA RESULT:      -7.5      0.835      1.185
REMARK  Name = 
REMARK  4 active torsions:
REMARK  status: ('A' for Active; 'I' for Inactive)
REMARK    1  A    between atoms: C_5  and  C_6
REMARK    2  A    between atoms: C_6  and  C_7
REMARK    3  A    between atoms: C_6  and  N_17
REMARK    4  A    between atoms: N_11  and  C_12
REMARK                            x       y       z     vdW  Elec       q    Type
REMARK                         _______ _______ _______ _____ _____    ______ ____
ROOT
ATOM      1  C   UNL     1       3.817   4.971  18.435  0.00  0.00    +0.000 C 
ENDROOT
BRANCH   1   6
ATOM      2  C   UNL     1       1.813   8.003  19.758  0.00  0.00    +0.000 A 
ATOM      3  C   UNL     1       1.942   8.840  18.671  0.00  0.00    +0.000 A 
ATOM      4  N   UNL     1       2.620   8.491  17.558  0.00  0.00    +0.000 NA
ATOM      5  C   UNL     1       3.190   7.259  17.536  0.00  0.00    +0.000 A 
ATOM      6  C   UNL     1       3.127   6.334  18.576  0.00  0.00    +0.000 A 
ATOM      7  C   UNL     1       2.410   6.742  19.712  0.00  0.00    +0.000 A 
ENDBRANCH   1   6
BRANCH   1   8
ATOM      8  C   UNL     1       5.308   5.025  18.722  0.00  0.00    +0.000 A 
ATOM      9  N   UNL     1       5.853   5.436  19.859  0.00  0.00    +0.000 NA
ATOM     10  N   UNL     1       7.206   5.361  19.709  0.00  0.00    +0.000 NA
ATOM     11  N   UNL     1       7.520   4.901  18.514  0.00  0.00    +0.000 NA
ATOM     12  N   UNL     1       6.348   4.662  17.888  0.00  0.00    +0.000 N 
BRANCH  12  13
ATOM     13  C   UNL     1       6.423   4.119  16.547  0.00  0.00    +0.000 C 
ATOM     14  C   UNL     1       5.109   4.052  15.775  0.00  0.00    +0.000 C 
ATOM     15  C   UNL     1       5.461   4.270  14.311  0.00  0.00    +0.000 C 
ATOM     16  C   UNL     1       6.819   4.954  14.272  0.00  0.00    +0.000 C 
ATOM     17  C   UNL     1       7.465   4.773  15.639  0.00  0.00    +0.000 C 
ENDBRANCH  12  13
ENDBRANCH   1   8
BRANCH   1  18
ATOM     18  N   UNL     1       3.172   3.847  19.153  0.00  0.00    +0.000 NA
ATOM     19  C   UNL     1       3.980   2.636  19.307  0.00  0.00    +0.000 C 
ATOM     20  C   UNL     1       3.434   1.633  18.310  0.00  0.00    +0.000 C 
ATOM     21  C   UNL     1       1.959   1.968  18.229  0.00  0.00    +0.000 C 
ATOM     22  C   UNL     1       1.847   3.422  18.679  0.00  0.00    +0.000 C 
ENDBRANCH   1  18
TORSDOF 4
ENDMDL
MODEL 3
REMARK VINA RESULT:      -7.3      0.915      1.440
REMARK  Name = 
REMARK  4 active torsions:
REMARK  status: ('A' for Active; 'I' for Inactive)
REMARK    1  A    between atoms: C_5  and  C_6
REMARK    2  A    between atoms: C_6  and  C_7
REMARK    3  A    between atoms: C_6  and  N_17
REMARK    4  A    between atoms: N_11  and  C_12
REMARK                            x       y       z     vdW  Elec       q    Type
REMARK                         _______ _______ _______ _____ _____    ______ ____
ROOT
ATOM      1  C   UNL     1       3.601   5.075  18.553  0.00  0.00    +0.000 C 
ENDROOT
BRANCH   1   6
ATOM      2  C   UNL     1       1.677   7.884  20.390  0.00  0.00    +0.000 A 
ATOM      3  C   UNL     1       1.639   8.819  19.378  0.00  0.00    +0.000 A 
ATOM      4  N   UNL     1       2.182   8.601  18.162  0.00  0.00    +0.000 NA
ATOM      5  C   UNL     1       2.787   7.403  17.956  0.00  0.00    +0.000 A 
ATOM      6  C   UNL     1       2.888   6.388  18.905  0.00  0.00    +0.000 A 
ATOM      7  C   UNL     1       2.307   6.661  20.153  0.00  0.00    +0.000 A 
ENDBRANCH   1   6
BRANCH   1   8
ATOM      8  C   UNL     1       5.114   5.173  18.657  0.00  0.00    +0.000 A 
ATOM      9  N   UNL     1       5.806   5.138  19.786  0.00  0.00    +0.000 NA
ATOM     10  N   UNL     1       7.122   5.283  19.459  0.00  0.00    +0.000 NA
ATOM     11  N   UNL     1       7.270   5.394  18.154  0.00  0.00    +0.000 NA
ATOM     12  N   UNL     1       6.029   5.305  17.629  0.00  0.00    +0.000 N 
BRANCH  12  13
ATOM     13  C   UNL     1       5.923   5.375  16.187  0.00  0.00    +0.000 C 
ATOM     14  C   UNL     1       7.236   5.516  15.423  0.00  0.00    +0.000 C 
ATOM     15  C   UNL     1       7.044   4.782  14.104  0.00  0.00    +0.000 C 
ATOM     16  C   UNL     1       5.887   3.813  14.292  0.00  0.00    +0.000 C 
ATOM     17  C   UNL     1       5.125   4.244  15.538  0.00  0.00    +0.000 C 
ENDBRANCH  12  13
ENDBRANCH   1   8
BRANCH   1  18
ATOM     18  N   UNL     1       3.092   3.864  19.238  0.00  0.00    +0.000 NA
ATOM     19  C   UNL     1       3.683   2.593  18.818  0.00  0.00    +0.000 C 
ATOM     20  C   UNL     1       2.644   1.909  17.952  0.00  0.00    +0.000 C 
ATOM     21  C   UNL     1       1.325   2.367  18.538  0.00  0.00    +0.000 C 
ATOM     22  C   UNL     1       1.636   3.673  19.266  0.00  0.00    +0.000 C 
ENDBRANCH   1  18
TORSDOF 4
ENDMDL
MODEL 4
REMARK VINA RESULT:      -7.2      0.843      1.054
REMARK  Name = 
REMARK  4 active torsions:
REMARK  status: ('A' for Active; 'I' for Inactive)
REMARK    1  A    between atoms: C_5  and  C_6
REMARK    2  A    between atoms: C_6  and  C_7
REMARK    3  A    between atoms: C_6  and  N_17
REMARK    4  A    between atoms: N_11  and  C_12
REMARK                            x       y       z     vdW  Elec       q    Type
REMARK                         _______ _______ _______ _____ _____    ______ ____
ROOT
ATOM      1  C   UNL     1       3.458   5.216  18.757  0.00  0.00    +0.000 C 
ENDROOT
BRANCH   1   6
ATOM      2  C   UNL     1       2.227   8.823  18.100  0.00  0.00    +0.000 A 
ATOM      3  C   UNL     1       1.614   9.068  19.310  0.00  0.00    +0.000 A 
ATOM      4  N   UNL     1       1.578   8.159  20.307  0.00  0.00    +0.000 NA
ATOM      5  C   UNL     1       2.177   6.961  20.079  0.00  0.00    +0.000 A 
ATOM      6  C   UNL     1       2.821   6.605  18.896  0.00  0.00    +0.000 A 
ATOM      7  C   UNL     1       2.833   7.584  17.890  0.00  0.00    +0.000 A 
ENDBRANCH   1   6
BRANCH   1   8
ATOM      8  C   UNL     1       4.974   5.243  18.867  0.00  0.00    +0.000 A 
ATOM      9  N   UNL     1       5.660   5.161  19.998  0.00  0.00    +0.000 NA
ATOM     10  N   UNL     1       6.982   5.250  19.677  0.00  0.00    +0.000 NA
ATOM     11  N   UNL     1       7.140   5.371  18.374  0.00  0.00    +0.000 NA
ATOM     12  N   UNL     1       5.898   5.345  17.844  0.00  0.00    +0.000 N 
BRANCH  12  13
ATOM     13  C   UNL     1       5.801   5.439  16.403  0.00  0.00    +0.000 C 
ATOM     14  C   UNL     1       7.120   5.395  15.636  0.00  0.00    +0.000 C 
ATOM     15  C   UNL     1       6.822   4.704  14.314  0.00  0.00    +0.000 C 
ATOM     16  C   UNL     1       5.538   3.910  14.499  0.00  0.00    +0.000 C 
ATOM     17  C   UNL     1       4.848   4.438  15.750  0.00  0.00    +0.000 C 
ENDBRANCH  12  13
ENDBRANCH   1   8
BRANCH   1  18
ATOM     18  N   UNL     1       2.876   4.153  19.610  0.00  0.00    +0.000 NA
ATOM     19  C   UNL     1       3.514   2.839  19.523  0.00  0.00    +0.000 C 
ATOM     20  C   UNL     1       2.584   1.970  18.700  0.00  0.00    +0.000 C 
ATOM     21  C   UNL     1       1.205   2.503  19.030  0.00  0.00    +0.000 C 
ATOM     22  C   UNL     1       1.427   3.935  19.511  0.00  0.00    +0.000 C 
ENDBRANCH   1  18
TORSDOF 4
ENDMDL
MODEL 5
REMARK VINA RESULT:      -7.0      0.788      1.081
REMARK  Name = 
REMARK  4 active torsions:
REMARK  status: ('A' for Active; 'I' for Inactive)
REMARK    1  A    between atoms: C_5  and  C_6
REMARK    2  A    between atoms: C_6  and  C_7
REMARK    3  A    between atoms: C_6  and  N_17
REMARK    4  A    between atoms: N_11  and  C_12
REMARK                            x       y       z     vdW  Elec       q    Type
REMARK                         _______ _______ _______ _____ _____    ______ ____
ROOT
ATOM      1  C   UNL     1       3.910   4.757  18.555  0.00  0.00    +0.000 C 
ENDROOT
BRANCH   1   6
ATOM      2  C   UNL     1       2.357   8.231  17.864  0.00  0.00    +0.000 A 
ATOM      3  C   UNL     1       1.841   8.491  19.116  0.00  0.00    +0.000 A 
ATOM      4  N   UNL     1       1.965   7.632  20.149  0.00  0.00    +0.000 NA
ATOM      5  C   UNL     1       2.629   6.470  19.917  0.00  0.00    +0.000 A 
ATOM      6  C   UNL     1       3.186   6.102  18.695  0.00  0.00    +0.000 A 
ATOM      7  C   UNL     1       3.032   7.028  17.651  0.00  0.00    +0.000 A 
ENDBRANCH   1   6
BRANCH   1   8
ATOM      8  C   UNL     1       5.410   4.861  18.782  0.00  0.00    +0.000 A 
ATOM      9  N   UNL     1       5.987   5.251  19.909  0.00  0.00    +0.000 NA
ATOM     10  N   UNL     1       7.334   5.237  19.700  0.00  0.00    +0.000 NA
ATOM     11  N   UNL     1       7.613   4.835  18.476  0.00  0.00    +0.000 NA
ATOM     12  N   UNL     1       6.426   4.571  17.890  0.00  0.00    +0.000 N 
BRANCH  12  13
ATOM     13  C   UNL     1       6.463   4.083  16.528  0.00  0.00    +0.000 C 
ATOM     14  C   UNL     1       5.126   4.030  15.795  0.00  0.00    +0.000 C 
ATOM     15  C   UNL     1       5.429   4.310  14.331  0.00  0.00    +0.000 C 
ATOM     16  C   UNL     1       6.778   5.011  14.276  0.00  0.00    +0.000 C 
ATOM     17  C   UNL     1       7.469   4.784  15.614  0.00  0.00    +0.000 C 
ENDBRANCH  12  13
ENDBRANCH   1   8
BRANCH   1  18
ATOM     18  N   UNL     1       3.328   3.630  19.322  0.00  0.00    +0.000 NA
ATOM     19  C   UNL     1       2.737   2.552  18.528  0.00  0.00    +0.000 C 
ATOM     20  C   UNL     1       1.235   2.722  18.635  0.00  0.00    +0.000 C 
ATOM     21  C   UNL     1       1.033   3.308  20.016  0.00  0.00    +0.000 C 
ATOM     22  C   UNL     1       2.362   3.967  20.376  0.00  0.00    +0.000 C 
ENDBRANCH   1  18
TORSDOF 4
ENDMDL
MODEL 6
REMARK VINA RESULT:      -6.9      1.474      2.042
REMARK  Name = 
REMARK  4 active torsions:
REMARK  status: ('A' for Active; 'I' for Inactive)
REMARK    1  A    between atoms: C_5  and  C_6
REMARK    2  A    between atoms: C_6  and  C_7
REMARK    3  A    between atoms: C_6  and  N_17
REMARK    4  A    between atoms: N_11  and  C_12
REMARK                            x       y       z     vdW  Elec       q    Type
REMARK                         _______ _______ _______ _____ _____    ______ ____
ROOT
ATOM      1  C   UNL     1       4.331   4.218  17.593  0.00  0.00    +0.000 C 
ENDROOT
BRANCH   1   6
ATOM      2  C   UNL     1       1.673   6.993  18.031  0.00  0.00    +0.000 A 
ATOM      3  C   UNL     1       2.487   8.097  17.895  0.00  0.00    +0.000 A 
ATOM      4  N   UNL     1       3.814   8.003  17.671  0.00  0.00    +0.000 NA
ATOM      5  C   UNL     1       4.343   6.755  17.583  0.00  0.00    +0.000 A 
ATOM      6  C   UNL     1       3.618   5.572  17.708  0.00  0.00    +0.000 A 
ATOM      7  C   UNL     1       2.242   5.722  17.939  0.00  0.00    +0.000 A 
ENDBRANCH   1   6
BRANCH   1   8
ATOM      8  C   UNL     1       5.839   4.349  17.455  0.00  0.00    +0.000 A 
ATOM      9  N   UNL     1       6.710   4.231  18.446  0.00  0.00    +0.000 NA
ATOM     10  N   UNL     1       7.951   4.443  17.923  0.00  0.00    +0.000 NA
ATOM     11  N   UNL     1       7.878   4.676  16.627  0.00  0.00    +0.000 NA
ATOM     12  N   UNL     1       6.569   4.599  16.307  0.00  0.00    +0.000 N 
BRANCH  12  13
ATOM     13  C   UNL     1       6.223   4.797  14.916  0.00  0.00    +0.000 C 
ATOM     14  C   UNL     1       7.375   5.159  13.982  0.00  0.00    +0.000 C 
ATOM     15  C   UNL     1       7.043   4.539  12.633  0.00  0.00    +0.000 C 
ATOM     16  C   UNL     1       6.030   3.432  12.883  0.00  0.00    +0.000 C 
ATOM     17  C   UNL     1       5.443   3.651  14.271  0.00  0.00    +0.000 C 
ENDBRANCH  12  13
ENDBRANCH   1   8
BRANCH   1  18
ATOM     18  N   UNL     1       3.971   3.213  18.620  0.00  0.00    +0.000 NA
ATOM     19  C   UNL     1       3.202   2.060  18.147  0.00  0.00    +0.000 C 
ATOM     20  C   UNL     1       1.776   2.284  18.610  0.00  0.00    +0.000 C 
ATOM     21  C   UNL     1       1.932   3.042  19.911  0.00  0.00    +0.000 C 
ATOM     22  C   UNL     1       3.306   3.704  19.834  0.00  0.00    +0.000 C 
ENDBRANCH   1  18
TORSDOF 4
ENDMDL
MODEL 7
REMARK VINA RESULT:      -6.9      1.067      1.722
REMARK  Name = 
REMARK  4 active torsions:
REMARK  status: ('A' for Active; 'I' for Inactive)
REMARK    1  A    between atoms: C_5  and  C_6
REMARK    2  A    between atoms: C_6  and  C_7
REMARK    3  A    between atoms: C_6  and  N_17
REMARK    4  A    between atoms: N_11  and  C_12
REMARK                            x       y       z     vdW  Elec       q    Type
REMARK                         _______ _______ _______ _____ _____    ______ ____
ROOT
ATOM      1  C   UNL     1       3.614   5.199  18.061  0.00  0.00    +0.000 C 
ENDROOT
BRANCH   1   6
ATOM      2  C   UNL     1       1.807   7.687  20.408  0.00  0.00    +0.000 A 
ATOM      3  C   UNL     1       1.544   8.690  19.500  0.00  0.00    +0.000 A 
ATOM      4  N   UNL     1       1.904   8.612  18.202  0.00  0.00    +0.000 NA
ATOM      5  C   UNL     1       2.552   7.488  17.802  0.00  0.00    +0.000 A 
ATOM      6  C   UNL     1       2.873   6.416  18.631  0.00  0.00    +0.000 A 
ATOM      7  C   UNL     1       2.477   6.542  19.972  0.00  0.00    +0.000 A 
ENDBRANCH   1   6
BRANCH   1   8
ATOM      8  C   UNL     1       5.064   5.121  18.510  0.00  0.00    +0.000 A 
ATOM      9  N   UNL     1       5.516   5.482  19.702  0.00  0.00    +0.000 NA
ATOM     10  N   UNL     1       6.866   5.287  19.700  0.00  0.00    +0.000 NA
ATOM     11  N   UNL     1       7.265   4.800  18.541  0.00  0.00    +0.000 NA
ATOM     12  N   UNL     1       6.152   4.665  17.789  0.00  0.00    +0.000 N 
BRANCH  12  13
ATOM     13  C   UNL     1       6.325   4.117  16.460  0.00  0.00    +0.000 C 
ATOM     14  C   UNL     1       5.079   4.086  15.580  0.00  0.00    +0.000 C 
ATOM     15  C   UNL     1       5.560   4.290  14.151  0.00  0.00    +0.000 C 
ATOM     16  C   UNL     1       6.935   4.934  14.226  0.00  0.00    +0.000 C 
ATOM     17  C   UNL     1       7.458   4.739  15.643  0.00  0.00    +0.000 C 
ENDBRANCH  12  13
ENDBRANCH   1   8
BRANCH   1  18
ATOM     18  N   UNL     1       2.930   3.895  18.226  0.00  0.00    +0.000 NA
ATOM     19  C   UNL     1       1.467   3.931  18.202  0.00  0.00    +0.000 C 
ATOM     20  C   UNL     1       1.016   3.762  19.639  0.00  0.00    +0.000 C 
ATOM     21  C   UNL     1       2.084   2.882  20.254  0.00  0.00    +0.000 C 
ATOM     22  C   UNL     1       3.321   3.074  19.379  0.00  0.00    +0.000 C 
ENDBRANCH   1  18
TORSDOF 4
ENDMDL
MODEL 8
REMARK VINA RESULT:      -6.9      1.144      1.602
REMARK  Name = 
REMARK  4 active torsions:
REMARK  status: ('A' for Active; 'I' for Inactive)
REMARK    1  A    between atoms: C_5  and  C_6
REMARK    2  A    between atoms: C_6  and  C_7
REMARK    3  A    between atoms: C_6  and  N_17
REMARK    4  A    between atoms: N_11  and  C_12
REMARK                            x       y       z     vdW  Elec       q    Type
REMARK                         _______ _______ _______ _____ _____    ______ ____
ROOT
ATOM      1  C   UNL     1       4.093   4.358  17.821  0.00  0.00    +0.000 C 
ENDROOT
BRANCH   1   6
ATOM      2  C   UNL     1       2.632   7.936  17.967  0.00  0.00    +0.000 A 
ATOM      3  C   UNL     1       2.118   7.909  19.246  0.00  0.00    +0.000 A 
ATOM      4  N   UNL     1       2.216   6.829  20.049  0.00  0.00    +0.000 NA
ATOM      5  C   UNL     1       2.850   5.737  19.550  0.00  0.00    +0.000 A 
ATOM      6  C   UNL     1       3.403   5.651  18.274  0.00  0.00    +0.000 A 
ATOM      7  C   UNL     1       3.277   6.800  17.477  0.00  0.00    +0.000 A 
ENDBRANCH   1   6
BRANCH   1   8
ATOM      8  C   UNL     1       5.608   4.474  17.780  0.00  0.00    +0.000 A 
ATOM      9  N   UNL     1       6.414   4.326  18.822  0.00  0.00    +0.000 NA
ATOM     10  N   UNL     1       7.688   4.534  18.381  0.00  0.00    +0.000 NA
ATOM     11  N   UNL     1       7.698   4.793  17.088  0.00  0.00    +0.000 NA
ATOM     12  N   UNL     1       6.411   4.738  16.686  0.00  0.00    +0.000 N 
BRANCH  12  13
ATOM     13  C   UNL     1       6.155   4.967  15.280  0.00  0.00    +0.000 C 
ATOM     14  C   UNL     1       7.381   5.223  14.407  0.00  0.00    +0.000 C 
ATOM     15  C   UNL     1       7.062   4.636  13.040  0.00  0.00    +0.000 C 
ATOM     16  C   UNL     1       5.941   3.627  13.233  0.00  0.00    +0.000 C 
ATOM     17  C   UNL     1       5.307   3.897  14.591  0.00  0.00    +0.000 C 
ENDBRANCH  12  13
ENDBRANCH   1   8
BRANCH   1  18
ATOM     18  N   UNL     1       3.668   3.123  18.521  0.00  0.00    +0.000 NA
ATOM     19  C   UNL     1       2.740   2.259  17.790  0.00  0.00    +0.000 C 
ATOM     20  C   UNL     1       1.379   2.468  18.423  0.00  0.00    +0.000 C 
ATOM     21  C   UNL     1       1.695   2.763  19.874  0.00  0.00    +0.000 C 
ATOM     22  C   UNL     1       3.133   3.275  19.881  0.00  0.00    +0.000 C 
ENDBRANCH   1  18
TORSDOF 4
ENDMDL
MODEL 9
REMARK VINA RESULT:      -6.8      2.165      6.013
REMARK  Name = 
REMARK  4 active torsions:
REMARK  status: ('A' for Active; 'I' for Inactive)
REMARK    1  A    between atoms: C_5  and  C_6
REMARK    2  A    between atoms: C_6  and  C_7
REMARK    3  A    between atoms: C_6  and  N_17
REMARK    4  A    between atoms: N_11  and  C_12
REMARK                            x       y       z     vdW  Elec       q    Type
REMARK                         _______ _______ _______ _____ _____    ______ ____
ROOT
ATOM      1  C   UNL     1       2.906   5.899  19.433  0.00  0.00    +0.000 C 
ENDROOT
BRANCH   1   6
ATOM      2  C   UNL     1       5.361   5.054  16.566  0.00  0.00    +0.000 A 
ATOM      3  C   UNL     1       6.438   4.638  17.319  0.00  0.00    +0.000 A 
ATOM      4  N   UNL     1       6.420   4.612  18.668  0.00  0.00    +0.000 NA
ATOM      5  C   UNL     1       5.280   5.018  19.283  0.00  0.00    +0.000 A 
ATOM      6  C   UNL     1       4.134   5.461  18.625  0.00  0.00    +0.000 A 
ATOM      7  C   UNL     1       4.201   5.469  17.223  0.00  0.00    +0.000 A 
ENDBRANCH   1   6
BRANCH   1   8
ATOM      8  C   UNL     1       2.415   7.289  19.062  0.00  0.00    +0.000 A 
ATOM      9  N   UNL     1       2.600   7.878  17.890  0.00  0.00    +0.000 NA
ATOM     10  N   UNL     1       2.038   9.118  17.966  0.00  0.00    +0.000 NA
ATOM     11  N   UNL     1       1.496   9.314  19.152  0.00  0.00    +0.000 NA
ATOM     12  N   UNL     1       1.698   8.174  19.847  0.00  0.00    +0.000 N 
BRANCH  12  13
ATOM     13  C   UNL     1       1.166   8.126  21.192  0.00  0.00    +0.000 C 
ATOM     14  C   UNL     1       1.693   9.181  22.161  0.00  0.00    +0.000 C 
ATOM     15  C   UNL     1       0.547   9.501  23.109  0.00  0.00    +0.000 C 
ATOM     16  C   UNL     1      -0.739   9.066  22.424  0.00  0.00    +0.000 C 
ATOM     17  C   UNL     1      -0.360   8.125  21.288  0.00  0.00    +0.000 C 
ENDBRANCH  12  13
ENDBRANCH   1   8
BRANCH   1  18
ATOM     18  N   UNL     1       1.787   4.929  19.479  0.00  0.00    +0.000 NA
ATOM     19  C   UNL     1       1.468   4.379  20.797  0.00  0.00    +0.000 C 
ATOM     20  C   UNL     1       2.013   2.964  20.808  0.00  0.00    +0.000 C 
ATOM     21  C   UNL     1       1.882   2.514  19.369  0.00  0.00    +0.000 C 
ATOM     22  C   UNL     1       1.842   3.798  18.543  0.00  0.00    +0.000 C 
ENDBRANCH   1  18
TORSDOF 4
ENDMDL
