MODEL 1
REMARK VINA RESULT:      -7.3      0.000      0.000
REMARK  Name = 
REMARK  5 active torsions:
REMARK  status: ('A' for Active; 'I' for Inactive)
REMARK    1  A    between atoms: C_1  and  C_2
REMARK    2  A    between atoms: C_2  and  C_3
REMARK    3  A    between atoms: C_4  and  C_5
REMARK    4  A    between atoms: C_5  and  O_6
REMARK    5  A    between atoms: O_6  and  C_7
REMARK                            x       y       z     vdW  Elec       q    Type
REMARK                         _______ _______ _______ _____ _____    ______ ____
ROOT
ATOM      1  C   UNL     1       3.140   5.900  18.168  0.00  0.00    +0.000 A 
ATOM      2  C   UNL     1       2.739   6.982  18.973  0.00  0.00    +0.000 A 
ATOM      3  C   UNL     1       2.059   6.788  20.169  0.00  0.00    +0.000 A 
ATOM      4  C   UNL     1       1.714   5.501  20.563  0.00  0.00    +0.000 A 
ATOM      5  C   UNL     1       2.053   4.413  19.749  0.00  0.00    +0.000 A 
ATOM      6  C   UNL     1       2.783   4.595  18.563  0.00  0.00    +0.000 A 
ATOM      7  C   UNL     1       3.167   3.389  17.780  0.00  0.00    +0.000 C 
ATOM      8  O   UNL     1       4.014   3.387  16.899  0.00  0.00    +0.000 OA
ATOM      9  C   UNL     1       2.503   2.109  18.122  0.00  0.00    +0.000 C 
ATOM     10  C   UNL     1       1.774   1.962  19.230  0.00  0.00    +0.000 C 
ATOM     11  C   UNL     1       1.580   3.074  20.171  0.00  0.00    +0.000 C 
ATOM     12  O   UNL     1       1.017   2.889  21.242  0.00  0.00    +0.000 OA
ENDROOT
BRANCH   1  13
ATOM     13  O   UNL     1       3.791   6.098  16.969  0.00  0.00    +0.000 OA
BRANCH  13  14
ATOM     14  C   UNL     1       5.018   6.830  17.061  0.00  0.00    +0.000 C 
BRANCH  14  18
ATOM     15  C   UNL     1       8.136   5.737  19.144  0.00  0.00    +0.000 C 
ATOM     16  C   UNL     1       7.256   6.536  18.222  0.00  0.00    +0.000 C 
ATOM     17  C   UNL     1       7.824   7.831  17.702  0.00  0.00    +0.000 C 
ATOM     18  C   UNL     1       6.021   6.092  17.902  0.00  0.00    +0.000 C 
ENDBRANCH  14  18
ENDBRANCH  13  14
ENDBRANCH   1  13
TORSDOF 3
ENDMDL
MODEL 2
REMARK VINA RESULT:      -7.3      1.190      1.570
REMARK  Name = 
REMARK  5 active torsions:
REMARK  status: ('A' for Active; 'I' for Inactive)
REMARK    1  A    between atoms: C_1  and  C_2
REMARK    2  A    between atoms: C_2  and  C_3
REMARK    3  A    between atoms: C_4  and  C_5
REMARK    4  A    between atoms: C_5  and  O_6
REMARK    5  A    between atoms: O_6  and  C_7
REMARK                            x       y       z     vdW  Elec       q    Type
REMARK                         _______ _______ _______ _____ _____    ______ ____
ROOT
ATOM      1  C   UNL     1       4.113   4.981  17.153  0.00  0.00    +0.000 A 
ATOM      2  C   UNL     1       4.042   6.385  17.189  0.00  0.00    +0.000 A 
ATOM      3  C   UNL     1       3.221   7.052  18.091  0.00  0.00    +0.000 A 
ATOM      4  C   UNL     1       2.405   6.321  18.947  0.00  0.00    +0.000 A 
ATOM      5  C   UNL     1       2.417   4.922  18.889  0.00  0.00    +0.000 A 
ATOM      6  C   UNL     1       3.280   4.240  18.015  0.00  0.00    +0.000 A 
ATOM      7  C   UNL     1       3.288   2.752  18.053  0.00  0.00    +0.000 C 
ATOM      8  O   UNL     1       4.163   2.061  17.553  0.00  0.00    +0.000 OA
ATOM      9  C   UNL     1       2.184   2.078  18.775  0.00  0.00    +0.000 C 
ATOM     10  C   UNL     1       1.343   2.745  19.568  0.00  0.00    +0.000 C 
ATOM     11  C   UNL     1       1.461   4.197  19.758  0.00  0.00    +0.000 C 
ATOM     12  O   UNL     1       0.765   4.772  20.584  0.00  0.00    +0.000 OA
ENDROOT
BRANCH   1  13
ATOM     13  O   UNL     1       4.909   4.324  16.239  0.00  0.00    +0.000 OA
BRANCH  13  14
ATOM     14  C   UNL     1       6.254   4.806  16.151  0.00  0.00    +0.000 C 
BRANCH  14  18
ATOM     15  C   UNL     1       8.044   5.663  19.515  0.00  0.00    +0.000 C 
ATOM     16  C   UNL     1       7.473   5.822  18.132  0.00  0.00    +0.000 C 
ATOM     17  C   UNL     1       7.540   7.201  17.529  0.00  0.00    +0.000 C 
ATOM     18  C   UNL     1       6.926   4.763  17.494  0.00  0.00    +0.000 C 
ENDBRANCH  14  18
ENDBRANCH  13  14
ENDBRANCH   1  13
TORSDOF 3
ENDMDL
MODEL 3
REMARK VINA RESULT:      -7.2      1.035      2.932
REMARK  Name = 
REMARK  5 active torsions:
REMARK  status: ('A' for Active; 'I' for Inactive)
REMARK    1  A    between atoms: C_1  and  C_2
REMARK    2  A    between atoms: C_2  and  C_3
REMARK    3  A    between atoms: C_4  and  C_5
REMARK    4  A    between atoms: C_5  and  O_6
REMARK    5  A    between atoms: O_6  and  C_7
REMARK                            x       y       z     vdW  Elec       q    Type
REMARK                         _______ _______ _______ _____ _____    ______ ____
ROOT
ATOM      1  C   UNL     1       3.917   4.524  17.313  0.00  0.00    +0.000 A 
ATOM      2  C   UNL     1       4.118   3.145  17.116  0.00  0.00    +0.000 A 
ATOM      3  C   UNL     1       3.474   2.194  17.900  0.00  0.00    +0.000 A 
ATOM      4  C   UNL     1       2.651   2.606  18.941  0.00  0.00    +0.000 A 
ATOM      5  C   UNL     1       2.481   3.973  19.192  0.00  0.00    +0.000 A 
ATOM      6  C   UNL     1       3.089   4.941  18.375  0.00  0.00    +0.000 A 
ATOM      7  C   UNL     1       2.812   6.375  18.658  0.00  0.00    +0.000 C 
ATOM      8  O   UNL     1       3.051   7.285  17.877  0.00  0.00    +0.000 OA
ATOM      9  C   UNL     1       2.174   6.709  19.953  0.00  0.00    +0.000 C 
ATOM     10  C   UNL     1       1.640   5.774  20.742  0.00  0.00    +0.000 C 
ATOM     11  C   UNL     1       1.668   4.353  20.371  0.00  0.00    +0.000 C 
ATOM     12  O   UNL     1       1.065   3.525  21.041  0.00  0.00    +0.000 OA
ENDROOT
BRANCH   1  13
ATOM     13  O   UNL     1       4.578   5.464  16.551  0.00  0.00    +0.000 OA
BRANCH  13  14
ATOM     14  C   UNL     1       6.004   5.338  16.540  0.00  0.00    +0.000 C 
BRANCH  14  18
ATOM     15  C   UNL     1       8.133   8.270  17.998  0.00  0.00    +0.000 C 
ATOM     16  C   UNL     1       7.469   6.926  17.873  0.00  0.00    +0.000 C 
ATOM     17  C   UNL     1       7.766   5.922  18.956  0.00  0.00    +0.000 C 
ATOM     18  C   UNL     1       6.660   6.660  16.823  0.00  0.00    +0.000 C 
ENDBRANCH  14  18
ENDBRANCH  13  14
ENDBRANCH   1  13
TORSDOF 3
ENDMDL
MODEL 4
REMARK VINA RESULT:      -7.1      0.887      1.041
REMARK  Name = 
REMARK  5 active torsions:
REMARK  status: ('A' for Active; 'I' for Inactive)
REMARK    1  A    between atoms: C_1  and  C_2
REMARK    2  A    between atoms: C_2  and  C_3
REMARK    3  A    between atoms: C_4  and  C_5
REMARK    4  A    between atoms: C_5  and  O_6
REMARK    5  A    between atoms: O_6  and  C_7
REMARK                            x       y       z     vdW  Elec       q    Type
REMARK                         _______ _______ _______ _____ _____    ______ ____
ROOT
ATOM      1  C   UNL     1       2.948   6.036  18.305  0.00  0.00    +0.000 A 
ATOM      2  C   UNL     1       2.574   7.050  19.206  0.00  0.00    +0.000 A 
ATOM      3  C   UNL     1       1.940   6.759  20.409  0.00  0.00    +0.000 A 
ATOM      4  C   UNL     1       1.614   5.443  20.713  0.00  0.00    +0.000 A 
ATOM      5  C   UNL     1       1.926   4.423  19.805  0.00  0.00    +0.000 A 
ATOM      6  C   UNL     1       2.610   4.702  18.610  0.00  0.00    +0.000 A 
ATOM      7  C   UNL     1       2.968   3.563  17.722  0.00  0.00    +0.000 C 
ATOM      8  O   UNL     1       3.781   3.635  16.812  0.00  0.00    +0.000 OA
ATOM      9  C   UNL     1       2.322   2.256  17.987  0.00  0.00    +0.000 C 
ATOM     10  C   UNL     1       1.635   2.019  19.107  0.00  0.00    +0.000 C 
ATOM     11  C   UNL     1       1.473   3.053  20.138  0.00  0.00    +0.000 C 
ATOM     12  O   UNL     1       0.952   2.781  21.212  0.00  0.00    +0.000 OA
ENDROOT
BRANCH   1  13
ATOM     13  O   UNL     1       3.553   6.331  17.101  0.00  0.00    +0.000 OA
BRANCH  13  14
ATOM     14  C   UNL     1       4.773   7.073  17.204  0.00  0.00    +0.000 C 
BRANCH  14  18
ATOM     15  C   UNL     1       7.715   4.514  17.424  0.00  0.00    +0.000 C 
ATOM     16  C   UNL     1       6.587   5.417  17.843  0.00  0.00    +0.000 C 
ATOM     17  C   UNL     1       6.208   5.392  19.301  0.00  0.00    +0.000 C 
ATOM     18  C   UNL     1       5.959   6.193  16.932  0.00  0.00    +0.000 C 
ENDBRANCH  14  18
ENDBRANCH  13  14
ENDBRANCH   1  13
TORSDOF 3
ENDMDL
MODEL 5
REMARK VINA RESULT:      -7.1      1.467      2.130
REMARK  Name = 
REMARK  5 active torsions:
REMARK  status: ('A' for Active; 'I' for Inactive)
REMARK    1  A    between atoms: C_1  and  C_2
REMARK    2  A    between atoms: C_2  and  C_3
REMARK    3  A    between atoms: C_4  and  C_5
REMARK    4  A    between atoms: C_5  and  O_6
REMARK    5  A    between atoms: O_6  and  C_7
REMARK                            x       y       z     vdW  Elec       q    Type
REMARK                         _______ _______ _______ _____ _____    ______ ____
ROOT
ATOM      1  C   UNL     1       4.134   5.291  17.467  0.00  0.00    +0.000 A 
ATOM      2  C   UNL     1       4.064   6.613  16.992  0.00  0.00    +0.000 A 
ATOM      3  C   UNL     1       3.351   7.596  17.670  0.00  0.00    +0.000 A 
ATOM      4  C   UNL     1       2.643   7.261  18.818  0.00  0.00    +0.000 A 
ATOM      5  C   UNL     1       2.652   5.939  19.278  0.00  0.00    +0.000 A 
ATOM      6  C   UNL     1       3.409   4.950  18.627  0.00  0.00    +0.000 A 
ATOM      7  C   UNL     1       3.426   3.581  19.209  0.00  0.00    +0.000 C 
ATOM      8  O   UNL     1       4.240   2.720  18.905  0.00  0.00    +0.000 OA
ATOM      9  C   UNL     1       2.416   3.261  20.244  0.00  0.00    +0.000 C 
ATOM     10  C   UNL     1       1.670   4.205  20.822  0.00  0.00    +0.000 C 
ATOM     11  C   UNL     1       1.806   5.620  20.451  0.00  0.00    +0.000 C 
ATOM     12  O   UNL     1       1.208   6.485  21.079  0.00  0.00    +0.000 OA
ENDROOT
BRANCH   1  13
ATOM     13  O   UNL     1       4.820   4.314  16.778  0.00  0.00    +0.000 OA
BRANCH  13  14
ATOM     14  C   UNL     1       6.198   4.608  16.524  0.00  0.00    +0.000 C 
BRANCH  14  18
ATOM     15  C   UNL     1       8.221   5.758  19.661  0.00  0.00    +0.000 C 
ATOM     16  C   UNL     1       7.538   5.799  18.320  0.00  0.00    +0.000 C 
ATOM     17  C   UNL     1       7.514   7.130  17.615  0.00  0.00    +0.000 C 
ATOM     18  C   UNL     1       6.976   4.682  17.807  0.00  0.00    +0.000 C 
ENDBRANCH  14  18
ENDBRANCH  13  14
ENDBRANCH   1  13
TORSDOF 3
ENDMDL
MODEL 6
REMARK VINA RESULT:      -7.1      1.083      2.887
REMARK  Name = 
REMARK  5 active torsions:
REMARK  status: ('A' for Active; 'I' for Inactive)
REMARK    1  A    between atoms: C_1  and  C_2
REMARK    2  A    between atoms: C_2  and  C_3
REMARK    3  A    between atoms: C_4  and  C_5
REMARK    4  A    between atoms: C_5  and  O_6
REMARK    5  A    between atoms: O_6  and  C_7
REMARK                            x       y       z     vdW  Elec       q    Type
REMARK                         _______ _______ _______ _____ _____    ______ ____
ROOT
ATOM      1  C   UNL     1       3.956   4.166  17.238  0.00  0.00    +0.000 A 
ATOM      2  C   UNL     1       3.976   2.765  17.107  0.00  0.00    +0.000 A 
ATOM      3  C   UNL     1       3.195   1.945  17.914  0.00  0.00    +0.000 A 
ATOM      4  C   UNL     1       2.412   2.510  18.913  0.00  0.00    +0.000 A 
ATOM      5  C   UNL     1       2.419   3.898  19.099  0.00  0.00    +0.000 A 
ATOM      6  C   UNL     1       3.168   4.738  18.258  0.00  0.00    +0.000 A 
ATOM      7  C   UNL     1       3.078   6.208  18.470  0.00  0.00    +0.000 C 
ATOM      8  O   UNL     1       3.453   7.040  17.657  0.00  0.00    +0.000 OA
ATOM      9  C   UNL     1       2.462   6.683  19.731  0.00  0.00    +0.000 C 
ATOM     10  C   UNL     1       1.792   5.865  20.545  0.00  0.00    +0.000 C 
ATOM     11  C   UNL     1       1.639   4.437  20.237  0.00  0.00    +0.000 C 
ATOM     12  O   UNL     1       0.916   3.728  20.926  0.00  0.00    +0.000 OA
ENDROOT
BRANCH   1  13
ATOM     13  O   UNL     1       4.752   4.974  16.455  0.00  0.00    +0.000 OA
BRANCH  13  14
ATOM     14  C   UNL     1       6.110   4.539  16.323  0.00  0.00    +0.000 C 
BRANCH  14  18
ATOM     15  C   UNL     1       7.975   5.815  19.507  0.00  0.00    +0.000 C 
ATOM     16  C   UNL     1       7.335   5.810  18.146  0.00  0.00    +0.000 C 
ATOM     17  C   UNL     1       7.272   7.131  17.424  0.00  0.00    +0.000 C 
ATOM     18  C   UNL     1       6.841   4.663  17.629  0.00  0.00    +0.000 C 
ENDBRANCH  14  18
ENDBRANCH  13  14
ENDBRANCH   1  13
TORSDOF 3
ENDMDL
MODEL 7
REMARK VINA RESULT:      -7.0      2.757      3.485
REMARK  Name = 
REMARK  5 active torsions:
REMARK  status: ('A' for Active; 'I' for Inactive)
REMARK    1  A    between atoms: C_1  and  C_2
REMARK    2  A    between atoms: C_2  and  C_3
REMARK    3  A    between atoms: C_4  and  C_5
REMARK    4  A    between atoms: C_5  and  O_6
REMARK    5  A    between atoms: O_6  and  C_7
REMARK                            x       y       z     vdW  Elec       q    Type
REMARK                         _______ _______ _______ _____ _____    ______ ____
ROOT
ATOM      1  C   UNL     1       4.750   5.243  17.735  0.00  0.00    +0.000 A 
ATOM      2  C   UNL     1       4.581   6.477  17.083  0.00  0.00    +0.000 A 
ATOM      3  C   UNL     1       3.675   7.427  17.542  0.00  0.00    +0.000 A 
ATOM      4  C   UNL     1       2.875   7.139  18.641  0.00  0.00    +0.000 A 
ATOM      5  C   UNL     1       2.986   5.893  19.272  0.00  0.00    +0.000 A 
ATOM      6  C   UNL     1       3.932   4.946  18.845  0.00  0.00    +0.000 A 
ATOM      7  C   UNL     1       4.041   3.670  19.602  0.00  0.00    +0.000 C 
ATOM      8  O   UNL     1       4.984   2.897  19.506  0.00  0.00    +0.000 OA
ATOM      9  C   UNL     1       2.956   3.342  20.555  0.00  0.00    +0.000 C 
ATOM     10  C   UNL     1       2.036   4.238  20.918  0.00  0.00    +0.000 C 
ATOM     11  C   UNL     1       2.045   5.604  20.378  0.00  0.00    +0.000 C 
ATOM     12  O   UNL     1       1.274   6.448  20.816  0.00  0.00    +0.000 OA
ENDROOT
BRANCH   1  13
ATOM     13  O   UNL     1       5.629   4.293  17.261  0.00  0.00    +0.000 OA
BRANCH  13  14
ATOM     14  C   UNL     1       6.377   4.686  16.105  0.00  0.00    +0.000 C 
BRANCH  14  18
ATOM     15  C   UNL     1       5.789   3.337  12.487  0.00  0.00    +0.000 C 
ATOM     16  C   UNL     1       6.373   4.122  13.630  0.00  0.00    +0.000 C 
ATOM     17  C   UNL     1       7.560   4.994  13.314  0.00  0.00    +0.000 C 
ATOM     18  C   UNL     1       5.841   4.021  14.869  0.00  0.00    +0.000 C 
ENDBRANCH  14  18
ENDBRANCH  13  14
ENDBRANCH   1  13
TORSDOF 3
ENDMDL
MODEL 8
REMARK VINA RESULT:      -7.0      1.202      1.607
REMARK  Name = 
REMARK  5 active torsions:
REMARK  status: ('A' for Active; 'I' for Inactive)
REMARK    1  A    between atoms: C_1  and  C_2
REMARK    2  A    between atoms: C_2  and  C_3
REMARK    3  A    between atoms: C_4  and  C_5
REMARK    4  A    between atoms: C_5  and  O_6
REMARK    5  A    between atoms: O_6  and  C_7
REMARK                            x       y       z     vdW  Elec       q    Type
REMARK                         _______ _______ _______ _____ _____    ______ ____
ROOT
ATOM      1  C   UNL     1       2.860   5.997  18.363  0.00  0.00    +0.000 A 
ATOM      2  C   UNL     1       2.537   7.021  19.273  0.00  0.00    +0.000 A 
ATOM      3  C   UNL     1       1.959   6.745  20.507  0.00  0.00    +0.000 A 
ATOM      4  C   UNL     1       1.641   5.433  20.838  0.00  0.00    +0.000 A 
ATOM      5  C   UNL     1       1.901   4.404  19.925  0.00  0.00    +0.000 A 
ATOM      6  C   UNL     1       2.529   4.668  18.696  0.00  0.00    +0.000 A 
ATOM      7  C   UNL     1       2.835   3.519  17.801  0.00  0.00    +0.000 C 
ATOM      8  O   UNL     1       3.604   3.578  16.852  0.00  0.00    +0.000 OA
ATOM      9  C   UNL     1       2.194   2.219  18.109  0.00  0.00    +0.000 C 
ATOM     10  C   UNL     1       1.561   1.996  19.263  0.00  0.00    +0.000 C 
ATOM     11  C   UNL     1       1.456   3.040  20.291  0.00  0.00    +0.000 C 
ATOM     12  O   UNL     1       0.985   2.780  21.391  0.00  0.00    +0.000 OA
ENDROOT
BRANCH   1  13
ATOM     13  O   UNL     1       3.408   6.277  17.129  0.00  0.00    +0.000 OA
BRANCH  13  14
ATOM     14  C   UNL     1       4.766   6.727  17.160  0.00  0.00    +0.000 C 
BRANCH  14  18
ATOM     15  C   UNL     1       7.089   4.895  14.610  0.00  0.00    +0.000 C 
ATOM     16  C   UNL     1       6.478   5.326  15.916  0.00  0.00    +0.000 C 
ATOM     17  C   UNL     1       6.995   4.650  17.159  0.00  0.00    +0.000 C 
ATOM     18  C   UNL     1       5.510   6.269  15.938  0.00  0.00    +0.000 C 
ENDBRANCH  14  18
ENDBRANCH  13  14
ENDBRANCH   1  13
TORSDOF 3
ENDMDL
MODEL 9
REMARK VINA RESULT:      -7.0      3.329      4.470
REMARK  Name = 
REMARK  5 active torsions:
REMARK  status: ('A' for Active; 'I' for Inactive)
REMARK    1  A    between atoms: C_1  and  C_2
REMARK    2  A    between atoms: C_2  and  C_3
REMARK    3  A    between atoms: C_4  and  C_5
REMARK    4  A    between atoms: C_5  and  O_6
REMARK    5  A    between atoms: O_6  and  C_7
REMARK                            x       y       z     vdW  Elec       q    Type
REMARK                         _______ _______ _______ _____ _____    ______ ____
ROOT
ATOM      1  C   UNL     1       5.158   4.632  16.453  0.00  0.00    +0.000 A 
ATOM      2  C   UNL     1       5.668   5.923  16.229  0.00  0.00    +0.000 A 
ATOM      3  C   UNL     1       5.195   7.027  16.929  0.00  0.00    +0.000 A 
ATOM      4  C   UNL     1       4.156   6.870  17.838  0.00  0.00    +0.000 A 
ATOM      5  C   UNL     1       3.593   5.603  18.036  0.00  0.00    +0.000 A 
ATOM      6  C   UNL     1       4.098   4.474  17.369  0.00  0.00    +0.000 A 
ATOM      7  C   UNL     1       3.496   3.148  17.677  0.00  0.00    +0.000 C 
ATOM      8  O   UNL     1       4.010   2.079  17.379  0.00  0.00    +0.000 OA
ATOM      9  C   UNL     1       2.216   3.131  18.421  0.00  0.00    +0.000 C 
ATOM     10  C   UNL     1       1.725   4.222  19.013  0.00  0.00    +0.000 C 
ATOM     11  C   UNL     1       2.428   5.510  18.946  0.00  0.00    +0.000 C 
ATOM     12  O   UNL     1       2.031   6.467  19.598  0.00  0.00    +0.000 OA
ENDROOT
BRANCH   1  13
ATOM     13  O   UNL     1       5.611   3.544  15.738  0.00  0.00    +0.000 OA
BRANCH  13  14
ATOM     14  C   UNL     1       6.191   3.857  14.466  0.00  0.00    +0.000 C 
BRANCH  14  18
ATOM     15  C   UNL     1       4.196   3.205  11.173  0.00  0.00    +0.000 C 
ATOM     16  C   UNL     1       5.340   3.276  12.146  0.00  0.00    +0.000 C 
ATOM     17  C   UNL     1       6.663   2.729  11.675  0.00  0.00    +0.000 C 
ATOM     18  C   UNL     1       5.156   3.802  13.378  0.00  0.00    +0.000 C 
ENDBRANCH  14  18
ENDBRANCH  13  14
ENDBRANCH   1  13
TORSDOF 3
ENDMDL
