MODEL 1
REMARK VINA RESULT:      -8.9      0.000      0.000
REMARK  Name = 
REMARK  8 active torsions:
REMARK  status: ('A' for Active; 'I' for Inactive)
REMARK    1  A    between atoms: N_1  and  C_2
REMARK    2  A    between atoms: C_8  and  C_9
REMARK    3  A    between atoms: N_20  and  C_21
REMARK    4  A    between atoms: C_21  and  C_22
REMARK    5  A    between atoms: C_22  and  C_23
REMARK    6  A    between atoms: C_23  and  C_24
REMARK    7  A    between atoms: C_24  and  C_25
REMARK    8  A    between atoms: N_27  and  O_28
REMARK                            x       y       z     vdW  Elec       q    Type
REMARK                         _______ _______ _______ _____ _____    ______ ____
ROOT
ATOM      1  C   UNL     1       1.628   3.528  19.493  0.00  0.00    +0.000 A 
ATOM      2  N   UNL     1       1.733   2.186  19.416  0.00  0.00    +0.000 NA
ATOM      3  C   UNL     1       2.623   1.654  18.556  0.00  0.00    +0.000 A 
ATOM      4  N   UNL     1       3.449   2.302  17.721  0.00  0.00    +0.000 NA
ATOM      5  C   UNL     1       3.313   3.634  17.834  0.00  0.00    +0.000 A 
ATOM      6  C   UNL     1       2.457   4.318  18.681  0.00  0.00    +0.000 A 
ATOM      7  C   UNL     1       2.732   5.702  18.434  0.00  0.00    +0.000 A 
ATOM      8  N   UNL     1       3.662   5.850  17.470  0.00  0.00    +0.000 NA
ATOM      9  N   UNL     1       4.011   4.587  17.148  0.00  0.00    +0.000 N 
ENDROOT
BRANCH   7  10
ATOM     10  C   UNL     1       2.144   6.876  19.069  0.00  0.00    +0.000 A 
ATOM     11  C   UNL     1       1.823   6.869  20.419  0.00  0.00    +0.000 A 
ATOM     12  N   UNL     1       1.345   7.946  21.098  0.00  0.00    +0.000 NA
ATOM     13  C   UNL     1       1.171   9.092  20.417  0.00  0.00    +0.000 A 
ATOM     14  C   UNL     1       0.745  10.229  21.090  0.00  0.00    +0.000 A 
ATOM     15  C   UNL     1       0.577  11.452  20.431  0.00  0.00    +0.000 A 
ATOM     16  C   UNL     1       0.812  11.541  19.064  0.00  0.00    +0.000 A 
ATOM     17  C   UNL     1       1.229  10.411  18.362  0.00  0.00    +0.000 A 
ATOM     18  C   UNL     1       1.423   9.194  19.033  0.00  0.00    +0.000 A 
ATOM     19  C   UNL     1       1.893   8.052  18.365  0.00  0.00    +0.000 A 
ENDBRANCH   7  10
BRANCH   1  20
ATOM     20  N   UNL     1       0.684   4.012  20.391  0.00  0.00    +0.000 N 
ATOM     21  H   UNL     1       0.194   4.804  19.990  0.00  0.00    +0.000 HD
ATOM     22  H   UNL     1       1.020   4.149  21.335  0.00  0.00    +0.000 HD
ENDBRANCH   1  20
BRANCH   9  23
ATOM     23  C   UNL     1       5.113   4.357  16.236  0.00  0.00    +0.000 C 
BRANCH  23  24
ATOM     24  C   UNL     1       5.872   5.620  15.822  0.00  0.00    +0.000 C 
BRANCH  24  25
ATOM     25  C   UNL     1       6.942   6.100  16.807  0.00  0.00    +0.000 C 
BRANCH  25  26
ATOM     26  C   UNL     1       7.554   4.972  17.635  0.00  0.00    +0.000 C 
BRANCH  26  27
ATOM     27  C   UNL     1       7.306   5.140  19.119  0.00  0.00    +0.000 C 
ATOM     28  O   UNL     1       6.197   5.237  19.638  0.00  0.00    +0.000 OA
ATOM     29  N   UNL     1       8.469   5.197  19.856  0.00  0.00    +0.000 N 
ATOM     30  H   UNL     1       9.334   4.779  19.528  0.00  0.00    +0.000 HD
BRANCH  29  31
ATOM     31  O   UNL     1       8.291   5.241  21.259  0.00  0.00    +0.000 OA
ATOM     32  H   UNL     1       9.159   4.921  21.590  0.00  0.00    +0.000 HD
ENDBRANCH  29  31
ENDBRANCH  26  27
ENDBRANCH  25  26
ENDBRANCH  24  25
ENDBRANCH  23  24
ENDBRANCH   9  23
TORSDOF 8
ENDMDL
MODEL 2
REMARK VINA RESULT:      -8.8      1.165      1.790
REMARK  Name = 
REMARK  8 active torsions:
REMARK  status: ('A' for Active; 'I' for Inactive)
REMARK    1  A    between atoms: N_1  and  C_2
REMARK    2  A    between atoms: C_8  and  C_9
REMARK    3  A    between atoms: N_20  and  C_21
REMARK    4  A    between atoms: C_21  and  C_22
REMARK    5  A    between atoms: C_22  and  C_23
REMARK    6  A    between atoms: C_23  and  C_24
REMARK    7  A    between atoms: C_24  and  C_25
REMARK    8  A    between atoms: N_27  and  O_28
REMARK                            x       y       z     vdW  Elec       q    Type
REMARK                         _______ _______ _______ _____ _____    ______ ____
ROOT
ATOM      1  C   UNL     1       2.114   4.485  19.550  0.00  0.00    +0.000 A 
ATOM      2  N   UNL     1       2.406   3.169  19.502  0.00  0.00    +0.000 NA
ATOM      3  C   UNL     1       3.303   2.737  18.596  0.00  0.00    +0.000 A 
ATOM      4  N   UNL     1       3.969   3.464  17.686  0.00  0.00    +0.000 NA
ATOM      5  C   UNL     1       3.651   4.766  17.772  0.00  0.00    +0.000 A 
ATOM      6  C   UNL     1       2.765   5.354  18.659  0.00  0.00    +0.000 A 
ATOM      7  C   UNL     1       2.820   6.752  18.355  0.00  0.00    +0.000 A 
ATOM      8  N   UNL     1       3.652   6.995  17.323  0.00  0.00    +0.000 NA
ATOM      9  N   UNL     1       4.157   5.783  17.012  0.00  0.00    +0.000 N 
ENDROOT
BRANCH   7  10
ATOM     10  C   UNL     1       2.114   7.855  18.999  0.00  0.00    +0.000 A 
ATOM     11  C   UNL     1       1.649   8.932  18.257  0.00  0.00    +0.000 A 
ATOM     12  N   UNL     1       0.917   9.956  18.770  0.00  0.00    +0.000 NA
ATOM     13  C   UNL     1       0.627   9.925  20.082  0.00  0.00    +0.000 A 
ATOM     14  C   UNL     1      -0.171  10.921  20.630  0.00  0.00    +0.000 A 
ATOM     15  C   UNL     1      -0.525  10.917  21.983  0.00  0.00    +0.000 A 
ATOM     16  C   UNL     1      -0.053   9.912  22.821  0.00  0.00    +0.000 A 
ATOM     17  C   UNL     1       0.760   8.908  22.299  0.00  0.00    +0.000 A 
ATOM     18  C   UNL     1       1.089   8.901  20.935  0.00  0.00    +0.000 A 
ATOM     19  C   UNL     1       1.862   7.874  20.368  0.00  0.00    +0.000 A 
ENDBRANCH   7  10
BRANCH   1  20
ATOM     20  N   UNL     1       1.173   4.864  20.500  0.00  0.00    +0.000 N 
ATOM     21  H   UNL     1       1.483   5.697  20.987  0.00  0.00    +0.000 HD
ATOM     22  H   UNL     1       0.841   4.117  21.097  0.00  0.00    +0.000 HD
ENDBRANCH   1  20
BRANCH   9  23
ATOM     23  C   UNL     1       5.217   5.677  16.029  0.00  0.00    +0.000 C 
BRANCH  23  24
ATOM     24  C   UNL     1       6.108   4.443  16.184  0.00  0.00    +0.000 C 
BRANCH  24  25
ATOM     25  C   UNL     1       7.450   4.681  16.886  0.00  0.00    +0.000 C 
BRANCH  25  26
ATOM     26  C   UNL     1       7.448   5.908  17.796  0.00  0.00    +0.000 C 
BRANCH  26  27
ATOM     27  C   UNL     1       7.274   5.547  19.256  0.00  0.00    +0.000 C 
ATOM     28  O   UNL     1       6.198   5.300  19.794  0.00  0.00    +0.000 OA
ATOM     29  N   UNL     1       8.462   5.540  19.954  0.00  0.00    +0.000 N 
ATOM     30  H   UNL     1       9.355   5.389  19.495  0.00  0.00    +0.000 HD
BRANCH  29  31
ATOM     31  O   UNL     1       8.370   5.101  21.296  0.00  0.00    +0.000 OA
ATOM     32  H   UNL     1       8.402   4.124  21.200  0.00  0.00    +0.000 HD
ENDBRANCH  29  31
ENDBRANCH  26  27
ENDBRANCH  25  26
ENDBRANCH  24  25
ENDBRANCH  23  24
ENDBRANCH   9  23
TORSDOF 8
ENDMDL
MODEL 3
REMARK VINA RESULT:      -8.4      3.006      3.861
REMARK  Name = 
REMARK  8 active torsions:
REMARK  status: ('A' for Active; 'I' for Inactive)
REMARK    1  A    between atoms: N_1  and  C_2
REMARK    2  A    between atoms: C_8  and  C_9
REMARK    3  A    between atoms: N_20  and  C_21
REMARK    4  A    between atoms: C_21  and  C_22
REMARK    5  A    between atoms: C_22  and  C_23
REMARK    6  A    between atoms: C_23  and  C_24
REMARK    7  A    between atoms: C_24  and  C_25
REMARK    8  A    between atoms: N_27  and  O_28
REMARK                            x       y       z     vdW  Elec       q    Type
REMARK                         _______ _______ _______ _____ _____    ______ ____
ROOT
ATOM      1  C   UNL     1       1.932   3.704  19.110  0.00  0.00    +0.000 A 
ATOM      2  N   UNL     1       2.029   2.358  19.103  0.00  0.00    +0.000 NA
ATOM      3  C   UNL     1       3.083   1.787  18.491  0.00  0.00    +0.000 A 
ATOM      4  N   UNL     1       4.092   2.397  17.849  0.00  0.00    +0.000 NA
ATOM      5  C   UNL     1       3.957   3.733  17.885  0.00  0.00    +0.000 A 
ATOM      6  C   UNL     1       2.941   4.456  18.488  0.00  0.00    +0.000 A 
ATOM      7  C   UNL     1       3.290   5.827  18.266  0.00  0.00    +0.000 A 
ATOM      8  N   UNL     1       4.420   5.932  17.540  0.00  0.00    +0.000 NA
ATOM      9  N   UNL     1       4.812   4.655  17.349  0.00  0.00    +0.000 N 
ENDROOT
BRANCH   7  10
ATOM     10  C   UNL     1       2.592   7.029  18.709  0.00  0.00    +0.000 A 
ATOM     11  C   UNL     1       2.244   8.024  17.806  0.00  0.00    +0.000 A 
ATOM     12  N   UNL     1       1.528   9.134  18.128  0.00  0.00    +0.000 NA
ATOM     13  C   UNL     1       1.132   9.278  19.404  0.00  0.00    +0.000 A 
ATOM     14  C   UNL     1       0.345  10.366  19.758  0.00  0.00    +0.000 A 
ATOM     15  C   UNL     1      -0.116  10.545  21.066  0.00  0.00    +0.000 A 
ATOM     16  C   UNL     1       0.234   9.633  22.056  0.00  0.00    +0.000 A 
ATOM     17  C   UNL     1       1.034   8.539  21.730  0.00  0.00    +0.000 A 
ATOM     18  C   UNL     1       1.471   8.349  20.410  0.00  0.00    +0.000 A 
ATOM     19  C   UNL     1       2.232   7.229  20.040  0.00  0.00    +0.000 A 
ENDBRANCH   7  10
BRANCH   1  20
ATOM     20  N   UNL     1       0.814   4.228  19.748  0.00  0.00    +0.000 N 
ATOM     21  H   UNL     1       0.471   3.576  20.445  0.00  0.00    +0.000 HD
ATOM     22  H   UNL     1       0.107   4.609  19.133  0.00  0.00    +0.000 HD
ENDBRANCH   1  20
BRANCH   9  23
ATOM     23  C   UNL     1       6.091   4.382  16.726  0.00  0.00    +0.000 C 
BRANCH  23  24
ATOM     24  C   UNL     1       6.000   3.816  15.307  0.00  0.00    +0.000 C 
BRANCH  24  25
ATOM     25  C   UNL     1       6.040   4.851  14.179  0.00  0.00    +0.000 C 
BRANCH  25  26
ATOM     26  C   UNL     1       6.742   4.347  12.919  0.00  0.00    +0.000 C 
BRANCH  26  27
ATOM     27  C   UNL     1       5.953   3.269  12.207  0.00  0.00    +0.000 C 
ATOM     28  O   UNL     1       4.750   3.323  11.967  0.00  0.00    +0.000 OA
ATOM     29  N   UNL     1       6.722   2.180  11.860  0.00  0.00    +0.000 N 
ATOM     30  H   UNL     1       7.725   2.251  11.723  0.00  0.00    +0.000 HD
BRANCH  29  31
ATOM     31  O   UNL     1       6.058   1.192  11.094  0.00  0.00    +0.000 OA
ATOM     32  H   UNL     1       6.742   0.941  10.437  0.00  0.00    +0.000 HD
ENDBRANCH  29  31
ENDBRANCH  26  27
ENDBRANCH  25  26
ENDBRANCH  24  25
ENDBRANCH  23  24
ENDBRANCH   9  23
TORSDOF 8
ENDMDL
MODEL 4
REMARK VINA RESULT:      -8.4      2.657      3.489
REMARK  Name = 
REMARK  8 active torsions:
REMARK  status: ('A' for Active; 'I' for Inactive)
REMARK    1  A    between atoms: N_1  and  C_2
REMARK    2  A    between atoms: C_8  and  C_9
REMARK    3  A    between atoms: N_20  and  C_21
REMARK    4  A    between atoms: C_21  and  C_22
REMARK    5  A    between atoms: C_22  and  C_23
REMARK    6  A    between atoms: C_23  and  C_24
REMARK    7  A    between atoms: C_24  and  C_25
REMARK    8  A    between atoms: N_27  and  O_28
REMARK                            x       y       z     vdW  Elec       q    Type
REMARK                         _______ _______ _______ _____ _____    ______ ____
ROOT
ATOM      1  C   UNL     1       2.433   4.180  20.114  0.00  0.00    +0.000 A 
ATOM      2  N   UNL     1       2.678   2.915  20.513  0.00  0.00    +0.000 NA
ATOM      3  C   UNL     1       3.884   2.375  20.253  0.00  0.00    +0.000 A 
ATOM      4  N   UNL     1       4.919   2.941  19.615  0.00  0.00    +0.000 NA
ATOM      5  C   UNL     1       4.633   4.199  19.240  0.00  0.00    +0.000 A 
ATOM      6  C   UNL     1       3.450   4.887  19.452  0.00  0.00    +0.000 A 
ATOM      7  C   UNL     1       3.680   6.185  18.894  0.00  0.00    +0.000 A 
ATOM      8  N   UNL     1       4.905   6.269  18.340  0.00  0.00    +0.000 NA
ATOM      9  N   UNL     1       5.465   5.066  18.589  0.00  0.00    +0.000 N 
ENDROOT
BRANCH   7  10
ATOM     10  C   UNL     1       2.784   7.337  18.861  0.00  0.00    +0.000 A 
ATOM     11  C   UNL     1       2.575   8.043  17.685  0.00  0.00    +0.000 A 
ATOM     12  N   UNL     1       1.699   9.076  17.557  0.00  0.00    +0.000 NA
ATOM     13  C   UNL     1       0.991   9.437  18.641  0.00  0.00    +0.000 A 
ATOM     14  C   UNL     1       0.043  10.445  18.534  0.00  0.00    +0.000 A 
ATOM     15  C   UNL     1      -0.739  10.837  19.626  0.00  0.00    +0.000 A 
ATOM     16  C   UNL     1      -0.556  10.231  20.863  0.00  0.00    +0.000 A 
ATOM     17  C   UNL     1       0.399   9.225  21.002  0.00  0.00    +0.000 A 
ATOM     18  C   UNL     1       1.161   8.816  19.896  0.00  0.00    +0.000 A 
ATOM     19  C   UNL     1       2.092   7.769  19.991  0.00  0.00    +0.000 A 
ENDBRANCH   7  10
BRANCH   1  20
ATOM     20  N   UNL     1       1.167   4.673  20.403  0.00  0.00    +0.000 N 
ATOM     21  H   UNL     1       0.777   4.187  21.203  0.00  0.00    +0.000 HD
ATOM     22  H   UNL     1       0.546   4.757  19.608  0.00  0.00    +0.000 HD
ENDBRANCH   1  20
BRANCH   9  23
ATOM     23  C   UNL     1       6.859   4.841  18.264  0.00  0.00    +0.000 C 
BRANCH  23  24
ATOM     24  C   UNL     1       7.122   4.487  16.799  0.00  0.00    +0.000 C 
BRANCH  24  25
ATOM     25  C   UNL     1       5.915   3.954  16.020  0.00  0.00    +0.000 C 
BRANCH  25  26
ATOM     26  C   UNL     1       5.597   4.767  14.766  0.00  0.00    +0.000 C 
BRANCH  26  27
ATOM     27  C   UNL     1       6.519   4.437  13.612  0.00  0.00    +0.000 C 
ATOM     28  O   UNL     1       7.478   5.119  13.263  0.00  0.00    +0.000 OA
ATOM     29  N   UNL     1       6.164   3.280  12.953  0.00  0.00    +0.000 N 
ATOM     30  H   UNL     1       5.633   2.543  13.408  0.00  0.00    +0.000 HD
BRANCH  29  31
ATOM     31  O   UNL     1       7.057   2.866  11.937  0.00  0.00    +0.000 OA
ATOM     32  H   UNL     1       7.359   1.991  12.265  0.00  0.00    +0.000 HD
ENDBRANCH  29  31
ENDBRANCH  26  27
ENDBRANCH  25  26
ENDBRANCH  24  25
ENDBRANCH  23  24
ENDBRANCH   9  23
TORSDOF 8
ENDMDL
MODEL 5
REMARK VINA RESULT:      -8.3      1.707      2.123
REMARK  Name = 
REMARK  8 active torsions:
REMARK  status: ('A' for Active; 'I' for Inactive)
REMARK    1  A    between atoms: N_1  and  C_2
REMARK    2  A    between atoms: C_8  and  C_9
REMARK    3  A    between atoms: N_20  and  C_21
REMARK    4  A    between atoms: C_21  and  C_22
REMARK    5  A    between atoms: C_22  and  C_23
REMARK    6  A    between atoms: C_23  and  C_24
REMARK    7  A    between atoms: C_24  and  C_25
REMARK    8  A    between atoms: N_27  and  O_28
REMARK                            x       y       z     vdW  Elec       q    Type
REMARK                         _______ _______ _______ _____ _____    ______ ____
ROOT
ATOM      1  C   UNL     1       1.903   3.768  19.450  0.00  0.00    +0.000 A 
ATOM      2  N   UNL     1       2.007   2.425  19.521  0.00  0.00    +0.000 NA
ATOM      3  C   UNL     1       2.883   1.799  18.712  0.00  0.00    +0.000 A 
ATOM      4  N   UNL     1       3.696   2.348  17.797  0.00  0.00    +0.000 NA
ATOM      5  C   UNL     1       3.563   3.685  17.764  0.00  0.00    +0.000 A 
ATOM      6  C   UNL     1       2.720   4.461  18.542  0.00  0.00    +0.000 A 
ATOM      7  C   UNL     1       2.992   5.808  18.138  0.00  0.00    +0.000 A 
ATOM      8  N   UNL     1       3.906   5.846  17.150  0.00  0.00    +0.000 NA
ATOM      9  N   UNL     1       4.250   4.554  16.965  0.00  0.00    +0.000 N 
ENDROOT
BRANCH   7  10
ATOM     10  C   UNL     1       2.414   7.047  18.648  0.00  0.00    +0.000 A 
ATOM     11  C   UNL     1       2.103   8.093  17.790  0.00  0.00    +0.000 A 
ATOM     12  N   UNL     1       1.494   9.246  18.177  0.00  0.00    +0.000 NA
ATOM     13  C   UNL     1       1.174   9.382  19.475  0.00  0.00    +0.000 A 
ATOM     14  C   UNL     1       0.495  10.517  19.897  0.00  0.00    +0.000 A 
ATOM     15  C   UNL     1       0.114  10.692  21.231  0.00  0.00    +0.000 A 
ATOM     16  C   UNL     1       0.438   9.726  22.177  0.00  0.00    +0.000 A 
ATOM     17  C   UNL     1       1.131   8.583  21.783  0.00  0.00    +0.000 A 
ATOM     18  C   UNL     1       1.486   8.399  20.438  0.00  0.00    +0.000 A 
ATOM     19  C   UNL     1       2.137   7.234  20.000  0.00  0.00    +0.000 A 
ENDBRANCH   7  10
BRANCH   1  20
ATOM     20  N   UNL     1       0.974   4.351  20.303  0.00  0.00    +0.000 N 
ATOM     21  H   UNL     1       0.228   4.781  19.766  0.00  0.00    +0.000 HD
ATOM     22  H   UNL     1       1.365   4.930  21.034  0.00  0.00    +0.000 HD
ENDBRANCH   1  20
BRANCH   9  23
ATOM     23  C   UNL     1       5.338   4.222  16.068  0.00  0.00    +0.000 C 
BRANCH  23  24
ATOM     24  C   UNL     1       6.732   4.340  16.686  0.00  0.00    +0.000 C 
BRANCH  24  25
ATOM     25  C   UNL     1       7.346   5.744  16.670  0.00  0.00    +0.000 C 
BRANCH  25  26
ATOM     26  C   UNL     1       7.436   6.381  18.056  0.00  0.00    +0.000 C 
BRANCH  26  27
ATOM     27  C   UNL     1       7.846   7.837  18.000  0.00  0.00    +0.000 C 
ATOM     28  O   UNL     1       7.456   8.644  17.160  0.00  0.00    +0.000 OA
ATOM     29  N   UNL     1       8.739   8.182  18.991  0.00  0.00    +0.000 N 
ATOM     30  H   UNL     1       8.797   7.670  19.865  0.00  0.00    +0.000 HD
BRANCH  29  31
ATOM     31  O   UNL     1       9.069   9.557  19.052  0.00  0.00    +0.000 OA
ATOM     32  H   UNL     1       9.834   9.562  19.668  0.00  0.00    +0.000 HD
ENDBRANCH  29  31
ENDBRANCH  26  27
ENDBRANCH  25  26
ENDBRANCH  24  25
ENDBRANCH  23  24
ENDBRANCH   9  23
TORSDOF 8
ENDMDL
MODEL 6
REMARK VINA RESULT:      -8.3      2.444      6.745
REMARK  Name = 
REMARK  8 active torsions:
REMARK  status: ('A' for Active; 'I' for Inactive)
REMARK    1  A    between atoms: N_1  and  C_2
REMARK    2  A    between atoms: C_8  and  C_9
REMARK    3  A    between atoms: N_20  and  C_21
REMARK    4  A    between atoms: C_21  and  C_22
REMARK    5  A    between atoms: C_22  and  C_23
REMARK    6  A    between atoms: C_23  and  C_24
REMARK    7  A    between atoms: C_24  and  C_25
REMARK    8  A    between atoms: N_27  and  O_28
REMARK                            x       y       z     vdW  Elec       q    Type
REMARK                         _______ _______ _______ _____ _____    ______ ____
ROOT
ATOM      1  C   UNL     1       2.561   7.994  18.512  0.00  0.00    +0.000 A 
ATOM      2  N   UNL     1       1.679   8.691  19.258  0.00  0.00    +0.000 NA
ATOM      3  C   UNL     1       1.192   8.129  20.380  0.00  0.00    +0.000 A 
ATOM      4  N   UNL     1       1.466   6.914  20.878  0.00  0.00    +0.000 NA
ATOM      5  C   UNL     1       2.350   6.257  20.108  0.00  0.00    +0.000 A 
ATOM      6  C   UNL     1       2.944   6.713  18.942  0.00  0.00    +0.000 A 
ATOM      7  C   UNL     1       3.820   5.653  18.543  0.00  0.00    +0.000 A 
ATOM      8  N   UNL     1       3.734   4.605  19.385  0.00  0.00    +0.000 NA
ATOM      9  N   UNL     1       2.860   5.010  20.331  0.00  0.00    +0.000 N 
ENDROOT
BRANCH   7  10
ATOM     10  C   UNL     1       4.724   5.598  17.399  0.00  0.00    +0.000 A 
ATOM     11  C   UNL     1       5.912   6.316  17.395  0.00  0.00    +0.000 A 
ATOM     12  N   UNL     1       6.839   6.257  16.402  0.00  0.00    +0.000 NA
ATOM     13  C   UNL     1       6.588   5.452  15.355  0.00  0.00    +0.000 A 
ATOM     14  C   UNL     1       7.539   5.317  14.353  0.00  0.00    +0.000 A 
ATOM     15  C   UNL     1       7.337   4.469  13.258  0.00  0.00    +0.000 A 
ATOM     16  C   UNL     1       6.149   3.757  13.142  0.00  0.00    +0.000 A 
ATOM     17  C   UNL     1       5.172   3.885  14.128  0.00  0.00    +0.000 A 
ATOM     18  C   UNL     1       5.391   4.715  15.238  0.00  0.00    +0.000 A 
ATOM     19  C   UNL     1       4.450   4.823  16.275  0.00  0.00    +0.000 A 
ENDBRANCH   7  10
BRANCH   1  20
ATOM     20  N   UNL     1       3.016   8.626  17.362  0.00  0.00    +0.000 N 
ATOM     21  H   UNL     1       3.006   7.980  16.580  0.00  0.00    +0.000 HD
ATOM     22  H   UNL     1       3.873   9.153  17.472  0.00  0.00    +0.000 HD
ENDBRANCH   1  20
BRANCH   9  23
ATOM     23  C   UNL     1       2.632   4.183  21.499  0.00  0.00    +0.000 C 
BRANCH  23  24
ATOM     24  C   UNL     1       1.658   3.025  21.279  0.00  0.00    +0.000 C 
BRANCH  24  25
ATOM     25  C   UNL     1       0.632   3.227  20.158  0.00  0.00    +0.000 C 
BRANCH  25  26
ATOM     26  C   UNL     1       0.683   2.140  19.087  0.00  0.00    +0.000 C 
BRANCH  26  27
ATOM     27  C   UNL     1       1.864   2.300  18.153  0.00  0.00    +0.000 C 
ATOM     28  O   UNL     1       1.867   2.990  17.138  0.00  0.00    +0.000 OA
ATOM     29  N   UNL     1       2.961   1.564  18.543  0.00  0.00    +0.000 N 
ATOM     30  H   UNL     1       3.110   1.289  19.508  0.00  0.00    +0.000 HD
BRANCH  29  31
ATOM     31  O   UNL     1       4.128   1.764  17.767  0.00  0.00    +0.000 OA
ATOM     32  H   UNL     1       3.903   1.306  16.928  0.00  0.00    +0.000 HD
ENDBRANCH  29  31
ENDBRANCH  26  27
ENDBRANCH  25  26
ENDBRANCH  24  25
ENDBRANCH  23  24
ENDBRANCH   9  23
TORSDOF 8
ENDMDL
MODEL 7
REMARK VINA RESULT:      -8.3      2.643      3.338
REMARK  Name = 
REMARK  8 active torsions:
REMARK  status: ('A' for Active; 'I' for Inactive)
REMARK    1  A    between atoms: N_1  and  C_2
REMARK    2  A    between atoms: C_8  and  C_9
REMARK    3  A    between atoms: N_20  and  C_21
REMARK    4  A    between atoms: C_21  and  C_22
REMARK    5  A    between atoms: C_22  and  C_23
REMARK    6  A    between atoms: C_23  and  C_24
REMARK    7  A    between atoms: C_24  and  C_25
REMARK    8  A    between atoms: N_27  and  O_28
REMARK                            x       y       z     vdW  Elec       q    Type
REMARK                         _______ _______ _______ _____ _____    ______ ____
ROOT
ATOM      1  C   UNL     1       2.106   4.898  19.867  0.00  0.00    +0.000 A 
ATOM      2  N   UNL     1       2.521   3.617  19.801  0.00  0.00    +0.000 NA
ATOM      3  C   UNL     1       3.462   3.285  18.898  0.00  0.00    +0.000 A 
ATOM      4  N   UNL     1       4.066   4.085  18.006  0.00  0.00    +0.000 NA
ATOM      5  C   UNL     1       3.626   5.351  18.109  0.00  0.00    +0.000 A 
ATOM      6  C   UNL     1       2.681   5.839  18.996  0.00  0.00    +0.000 A 
ATOM      7  C   UNL     1       2.608   7.241  18.715  0.00  0.00    +0.000 A 
ATOM      8  N   UNL     1       3.423   7.577  17.696  0.00  0.00    +0.000 NA
ATOM      9  N   UNL     1       4.042   6.423  17.370  0.00  0.00    +0.000 N 
ENDROOT
BRANCH   7  10
ATOM     10  C   UNL     1       1.795   8.262  19.368  0.00  0.00    +0.000 A 
ATOM     11  C   UNL     1       1.182   9.264  18.629  0.00  0.00    +0.000 A 
ATOM     12  N   UNL     1       0.350  10.202  19.154  0.00  0.00    +0.000 NA
ATOM     13  C   UNL     1       0.107  10.158  20.475  0.00  0.00    +0.000 A 
ATOM     14  C   UNL     1      -0.786  11.060  21.037  0.00  0.00    +0.000 A 
ATOM     15  C   UNL     1      -1.094  11.036  22.401  0.00  0.00    +0.000 A 
ATOM     16  C   UNL     1      -0.480  10.108  23.234  0.00  0.00    +0.000 A 
ATOM     17  C   UNL     1       0.430   9.199  22.698  0.00  0.00    +0.000 A 
ATOM     18  C   UNL     1       0.715   9.209  21.324  0.00  0.00    +0.000 A 
ATOM     19  C   UNL     1       1.586   8.272  20.745  0.00  0.00    +0.000 A 
ENDBRANCH   7  10
BRANCH   1  20
ATOM     20  N   UNL     1       1.125   5.171  20.812  0.00  0.00    +0.000 N 
ATOM     21  H   UNL     1       0.397   5.747  20.405  0.00  0.00    +0.000 HD
ATOM     22  H   UNL     1       1.470   5.487  21.710  0.00  0.00    +0.000 HD
ENDBRANCH   1  20
BRANCH   9  23
ATOM     23  C   UNL     1       5.116   6.433  16.398  0.00  0.00    +0.000 C 
BRANCH  23  24
ATOM     24  C   UNL     1       6.506   6.175  16.981  0.00  0.00    +0.000 C 
BRANCH  24  25
ATOM     25  C   UNL     1       7.207   4.907  16.483  0.00  0.00    +0.000 C 
BRANCH  25  26
ATOM     26  C   UNL     1       6.424   4.168  15.399  0.00  0.00    +0.000 C 
BRANCH  26  27
ATOM     27  C   UNL     1       6.907   4.503  14.004  0.00  0.00    +0.000 C 
ATOM     28  O   UNL     1       6.531   3.942  12.978  0.00  0.00    +0.000 OA
ATOM     29  N   UNL     1       7.849   5.508  13.988  0.00  0.00    +0.000 N 
ATOM     30  H   UNL     1       7.910   6.200  14.728  0.00  0.00    +0.000 HD
BRANCH  29  31
ATOM     31  O   UNL     1       8.252   5.937  12.700  0.00  0.00    +0.000 OA
ATOM     32  H   UNL     1       7.394   6.148  12.272  0.00  0.00    +0.000 HD
ENDBRANCH  29  31
ENDBRANCH  26  27
ENDBRANCH  25  26
ENDBRANCH  24  25
ENDBRANCH  23  24
ENDBRANCH   9  23
TORSDOF 8
ENDMDL
MODEL 8
REMARK VINA RESULT:      -8.2      2.428      3.084
REMARK  Name = 
REMARK  8 active torsions:
REMARK  status: ('A' for Active; 'I' for Inactive)
REMARK    1  A    between atoms: N_1  and  C_2
REMARK    2  A    between atoms: C_8  and  C_9
REMARK    3  A    between atoms: N_20  and  C_21
REMARK    4  A    between atoms: C_21  and  C_22
REMARK    5  A    between atoms: C_22  and  C_23
REMARK    6  A    between atoms: C_23  and  C_24
REMARK    7  A    between atoms: C_24  and  C_25
REMARK    8  A    between atoms: N_27  and  O_28
REMARK                            x       y       z     vdW  Elec       q    Type
REMARK                         _______ _______ _______ _____ _____    ______ ____
ROOT
ATOM      1  C   UNL     1       1.638   3.999  20.126  0.00  0.00    +0.000 A 
ATOM      2  N   UNL     1       1.739   2.660  20.247  0.00  0.00    +0.000 NA
ATOM      3  C   UNL     1       2.909   2.068  19.940  0.00  0.00    +0.000 A 
ATOM      4  N   UNL     1       4.036   2.649  19.501  0.00  0.00    +0.000 NA
ATOM      5  C   UNL     1       3.891   3.982  19.400  0.00  0.00    +0.000 A 
ATOM      6  C   UNL     1       2.760   4.725  19.695  0.00  0.00    +0.000 A 
ATOM      7  C   UNL     1       3.144   6.083  19.452  0.00  0.00    +0.000 A 
ATOM      8  N   UNL     1       4.411   6.158  18.999  0.00  0.00    +0.000 NA
ATOM      9  N   UNL     1       4.842   4.879  19.004  0.00  0.00    +0.000 N 
ENDROOT
BRANCH   7  10
ATOM     10  C   UNL     1       2.358   7.299  19.628  0.00  0.00    +0.000 A 
ATOM     11  C   UNL     1       2.123   8.155  18.561  0.00  0.00    +0.000 A 
ATOM     12  N   UNL     1       1.339   9.264  18.627  0.00  0.00    +0.000 NA
ATOM     13  C   UNL     1       0.754   9.551  19.803  0.00  0.00    +0.000 A 
ATOM     14  C   UNL     1      -0.103  10.639  19.893  0.00  0.00    +0.000 A 
ATOM     15  C   UNL     1      -0.758  10.961  21.086  0.00  0.00    +0.000 A 
ATOM     16  C   UNL     1      -0.536  10.199  22.227  0.00  0.00    +0.000 A 
ATOM     17  C   UNL     1       0.331   9.108  22.168  0.00  0.00    +0.000 A 
ATOM     18  C   UNL     1       0.964   8.773  20.961  0.00  0.00    +0.000 A 
ATOM     19  C   UNL     1       1.799   7.649  20.855  0.00  0.00    +0.000 A 
ENDBRANCH   7  10
BRANCH   1  20
ATOM     20  N   UNL     1       0.401   4.545  20.448  0.00  0.00    +0.000 N 
ATOM     21  H   UNL     1       0.515   5.497  20.780  0.00  0.00    +0.000 HD
ATOM     22  H   UNL     1      -0.191   3.959  21.023  0.00  0.00    +0.000 HD
ENDBRANCH   1  20
BRANCH   9  23
ATOM     23  C   UNL     1       6.231   4.588  18.713  0.00  0.00    +0.000 C 
BRANCH  23  24
ATOM     24  C   UNL     1       7.032   5.776  18.179  0.00  0.00    +0.000 C 
BRANCH  24  25
ATOM     25  C   UNL     1       7.117   5.884  16.652  0.00  0.00    +0.000 C 
BRANCH  25  26
ATOM     26  C   UNL     1       6.755   4.585  15.933  0.00  0.00    +0.000 C 
BRANCH  26  27
ATOM     27  C   UNL     1       6.954   4.677  14.435  0.00  0.00    +0.000 C 
ATOM     28  O   UNL     1       6.302   4.055  13.602  0.00  0.00    +0.000 OA
ATOM     29  N   UNL     1       7.976   5.530  14.080  0.00  0.00    +0.000 N 
ATOM     30  H   UNL     1       8.275   6.291  14.681  0.00  0.00    +0.000 HD
BRANCH  29  31
ATOM     31  O   UNL     1       8.131   5.738  12.688  0.00  0.00    +0.000 OA
ATOM     32  H   UNL     1       8.813   6.444  12.657  0.00  0.00    +0.000 HD
ENDBRANCH  29  31
ENDBRANCH  26  27
ENDBRANCH  25  26
ENDBRANCH  24  25
ENDBRANCH  23  24
ENDBRANCH   9  23
TORSDOF 8
ENDMDL
MODEL 9
REMARK VINA RESULT:      -8.2      3.014      3.708
REMARK  Name = 
REMARK  8 active torsions:
REMARK  status: ('A' for Active; 'I' for Inactive)
REMARK    1  A    between atoms: N_1  and  C_2
REMARK    2  A    between atoms: C_8  and  C_9
REMARK    3  A    between atoms: N_20  and  C_21
REMARK    4  A    between atoms: C_21  and  C_22
REMARK    5  A    between atoms: C_22  and  C_23
REMARK    6  A    between atoms: C_23  and  C_24
REMARK    7  A    between atoms: C_24  and  C_25
REMARK    8  A    between atoms: N_27  and  O_28
REMARK                            x       y       z     vdW  Elec       q    Type
REMARK                         _______ _______ _______ _____ _____    ______ ____
ROOT
ATOM      1  C   UNL     1       2.100   3.517  18.694  0.00  0.00    +0.000 A 
ATOM      2  N   UNL     1       2.284   2.199  18.469  0.00  0.00    +0.000 NA
ATOM      3  C   UNL     1       3.398   1.801  17.826  0.00  0.00    +0.000 A 
ATOM      4  N   UNL     1       4.391   2.566  17.348  0.00  0.00    +0.000 NA
ATOM      5  C   UNL     1       4.169   3.868  17.598  0.00  0.00    +0.000 A 
ATOM      6  C   UNL     1       3.083   4.419  18.258  0.00  0.00    +0.000 A 
ATOM      7  C   UNL     1       3.352   5.826  18.285  0.00  0.00    +0.000 A 
ATOM      8  N   UNL     1       4.502   6.116  17.647  0.00  0.00    +0.000 NA
ATOM      9  N   UNL     1       4.984   4.914  17.267  0.00  0.00    +0.000 N 
ENDROOT
BRANCH   7  10
ATOM     10  C   UNL     1       2.559   6.894  18.885  0.00  0.00    +0.000 A 
ATOM     11  C   UNL     1       2.164   6.827  20.214  0.00  0.00    +0.000 A 
ATOM     12  N   UNL     1       1.492   7.815  20.864  0.00  0.00    +0.000 NA
ATOM     13  C   UNL     1       1.190   8.928  20.174  0.00  0.00    +0.000 A 
ATOM     14  C   UNL     1       0.560   9.983  20.820  0.00  0.00    +0.000 A 
ATOM     15  C   UNL     1       0.251  11.173  20.152  0.00  0.00    +0.000 A 
ATOM     16  C   UNL     1       0.550  11.309  18.802  0.00  0.00    +0.000 A 
ATOM     17  C   UNL     1       1.171  10.260  18.126  0.00  0.00    +0.000 A 
ATOM     18  C   UNL     1       1.504   9.079  18.807  0.00  0.00    +0.000 A 
ATOM     19  C   UNL     1       2.178   8.025  18.167  0.00  0.00    +0.000 A 
ENDBRANCH   7  10
BRANCH   1  20
ATOM     20  N   UNL     1       0.925   3.861  19.351  0.00  0.00    +0.000 N 
ATOM     21  H   UNL     1       1.138   4.317  20.232  0.00  0.00    +0.000 HD
ATOM     22  H   UNL     1       0.232   3.126  19.405  0.00  0.00    +0.000 HD
ENDBRANCH   1  20
BRANCH   9  23
ATOM     23  C   UNL     1       6.303   4.823  16.675  0.00  0.00    +0.000 C 
BRANCH  23  24
ATOM     24  C   UNL     1       6.342   5.080  15.167  0.00  0.00    +0.000 C 
BRANCH  24  25
ATOM     25  C   UNL     1       6.161   3.844  14.281  0.00  0.00    +0.000 C 
BRANCH  25  26
ATOM     26  C   UNL     1       5.233   4.083  13.091  0.00  0.00    +0.000 C 
BRANCH  26  27
ATOM     27  C   UNL     1       5.360   3.010  12.031  0.00  0.00    +0.000 C 
ATOM     28  O   UNL     1       4.479   2.704  11.232  0.00  0.00    +0.000 OA
ATOM     29  N   UNL     1       6.582   2.374  12.054  0.00  0.00    +0.000 N 
ATOM     30  H   UNL     1       7.413   2.818  12.432  0.00  0.00    +0.000 HD
BRANCH  29  31
ATOM     31  O   UNL     1       6.795   1.439  11.012  0.00  0.00    +0.000 OA
ATOM     32  H   UNL     1       6.688   0.580  11.476  0.00  0.00    +0.000 HD
ENDBRANCH  29  31
ENDBRANCH  26  27
ENDBRANCH  25  26
ENDBRANCH  24  25
ENDBRANCH  23  24
ENDBRANCH   9  23
TORSDOF 8
ENDMDL
