MODEL 1
REMARK VINA RESULT:      -8.3      0.000      0.000
REMARK  Name = 
REMARK  9 active torsions:
REMARK  status: ('A' for Active; 'I' for Inactive)
REMARK    1  A    between atoms: C_1  and  C_2
REMARK    2  A    between atoms: C_2  and  C_3
REMARK    3  A    between atoms: C_2  and  O_23
REMARK    4  A    between atoms: C_3  and  O_4
REMARK    5  A    between atoms: O_4  and  C_5
REMARK    6  A    between atoms: C_5  and  C_7
REMARK    7  A    between atoms: C_7  and  C_8
REMARK    8  A    between atoms: C_7  and  C_9
REMARK    9  A    between atoms: O_23  and  N_24
REMARK                            x       y       z     vdW  Elec       q    Type
REMARK                         _______ _______ _______ _____ _____    ______ ____
ROOT
ATOM      1  C   UNL     1       3.161   5.408  18.778  0.00  0.00    +0.000 A 
ATOM      2  C   UNL     1       2.567   5.128  20.014  0.00  0.00    +0.000 A 
ATOM      3  C   UNL     1       1.822   6.094  20.696  0.00  0.00    +0.000 A 
ATOM      4  C   UNL     1       1.654   7.370  20.127  0.00  0.00    +0.000 A 
ATOM      5  C   UNL     1       2.229   7.629  18.887  0.00  0.00    +0.000 A 
ATOM      6  C   UNL     1       2.989   6.677  18.191  0.00  0.00    +0.000 A 
ATOM      7  N   UNL     1       1.900   8.923  18.554  0.00  0.00    +0.000 N 
ATOM      8  C   UNL     1       1.145   9.512  19.546  0.00  0.00    +0.000 A 
ATOM      9  C   UNL     1       0.599  10.797  19.630  0.00  0.00    +0.000 A 
ATOM     10  C   UNL     1      -0.117  11.120  20.786  0.00  0.00    +0.000 A 
ATOM     11  C   UNL     1      -0.278  10.190  21.811  0.00  0.00    +0.000 A 
ATOM     12 CL   UNL     1      -1.153  10.627  23.228  0.00  0.00    +0.000 Cl
ATOM     13  C   UNL     1       0.263   8.908  21.708  0.00  0.00    +0.000 A 
ATOM     14  C   UNL     1       0.986   8.558  20.551  0.00  0.00    +0.000 A 
ATOM     15  H   UNL     1       2.181   9.385  17.702  0.00  0.00    +0.000 HD
ENDROOT
BRANCH   1  16
ATOM     16  C   UNL     1       3.965   4.344  18.053  0.00  0.00    +0.000 C 
ATOM     17  C   UNL     1       3.068   3.209  17.545  0.00  0.00    +0.000 C 
BRANCH  16  18
ATOM     18  C   UNL     1       5.153   3.833  18.867  0.00  0.00    +0.000 C 
ATOM     19  O   UNL     1       5.079   2.933  19.696  0.00  0.00    +0.000 OA
BRANCH  18  20
ATOM     20  O   UNL     1       6.289   4.544  18.610  0.00  0.00    +0.000 OA
BRANCH  20  21
ATOM     21  C   UNL     1       6.887   4.332  17.321  0.00  0.00    +0.000 C 
BRANCH  21  23
ATOM     22  C   UNL     1       6.684   6.806  17.425  0.00  0.00    +0.000 C 
ATOM     23  C   UNL     1       7.183   5.636  16.572  0.00  0.00    +0.000 C 
BRANCH  23  24
ATOM     24  O   UNL     1       6.421   5.686  15.361  0.00  0.00    +0.000 OA
BRANCH  24  25
ATOM     25  N   UNL     1       7.009   5.011  14.268  0.00  0.00    +0.000 N 
ATOM     26  O   UNL     1       6.486   3.964  13.889  0.00  0.00    +0.000 OA
ATOM     27  O   UNL     1       8.005   5.589  13.837  0.00  0.00    +0.000 OA
ENDBRANCH  24  25
ENDBRANCH  23  24
ENDBRANCH  21  23
ENDBRANCH  20  21
ENDBRANCH  18  20
ENDBRANCH  16  18
ENDBRANCH   1  16
TORSDOF 7
ENDMDL
MODEL 2
REMARK VINA RESULT:      -8.1      1.287      1.936
REMARK  Name = 
REMARK  9 active torsions:
REMARK  status: ('A' for Active; 'I' for Inactive)
REMARK    1  A    between atoms: C_1  and  C_2
REMARK    2  A    between atoms: C_2  and  C_3
REMARK    3  A    between atoms: C_2  and  O_23
REMARK    4  A    between atoms: C_3  and  O_4
REMARK    5  A    between atoms: O_4  and  C_5
REMARK    6  A    between atoms: C_5  and  C_7
REMARK    7  A    between atoms: C_7  and  C_8
REMARK    8  A    between atoms: C_7  and  C_9
REMARK    9  A    between atoms: O_23  and  N_24
REMARK                            x       y       z     vdW  Elec       q    Type
REMARK                         _______ _______ _______ _____ _____    ______ ____
ROOT
ATOM      1  C   UNL     1       3.384   5.714  18.297  0.00  0.00    +0.000 A 
ATOM      2  C   UNL     1       3.282   6.854  17.492  0.00  0.00    +0.000 A 
ATOM      3  C   UNL     1       2.613   7.998  17.934  0.00  0.00    +0.000 A 
ATOM      4  C   UNL     1       2.039   8.012  19.219  0.00  0.00    +0.000 A 
ATOM      5  C   UNL     1       2.167   6.881  20.020  0.00  0.00    +0.000 A 
ATOM      6  C   UNL     1       2.825   5.720  19.590  0.00  0.00    +0.000 A 
ATOM      7  N   UNL     1       1.543   7.164  21.214  0.00  0.00    +0.000 N 
ATOM      8  C   UNL     1       1.005   8.433  21.204  0.00  0.00    +0.000 A 
ATOM      9  C   UNL     1       0.294   9.126  22.189  0.00  0.00    +0.000 A 
ATOM     10  C   UNL     1      -0.149  10.416  21.879  0.00  0.00    +0.000 A 
ATOM     11  C   UNL     1       0.115  10.981  20.634  0.00  0.00    +0.000 A 
ATOM     12 CL   UNL     1      -0.459  12.566  20.280  0.00  0.00    +0.000 Cl
ATOM     13  C   UNL     1       0.835  10.282  19.665  0.00  0.00    +0.000 A 
ATOM     14  C   UNL     1       1.294   8.982  19.955  0.00  0.00    +0.000 A 
ATOM     15  H   UNL     1       1.480   6.525  21.993  0.00  0.00    +0.000 HD
ENDROOT
BRANCH   1  16
ATOM     16  C   UNL     1       4.115   4.482  17.798  0.00  0.00    +0.000 C 
ATOM     17  C   UNL     1       3.137   3.389  17.349  0.00  0.00    +0.000 C 
BRANCH  16  18
ATOM     18  C   UNL     1       5.159   3.964  18.785  0.00  0.00    +0.000 C 
ATOM     19  O   UNL     1       4.891   3.303  19.781  0.00  0.00    +0.000 OA
BRANCH  18  20
ATOM     20  O   UNL     1       6.417   4.384  18.462  0.00  0.00    +0.000 OA
BRANCH  20  21
ATOM     21  C   UNL     1       6.659   5.794  18.576  0.00  0.00    +0.000 C 
BRANCH  21  23
ATOM     22  C   UNL     1       7.749   7.834  17.671  0.00  0.00    +0.000 C 
ATOM     23  C   UNL     1       7.368   6.386  17.353  0.00  0.00    +0.000 C 
BRANCH  23  24
ATOM     24  O   UNL     1       6.458   6.458  16.251  0.00  0.00    +0.000 OA
BRANCH  24  25
ATOM     25  N   UNL     1       6.567   5.394  15.326  0.00  0.00    +0.000 N 
ATOM     26  O   UNL     1       7.664   4.852  15.199  0.00  0.00    +0.000 OA
ATOM     27  O   UNL     1       5.506   5.158  14.752  0.00  0.00    +0.000 OA
ENDBRANCH  24  25
ENDBRANCH  23  24
ENDBRANCH  21  23
ENDBRANCH  20  21
ENDBRANCH  18  20
ENDBRANCH  16  18
ENDBRANCH   1  16
TORSDOF 7
ENDMDL
MODEL 3
REMARK VINA RESULT:      -7.9      2.781      4.137
REMARK  Name = 
REMARK  9 active torsions:
REMARK  status: ('A' for Active; 'I' for Inactive)
REMARK    1  A    between atoms: C_1  and  C_2
REMARK    2  A    between atoms: C_2  and  C_3
REMARK    3  A    between atoms: C_2  and  O_23
REMARK    4  A    between atoms: C_3  and  O_4
REMARK    5  A    between atoms: O_4  and  C_5
REMARK    6  A    between atoms: C_5  and  C_7
REMARK    7  A    between atoms: C_7  and  C_8
REMARK    8  A    between atoms: C_7  and  C_9
REMARK    9  A    between atoms: O_23  and  N_24
REMARK                            x       y       z     vdW  Elec       q    Type
REMARK                         _______ _______ _______ _____ _____    ______ ____
ROOT
ATOM      1  C   UNL     1       3.985   6.262  18.205  0.00  0.00    +0.000 A 
ATOM      2  C   UNL     1       3.654   7.328  17.362  0.00  0.00    +0.000 A 
ATOM      3  C   UNL     1       2.721   8.295  17.746  0.00  0.00    +0.000 A 
ATOM      4  C   UNL     1       2.108   8.203  19.010  0.00  0.00    +0.000 A 
ATOM      5  C   UNL     1       2.463   7.152  19.849  0.00  0.00    +0.000 A 
ATOM      6  C   UNL     1       3.389   6.166  19.478  0.00  0.00    +0.000 A 
ATOM      7  N   UNL     1       1.743   7.307  21.012  0.00  0.00    +0.000 N 
ATOM      8  C   UNL     1       0.927   8.416  20.945  0.00  0.00    +0.000 A 
ATOM      9  C   UNL     1       0.035   8.946  21.883  0.00  0.00    +0.000 A 
ATOM     10  C   UNL     1      -0.682  10.089  21.519  0.00  0.00    +0.000 A 
ATOM     11  C   UNL     1      -0.508  10.673  20.266  0.00  0.00    +0.000 A 
ATOM     12 CL   UNL     1      -1.419  12.072  19.844  0.00  0.00    +0.000 Cl
ATOM     13  C   UNL     1       0.393  10.140  19.344  0.00  0.00    +0.000 A 
ATOM     14  C   UNL     1       1.130   8.989  19.690  0.00  0.00    +0.000 A 
ATOM     15  H   UNL     1       1.799   6.689  21.808  0.00  0.00    +0.000 HD
ENDROOT
BRANCH   1  16
ATOM     16  C   UNL     1       5.002   5.223  17.769  0.00  0.00    +0.000 C 
ATOM     17  C   UNL     1       4.493   4.401  16.579  0.00  0.00    +0.000 C 
BRANCH  16  18
ATOM     18  C   UNL     1       5.494   4.347  18.920  0.00  0.00    +0.000 C 
ATOM     19  O   UNL     1       6.288   4.721  19.775  0.00  0.00    +0.000 OA
BRANCH  18  20
ATOM     20  O   UNL     1       4.998   3.078  18.841  0.00  0.00    +0.000 OA
BRANCH  20  21
ATOM     21  C   UNL     1       4.373   2.571  20.031  0.00  0.00    +0.000 C 
BRANCH  21  23
ATOM     22  C   UNL     1       2.430   2.716  21.571  0.00  0.00    +0.000 C 
ATOM     23  C   UNL     1       2.881   2.912  20.121  0.00  0.00    +0.000 C 
BRANCH  23  24
ATOM     24  O   UNL     1       2.121   1.979  19.348  0.00  0.00    +0.000 OA
BRANCH  24  25
ATOM     25  N   UNL     1       1.207   2.568  18.445  0.00  0.00    +0.000 N 
ATOM     26  O   UNL     1       1.609   3.492  17.740  0.00  0.00    +0.000 OA
ATOM     27  O   UNL     1       0.091   2.054  18.501  0.00  0.00    +0.000 OA
ENDBRANCH  24  25
ENDBRANCH  23  24
ENDBRANCH  21  23
ENDBRANCH  20  21
ENDBRANCH  18  20
ENDBRANCH  16  18
ENDBRANCH   1  16
TORSDOF 7
ENDMDL
MODEL 4
REMARK VINA RESULT:      -7.9      1.193      1.426
REMARK  Name = 
REMARK  9 active torsions:
REMARK  status: ('A' for Active; 'I' for Inactive)
REMARK    1  A    between atoms: C_1  and  C_2
REMARK    2  A    between atoms: C_2  and  C_3
REMARK    3  A    between atoms: C_2  and  O_23
REMARK    4  A    between atoms: C_3  and  O_4
REMARK    5  A    between atoms: O_4  and  C_5
REMARK    6  A    between atoms: C_5  and  C_7
REMARK    7  A    between atoms: C_7  and  C_8
REMARK    8  A    between atoms: C_7  and  C_9
REMARK    9  A    between atoms: O_23  and  N_24
REMARK                            x       y       z     vdW  Elec       q    Type
REMARK                         _______ _______ _______ _____ _____    ______ ____
ROOT
ATOM      1  C   UNL     1       2.674   6.529  18.589  0.00  0.00    +0.000 A 
ATOM      2  C   UNL     1       2.239   6.482  19.918  0.00  0.00    +0.000 A 
ATOM      3  C   UNL     1       1.623   7.583  20.520  0.00  0.00    +0.000 A 
ATOM      4  C   UNL     1       1.425   8.760  19.774  0.00  0.00    +0.000 A 
ATOM      5  C   UNL     1       1.840   8.787  18.446  0.00  0.00    +0.000 A 
ATOM      6  C   UNL     1       2.469   7.697  17.827  0.00  0.00    +0.000 A 
ATOM      7  N   UNL     1       1.514  10.028  17.949  0.00  0.00    +0.000 N 
ATOM      8  C   UNL     1       0.915  10.807  18.916  0.00  0.00    +0.000 A 
ATOM      9  C   UNL     1       0.429  12.117  18.856  0.00  0.00    +0.000 A 
ATOM     10  C   UNL     1      -0.118  12.658  20.023  0.00  0.00    +0.000 A 
ATOM     11  C   UNL     1      -0.173  11.912  21.199  0.00  0.00    +0.000 A 
ATOM     12 CL   UNL     1      -0.839  12.615  22.623  0.00  0.00    +0.000 Cl
ATOM     13  C   UNL     1       0.306  10.603  21.242  0.00  0.00    +0.000 A 
ATOM     14  C   UNL     1       0.859  10.035  20.076  0.00  0.00    +0.000 A 
ATOM     15  H   UNL     1       1.695  10.333  17.005  0.00  0.00    +0.000 HD
ENDROOT
BRANCH   1  16
ATOM     16  C   UNL     1       3.340   5.322  17.954  0.00  0.00    +0.000 C 
ATOM     17  C   UNL     1       2.338   4.185  17.721  0.00  0.00    +0.000 C 
BRANCH  16  18
ATOM     18  C   UNL     1       4.586   4.860  18.708  0.00  0.00    +0.000 C 
ATOM     19  O   UNL     1       4.710   3.749  19.210  0.00  0.00    +0.000 OA
BRANCH  18  20
ATOM     20  O   UNL     1       5.515   5.855  18.813  0.00  0.00    +0.000 OA
BRANCH  20  21
ATOM     21  C   UNL     1       6.859   5.502  18.452  0.00  0.00    +0.000 C 
BRANCH  21  23
ATOM     22  C   UNL     1       7.638   7.705  17.610  0.00  0.00    +0.000 C 
ATOM     23  C   UNL     1       7.369   6.250  17.215  0.00  0.00    +0.000 C 
BRANCH  23  24
ATOM     24  O   UNL     1       6.341   6.302  16.220  0.00  0.00    +0.000 OA
BRANCH  24  25
ATOM     25  N   UNL     1       6.412   5.281  15.246  0.00  0.00    +0.000 N 
ATOM     26  O   UNL     1       5.416   4.581  15.071  0.00  0.00    +0.000 OA
ATOM     27  O   UNL     1       7.509   5.233  14.693  0.00  0.00    +0.000 OA
ENDBRANCH  24  25
ENDBRANCH  23  24
ENDBRANCH  21  23
ENDBRANCH  20  21
ENDBRANCH  18  20
ENDBRANCH  16  18
ENDBRANCH   1  16
TORSDOF 7
ENDMDL
MODEL 5
REMARK VINA RESULT:      -7.8      2.999      4.658
REMARK  Name = 
REMARK  9 active torsions:
REMARK  status: ('A' for Active; 'I' for Inactive)
REMARK    1  A    between atoms: C_1  and  C_2
REMARK    2  A    between atoms: C_2  and  C_3
REMARK    3  A    between atoms: C_2  and  O_23
REMARK    4  A    between atoms: C_3  and  O_4
REMARK    5  A    between atoms: O_4  and  C_5
REMARK    6  A    between atoms: C_5  and  C_7
REMARK    7  A    between atoms: C_7  and  C_8
REMARK    8  A    between atoms: C_7  and  C_9
REMARK    9  A    between atoms: O_23  and  N_24
REMARK                            x       y       z     vdW  Elec       q    Type
REMARK                         _______ _______ _______ _____ _____    ______ ____
ROOT
ATOM      1  C   UNL     1       2.657   7.223  18.687  0.00  0.00    +0.000 A 
ATOM      2  C   UNL     1       2.200   8.279  17.890  0.00  0.00    +0.000 A 
ATOM      3  C   UNL     1       1.375   9.279  18.413  0.00  0.00    +0.000 A 
ATOM      4  C   UNL     1       1.005   9.233  19.769  0.00  0.00    +0.000 A 
ATOM      5  C   UNL     1       1.484   8.192  20.558  0.00  0.00    +0.000 A 
ATOM      6  C   UNL     1       2.304   7.174  20.050  0.00  0.00    +0.000 A 
ATOM      7  N   UNL     1       0.996   8.394  21.829  0.00  0.00    +0.000 N 
ATOM      8  C   UNL     1       0.206   9.523  21.882  0.00  0.00    +0.000 A 
ATOM      9  C   UNL     1      -0.485  10.098  22.953  0.00  0.00    +0.000 A 
ATOM     10  C   UNL     1      -1.231  11.253  22.696  0.00  0.00    +0.000 A 
ATOM     11  C   UNL     1      -1.278  11.802  21.416  0.00  0.00    +0.000 A 
ATOM     12 CL   UNL     1      -2.220  13.215  21.131  0.00  0.00    +0.000 Cl
ATOM     13  C   UNL     1      -0.575  11.223  20.359  0.00  0.00    +0.000 A 
ATOM     14  C   UNL     1       0.187  10.061  20.596  0.00  0.00    +0.000 A 
ATOM     15  H   UNL     1       1.183   7.793  22.617  0.00  0.00    +0.000 HD
ENDROOT
BRANCH   1  16
ATOM     16  C   UNL     1       3.552   6.148  18.101  0.00  0.00    +0.000 C 
ATOM     17  C   UNL     1       4.452   6.707  16.992  0.00  0.00    +0.000 C 
BRANCH  16  18
ATOM     18  C   UNL     1       2.784   4.904  17.659  0.00  0.00    +0.000 C 
ATOM     19  O   UNL     1       1.561   4.818  17.660  0.00  0.00    +0.000 OA
BRANCH  18  20
ATOM     20  O   UNL     1       3.621   3.878  17.331  0.00  0.00    +0.000 OA
BRANCH  20  21
ATOM     21  C   UNL     1       3.444   2.659  18.069  0.00  0.00    +0.000 C 
BRANCH  21  23
ATOM     22  C   UNL     1       4.630   1.949  20.133  0.00  0.00    +0.000 C 
ATOM     23  C   UNL     1       3.523   2.855  19.587  0.00  0.00    +0.000 C 
BRANCH  23  24
ATOM     24  O   UNL     1       2.312   2.402  20.200  0.00  0.00    +0.000 OA
BRANCH  24  25
ATOM     25  N   UNL     1       1.808   3.252  21.210  0.00  0.00    +0.000 N 
ATOM     26  O   UNL     1       2.260   3.126  22.347  0.00  0.00    +0.000 OA
ATOM     27  O   UNL     1       0.949   4.025  20.790  0.00  0.00    +0.000 OA
ENDBRANCH  24  25
ENDBRANCH  23  24
ENDBRANCH  21  23
ENDBRANCH  20  21
ENDBRANCH  18  20
ENDBRANCH  16  18
ENDBRANCH   1  16
TORSDOF 7
ENDMDL
MODEL 6
REMARK VINA RESULT:      -7.8      1.627      2.024
REMARK  Name = 
REMARK  9 active torsions:
REMARK  status: ('A' for Active; 'I' for Inactive)
REMARK    1  A    between atoms: C_1  and  C_2
REMARK    2  A    between atoms: C_2  and  C_3
REMARK    3  A    between atoms: C_2  and  O_23
REMARK    4  A    between atoms: C_3  and  O_4
REMARK    5  A    between atoms: O_4  and  C_5
REMARK    6  A    between atoms: C_5  and  C_7
REMARK    7  A    between atoms: C_7  and  C_8
REMARK    8  A    between atoms: C_7  and  C_9
REMARK    9  A    between atoms: O_23  and  N_24
REMARK                            x       y       z     vdW  Elec       q    Type
REMARK                         _______ _______ _______ _____ _____    ______ ____
ROOT
ATOM      1  C   UNL     1       2.807   4.731  19.120  0.00  0.00    +0.000 A 
ATOM      2  C   UNL     1       2.171   4.622  20.362  0.00  0.00    +0.000 A 
ATOM      3  C   UNL     1       1.566   5.726  20.967  0.00  0.00    +0.000 A 
ATOM      4  C   UNL     1       1.584   6.972  20.312  0.00  0.00    +0.000 A 
ATOM      5  C   UNL     1       2.199   7.063  19.067  0.00  0.00    +0.000 A 
ATOM      6  C   UNL     1       2.821   5.969  18.448  0.00  0.00    +0.000 A 
ATOM      7  N   UNL     1       2.059   8.366  18.646  0.00  0.00    +0.000 N 
ATOM      8  C   UNL     1       1.388   9.120  19.584  0.00  0.00    +0.000 A 
ATOM      9  C   UNL     1       1.029  10.472  19.575  0.00  0.00    +0.000 A 
ATOM     10  C   UNL     1       0.357  10.970  20.695  0.00  0.00    +0.000 A 
ATOM     11  C   UNL     1       0.059  10.143  21.776  0.00  0.00    +0.000 A 
ATOM     12 CL   UNL     1      -0.755  10.792  23.147  0.00  0.00    +0.000 Cl
ATOM     13  C   UNL     1       0.414   8.793  21.767  0.00  0.00    +0.000 A 
ATOM     14  C   UNL     1       1.089   8.268  20.646  0.00  0.00    +0.000 A 
ATOM     15  H   UNL     1       2.408   8.725  17.770  0.00  0.00    +0.000 HD
ENDROOT
BRANCH   1  16
ATOM     16  C   UNL     1       3.458   3.519  18.480  0.00  0.00    +0.000 C 
ATOM     17  C   UNL     1       3.117   2.230  19.238  0.00  0.00    +0.000 C 
BRANCH  16  18
ATOM     18  C   UNL     1       4.960   3.690  18.262  0.00  0.00    +0.000 C 
ATOM     19  O   UNL     1       5.767   3.866  19.168  0.00  0.00    +0.000 OA
BRANCH  18  20
ATOM     20  O   UNL     1       5.286   3.692  16.937  0.00  0.00    +0.000 OA
BRANCH  20  21
ATOM     21  C   UNL     1       6.430   4.479  16.570  0.00  0.00    +0.000 C 
BRANCH  21  23
ATOM     22  C   UNL     1       5.282   6.479  15.647  0.00  0.00    +0.000 C 
ATOM     23  C   UNL     1       6.212   5.984  16.759  0.00  0.00    +0.000 C 
BRANCH  23  24
ATOM     24  O   UNL     1       7.447   6.682  16.570  0.00  0.00    +0.000 OA
BRANCH  24  25
ATOM     25  N   UNL     1       7.786   7.573  17.614  0.00  0.00    +0.000 N 
ATOM     26  O   UNL     1       7.664   8.779  17.403  0.00  0.00    +0.000 OA
ATOM     27  O   UNL     1       8.177   6.990  18.623  0.00  0.00    +0.000 OA
ENDBRANCH  24  25
ENDBRANCH  23  24
ENDBRANCH  21  23
ENDBRANCH  20  21
ENDBRANCH  18  20
ENDBRANCH  16  18
ENDBRANCH   1  16
TORSDOF 7
ENDMDL
MODEL 7
REMARK VINA RESULT:      -7.7      1.701      2.486
REMARK  Name = 
REMARK  9 active torsions:
REMARK  status: ('A' for Active; 'I' for Inactive)
REMARK    1  A    between atoms: C_1  and  C_2
REMARK    2  A    between atoms: C_2  and  C_3
REMARK    3  A    between atoms: C_2  and  O_23
REMARK    4  A    between atoms: C_3  and  O_4
REMARK    5  A    between atoms: O_4  and  C_5
REMARK    6  A    between atoms: C_5  and  C_7
REMARK    7  A    between atoms: C_7  and  C_8
REMARK    8  A    between atoms: C_7  and  C_9
REMARK    9  A    between atoms: O_23  and  N_24
REMARK                            x       y       z     vdW  Elec       q    Type
REMARK                         _______ _______ _______ _____ _____    ______ ____
ROOT
ATOM      1  C   UNL     1       3.159   5.469  18.477  0.00  0.00    +0.000 A 
ATOM      2  C   UNL     1       3.150   6.596  17.648  0.00  0.00    +0.000 A 
ATOM      3  C   UNL     1       2.561   7.795  18.059  0.00  0.00    +0.000 A 
ATOM      4  C   UNL     1       1.976   7.877  19.336  0.00  0.00    +0.000 A 
ATOM      5  C   UNL     1       2.012   6.758  20.161  0.00  0.00    +0.000 A 
ATOM      6  C   UNL     1       2.589   5.543  19.763  0.00  0.00    +0.000 A 
ATOM      7  N   UNL     1       1.398   7.110  21.342  0.00  0.00    +0.000 N 
ATOM      8  C   UNL     1       0.954   8.414  21.299  0.00  0.00    +0.000 A 
ATOM      9  C   UNL     1       0.285   9.178  22.261  0.00  0.00    +0.000 A 
ATOM     10  C   UNL     1      -0.059  10.489  21.920  0.00  0.00    +0.000 A 
ATOM     11  C   UNL     1       0.258  11.008  20.667  0.00  0.00    +0.000 A 
ATOM     12 CL   UNL     1      -0.195  12.622  20.274  0.00  0.00    +0.000 Cl
ATOM     13  C   UNL     1       0.936  10.239  19.721  0.00  0.00    +0.000 A 
ATOM     14  C   UNL     1       1.296   8.915  20.043  0.00  0.00    +0.000 A 
ATOM     15  H   UNL     1       1.280   6.494  22.132  0.00  0.00    +0.000 HD
ENDROOT
BRANCH   1  16
ATOM     16  C   UNL     1       3.805   4.177  18.012  0.00  0.00    +0.000 C 
ATOM     17  C   UNL     1       2.776   3.045  17.891  0.00  0.00    +0.000 C 
BRANCH  16  18
ATOM     18  C   UNL     1       5.019   3.778  18.849  0.00  0.00    +0.000 C 
ATOM     19  O   UNL     1       4.979   2.975  19.774  0.00  0.00    +0.000 OA
BRANCH  18  20
ATOM     20  O   UNL     1       6.136   4.473  18.488  0.00  0.00    +0.000 OA
BRANCH  20  21
ATOM     21  C   UNL     1       6.658   4.192  17.180  0.00  0.00    +0.000 C 
BRANCH  21  23
ATOM     22  C   UNL     1       6.940   4.942  14.829  0.00  0.00    +0.000 C 
ATOM     23  C   UNL     1       6.673   5.418  16.260  0.00  0.00    +0.000 C 
BRANCH  23  24
ATOM     24  O   UNL     1       7.773   6.267  16.598  0.00  0.00    +0.000 OA
BRANCH  24  25
ATOM     25  N   UNL     1       7.431   7.389  17.387  0.00  0.00    +0.000 N 
ATOM     26  O   UNL     1       8.226   7.747  18.255  0.00  0.00    +0.000 OA
ATOM     27  O   UNL     1       6.337   7.862  17.083  0.00  0.00    +0.000 OA
ENDBRANCH  24  25
ENDBRANCH  23  24
ENDBRANCH  21  23
ENDBRANCH  20  21
ENDBRANCH  18  20
ENDBRANCH  16  18
ENDBRANCH   1  16
TORSDOF 7
ENDMDL
MODEL 8
REMARK VINA RESULT:      -7.7      1.306      1.937
REMARK  Name = 
REMARK  9 active torsions:
REMARK  status: ('A' for Active; 'I' for Inactive)
REMARK    1  A    between atoms: C_1  and  C_2
REMARK    2  A    between atoms: C_2  and  C_3
REMARK    3  A    between atoms: C_2  and  O_23
REMARK    4  A    between atoms: C_3  and  O_4
REMARK    5  A    between atoms: O_4  and  C_5
REMARK    6  A    between atoms: C_5  and  C_7
REMARK    7  A    between atoms: C_7  and  C_8
REMARK    8  A    between atoms: C_7  and  C_9
REMARK    9  A    between atoms: O_23  and  N_24
REMARK                            x       y       z     vdW  Elec       q    Type
REMARK                         _______ _______ _______ _____ _____    ______ ____
ROOT
ATOM      1  C   UNL     1       2.386   6.936  18.721  0.00  0.00    +0.000 A 
ATOM      2  C   UNL     1       2.038   6.996  20.075  0.00  0.00    +0.000 A 
ATOM      3  C   UNL     1       1.500   8.157  20.636  0.00  0.00    +0.000 A 
ATOM      4  C   UNL     1       1.293   9.287  19.823  0.00  0.00    +0.000 A 
ATOM      5  C   UNL     1       1.620   9.209  18.473  0.00  0.00    +0.000 A 
ATOM      6  C   UNL     1       2.170   8.056  17.894  0.00  0.00    +0.000 A 
ATOM      7  N   UNL     1       1.304  10.426  17.912  0.00  0.00    +0.000 N 
ATOM      8  C   UNL     1       0.797  11.290  18.859  0.00  0.00    +0.000 A 
ATOM      9  C   UNL     1       0.353  12.610  18.738  0.00  0.00    +0.000 A 
ATOM     10  C   UNL     1      -0.098  13.250  19.897  0.00  0.00    +0.000 A 
ATOM     11  C   UNL     1      -0.101  12.588  21.123  0.00  0.00    +0.000 A 
ATOM     12 CL   UNL     1      -0.647  13.410  22.533  0.00  0.00    +0.000 Cl
ATOM     13  C   UNL     1       0.336  11.267  21.227  0.00  0.00    +0.000 A 
ATOM     14  C   UNL     1       0.791  10.601  20.071  0.00  0.00    +0.000 A 
ATOM     15  H   UNL     1       1.433  10.658  16.939  0.00  0.00    +0.000 HD
ENDROOT
BRANCH   1  16
ATOM     16  C   UNL     1       2.968   5.664  18.131  0.00  0.00    +0.000 C 
ATOM     17  C   UNL     1       1.870   4.652  17.782  0.00  0.00    +0.000 C 
BRANCH  16  18
ATOM     18  C   UNL     1       4.073   5.056  18.992  0.00  0.00    +0.000 C 
ATOM     19  O   UNL     1       3.870   4.297  19.932  0.00  0.00    +0.000 OA
BRANCH  18  20
ATOM     20  O   UNL     1       5.308   5.513  18.632  0.00  0.00    +0.000 OA
BRANCH  20  21
ATOM     21  C   UNL     1       5.502   5.767  17.232  0.00  0.00    +0.000 C 
BRANCH  21  23
ATOM     22  C   UNL     1       7.648   4.611  17.710  0.00  0.00    +0.000 C 
ATOM     23  C   UNL     1       6.623   4.922  16.616  0.00  0.00    +0.000 C 
BRANCH  23  24
ATOM     24  O   UNL     1       7.326   5.689  15.632  0.00  0.00    +0.000 OA
BRANCH  24  25
ATOM     25  N   UNL     1       7.355   5.109  14.344  0.00  0.00    +0.000 N 
ATOM     26  O   UNL     1       8.107   5.605  13.506  0.00  0.00    +0.000 OA
ATOM     27  O   UNL     1       6.587   4.154  14.239  0.00  0.00    +0.000 OA
ENDBRANCH  24  25
ENDBRANCH  23  24
ENDBRANCH  21  23
ENDBRANCH  20  21
ENDBRANCH  18  20
ENDBRANCH  16  18
ENDBRANCH   1  16
TORSDOF 7
ENDMDL
MODEL 9
REMARK VINA RESULT:      -7.7      2.465      4.418
REMARK  Name = 
REMARK  9 active torsions:
REMARK  status: ('A' for Active; 'I' for Inactive)
REMARK    1  A    between atoms: C_1  and  C_2
REMARK    2  A    between atoms: C_2  and  C_3
REMARK    3  A    between atoms: C_2  and  O_23
REMARK    4  A    between atoms: C_3  and  O_4
REMARK    5  A    between atoms: O_4  and  C_5
REMARK    6  A    between atoms: C_5  and  C_7
REMARK    7  A    between atoms: C_7  and  C_8
REMARK    8  A    between atoms: C_7  and  C_9
REMARK    9  A    between atoms: O_23  and  N_24
REMARK                            x       y       z     vdW  Elec       q    Type
REMARK                         _______ _______ _______ _____ _____    ______ ____
ROOT
ATOM      1  C   UNL     1       4.047   6.231  18.107  0.00  0.00    +0.000 A 
ATOM      2  C   UNL     1       3.698   7.304  17.278  0.00  0.00    +0.000 A 
ATOM      3  C   UNL     1       2.760   8.258  17.683  0.00  0.00    +0.000 A 
ATOM      4  C   UNL     1       2.162   8.147  18.951  0.00  0.00    +0.000 A 
ATOM      5  C   UNL     1       2.534   7.090  19.776  0.00  0.00    +0.000 A 
ATOM      6  C   UNL     1       3.465   6.117  19.385  0.00  0.00    +0.000 A 
ATOM      7  N   UNL     1       1.825   7.226  20.948  0.00  0.00    +0.000 N 
ATOM      8  C   UNL     1       0.998   8.328  20.901  0.00  0.00    +0.000 A 
ATOM      9  C   UNL     1       0.112   8.840  21.854  0.00  0.00    +0.000 A 
ATOM     10  C   UNL     1      -0.619   9.981  21.509  0.00  0.00    +0.000 A 
ATOM     11  C   UNL     1      -0.463  10.580  20.261  0.00  0.00    +0.000 A 
ATOM     12 CL   UNL     1      -1.390  11.975  19.864  0.00  0.00    +0.000 Cl
ATOM     13  C   UNL     1       0.433  10.065  19.324  0.00  0.00    +0.000 A 
ATOM     14  C   UNL     1       1.183   8.917  19.650  0.00  0.00    +0.000 A 
ATOM     15  H   UNL     1       1.895   6.600  21.736  0.00  0.00    +0.000 HD
ENDROOT
BRANCH   1  16
ATOM     16  C   UNL     1       5.068   5.206  17.649  0.00  0.00    +0.000 C 
ATOM     17  C   UNL     1       6.393   5.870  17.253  0.00  0.00    +0.000 C 
BRANCH  16  18
ATOM     18  C   UNL     1       4.535   4.271  16.565  0.00  0.00    +0.000 C 
ATOM     19  O   UNL     1       5.015   4.181  15.441  0.00  0.00    +0.000 OA
BRANCH  18  20
ATOM     20  O   UNL     1       3.420   3.600  16.976  0.00  0.00    +0.000 OA
BRANCH  20  21
ATOM     21  C   UNL     1       3.646   2.453  17.810  0.00  0.00    +0.000 C 
BRANCH  21  23
ATOM     22  C   UNL     1       4.366   2.082  20.158  0.00  0.00    +0.000 C 
ATOM     23  C   UNL     1       3.271   2.690  19.277  0.00  0.00    +0.000 C 
BRANCH  23  24
ATOM     24  O   UNL     1       2.074   1.972  19.595  0.00  0.00    +0.000 OA
BRANCH  24  25
ATOM     25  N   UNL     1       0.880   2.703  19.401  0.00  0.00    +0.000 N 
ATOM     26  O   UNL     1       0.700   3.706  20.089  0.00  0.00    +0.000 OA
ATOM     27  O   UNL     1       0.158   2.205  18.538  0.00  0.00    +0.000 OA
ENDBRANCH  24  25
ENDBRANCH  23  24
ENDBRANCH  21  23
ENDBRANCH  20  21
ENDBRANCH  18  20
ENDBRANCH  16  18
ENDBRANCH   1  16
TORSDOF 7
ENDMDL
