MODEL 1
REMARK VINA RESULT:      -8.0      0.000      0.000
REMARK  Name = 
REMARK  14 active torsions:
REMARK  status: ('A' for Active; 'I' for Inactive)
REMARK    1  A    between atoms: C_1  and  C_2
REMARK    2  A    between atoms: C_2  and  O_4
REMARK    3  A    between atoms: O_4  and  C_5
REMARK    4  A    between atoms: C_7  and  C_8
REMARK    5  A    between atoms: C_9  and  C_10
REMARK    6  A    between atoms: C_12  and  O_13
REMARK    7  A    between atoms: C_14  and  C_15
REMARK    8  A    between atoms: C_15  and  C_16
REMARK    9  A    between atoms: C_17  and  C_18
REMARK   10  A    between atoms: C_17  and  C_19
REMARK   11  A    between atoms: C_19  and  C_20
REMARK   12  A    between atoms: C_20  and  C_21
REMARK   13  A    between atoms: C_22  and  C_23
REMARK   14  A    between atoms: C_22  and  C_24
REMARK                            x       y       z     vdW  Elec       q    Type
REMARK                         _______ _______ _______ _____ _____    ______ ____
ROOT
ATOM      1  C   UNL     1       2.850   5.584  18.192  0.00  0.00    +0.000 A 
ATOM      2  C   UNL     1       1.896   4.727  18.763  0.00  0.00    +0.000 A 
ATOM      3  C   UNL     1       2.265   3.512  19.346  0.00  0.00    +0.000 A 
ATOM      4  C   UNL     1       1.178   2.625  19.878  0.00  0.00    +0.000 C 
ATOM      5  C   UNL     1       3.629   3.184  19.401  0.00  0.00    +0.000 A 
ATOM      6  C   UNL     1       4.592   4.074  18.882  0.00  0.00    +0.000 A 
ATOM      7  C   UNL     1       4.223   5.287  18.266  0.00  0.00    +0.000 A 
ENDROOT
BRANCH   5   8
ATOM      8  C   UNL     1       4.061   1.908  20.014  0.00  0.00    +0.000 C 
ATOM      9  O   UNL     1       5.080   1.844  20.700  0.00  0.00    +0.000 OA
ENDBRANCH   5   8
BRANCH   6  10
ATOM     10  O   UNL     1       5.935   3.795  18.968  0.00  0.00    +0.000 OA
ATOM     11  H   UNL     1       6.412   4.606  19.254  0.00  0.00    +0.000 HD
ENDBRANCH   6  10
BRANCH   1  12
ATOM     12  O   UNL     1       2.389   6.808  17.652  0.00  0.00    +0.000 OA
BRANCH  12  14
ATOM     13  C   UNL     1       2.136   9.165  17.831  0.00  0.00    +0.000 C 
ATOM     14  C   UNL     1       2.213   7.857  18.563  0.00  0.00    +0.000 C 
ATOM     15  O   UNL     1       2.211   7.768  19.787  0.00  0.00    +0.000 OA
ENDBRANCH  12  14
ENDBRANCH   1  12
BRANCH   7  16
ATOM     16  C   UNL     1       5.302   6.205  17.743  0.00  0.00    +0.000 C 
BRANCH  16  17
ATOM     17  C   UNL     1       5.644   5.965  16.306  0.00  0.00    +0.000 C 
ATOM     18  C   UNL     1       6.612   5.198  15.758  0.00  0.00    +0.000 C 
ATOM     19  C   UNL     1       7.565   4.354  16.562  0.00  0.00    +0.000 C 
BRANCH  18  20
ATOM     20  C   UNL     1       6.812   5.096  14.244  0.00  0.00    +0.000 C 
BRANCH  20  21
ATOM     21  C   UNL     1       6.198   3.822  13.655  0.00  0.00    +0.000 C 
BRANCH  21  22
ATOM     22  C   UNL     1       5.043   3.949  12.715  0.00  0.00    +0.000 C 
ATOM     23  C   UNL     1       4.855   3.068  11.711  0.00  0.00    +0.000 C 
ATOM     24  C   UNL     1       5.764   1.891  11.440  0.00  0.00    +0.000 C 
ATOM     25  C   UNL     1       3.699   3.193  10.762  0.00  0.00    +0.000 C 
ENDBRANCH  21  22
ENDBRANCH  20  21
ENDBRANCH  18  20
ENDBRANCH  16  17
ENDBRANCH   7  16
TORSDOF 9
ENDMDL
MODEL 2
REMARK VINA RESULT:      -7.4      2.112      3.662
REMARK  Name = 
REMARK  14 active torsions:
REMARK  status: ('A' for Active; 'I' for Inactive)
REMARK    1  A    between atoms: C_1  and  C_2
REMARK    2  A    between atoms: C_2  and  O_4
REMARK    3  A    between atoms: O_4  and  C_5
REMARK    4  A    between atoms: C_7  and  C_8
REMARK    5  A    between atoms: C_9  and  C_10
REMARK    6  A    between atoms: C_12  and  O_13
REMARK    7  A    between atoms: C_14  and  C_15
REMARK    8  A    between atoms: C_15  and  C_16
REMARK    9  A    between atoms: C_17  and  C_18
REMARK   10  A    between atoms: C_17  and  C_19
REMARK   11  A    between atoms: C_19  and  C_20
REMARK   12  A    between atoms: C_20  and  C_21
REMARK   13  A    between atoms: C_22  and  C_23
REMARK   14  A    between atoms: C_22  and  C_24
REMARK                            x       y       z     vdW  Elec       q    Type
REMARK                         _______ _______ _______ _____ _____    ______ ____
ROOT
ATOM      1  C   UNL     1       5.294   6.173  16.685  0.00  0.00    +0.000 A 
ATOM      2  C   UNL     1       4.391   7.075  17.270  0.00  0.00    +0.000 A 
ATOM      3  C   UNL     1       3.167   6.647  17.790  0.00  0.00    +0.000 A 
ATOM      4  C   UNL     1       2.233   7.683  18.341  0.00  0.00    +0.000 C 
ATOM      5  C   UNL     1       2.875   5.274  17.767  0.00  0.00    +0.000 A 
ATOM      6  C   UNL     1       3.809   4.361  17.235  0.00  0.00    +0.000 A 
ATOM      7  C   UNL     1       5.031   4.790  16.682  0.00  0.00    +0.000 A 
ENDROOT
BRANCH   5   8
ATOM      8  C   UNL     1       1.590   4.779  18.311  0.00  0.00    +0.000 C 
ATOM      9  O   UNL     1       1.539   3.757  18.992  0.00  0.00    +0.000 OA
ENDBRANCH   5   8
BRANCH   6  10
ATOM     10  O   UNL     1       3.563   3.008  17.246  0.00  0.00    +0.000 OA
ATOM     11  H   UNL     1       4.286   2.557  17.736  0.00  0.00    +0.000 HD
ENDBRANCH   6  10
BRANCH   1  12
ATOM     12  O   UNL     1       6.523   6.691  16.214  0.00  0.00    +0.000 OA
BRANCH  12  14
ATOM     13  C   UNL     1       7.706   6.355  18.249  0.00  0.00    +0.000 C 
ATOM     14  C   UNL     1       7.331   7.325  17.166  0.00  0.00    +0.000 C 
ATOM     15  O   UNL     1       7.631   8.514  17.194  0.00  0.00    +0.000 OA
ENDBRANCH  12  14
ENDBRANCH   1  12
BRANCH   7  16
ATOM     16  C   UNL     1       5.997   3.763  16.141  0.00  0.00    +0.000 C 
BRANCH  16  17
ATOM     17  C   UNL     1       5.827   3.497  14.679  0.00  0.00    +0.000 C 
ATOM     18  C   UNL     1       6.490   4.006  13.618  0.00  0.00    +0.000 C 
ATOM     19  C   UNL     1       7.634   4.978  13.735  0.00  0.00    +0.000 C 
BRANCH  18  20
ATOM     20  C   UNL     1       6.151   3.612  12.179  0.00  0.00    +0.000 C 
BRANCH  20  21
ATOM     21  C   UNL     1       4.645   3.451  11.953  0.00  0.00    +0.000 C 
BRANCH  21  22
ATOM     22  C   UNL     1       3.959   4.368  10.993  0.00  0.00    +0.000 C 
ATOM     23  C   UNL     1       3.142   3.894  10.030  0.00  0.00    +0.000 C 
ATOM     24  C   UNL     1       2.840   2.426   9.827  0.00  0.00    +0.000 C 
ATOM     25  C   UNL     1       2.454   4.810   9.062  0.00  0.00    +0.000 C 
ENDBRANCH  21  22
ENDBRANCH  20  21
ENDBRANCH  18  20
ENDBRANCH  16  17
ENDBRANCH   7  16
TORSDOF 9
ENDMDL
MODEL 3
REMARK VINA RESULT:      -7.3      3.121      5.337
REMARK  Name = 
REMARK  14 active torsions:
REMARK  status: ('A' for Active; 'I' for Inactive)
REMARK    1  A    between atoms: C_1  and  C_2
REMARK    2  A    between atoms: C_2  and  O_4
REMARK    3  A    between atoms: O_4  and  C_5
REMARK    4  A    between atoms: C_7  and  C_8
REMARK    5  A    between atoms: C_9  and  C_10
REMARK    6  A    between atoms: C_12  and  O_13
REMARK    7  A    between atoms: C_14  and  C_15
REMARK    8  A    between atoms: C_15  and  C_16
REMARK    9  A    between atoms: C_17  and  C_18
REMARK   10  A    between atoms: C_17  and  C_19
REMARK   11  A    between atoms: C_19  and  C_20
REMARK   12  A    between atoms: C_20  and  C_21
REMARK   13  A    between atoms: C_22  and  C_23
REMARK   14  A    between atoms: C_22  and  C_24
REMARK                            x       y       z     vdW  Elec       q    Type
REMARK                         _______ _______ _______ _____ _____    ______ ____
ROOT
ATOM      1  C   UNL     1       2.891   6.484  18.616  0.00  0.00    +0.000 A 
ATOM      2  C   UNL     1       2.085   5.702  19.457  0.00  0.00    +0.000 A 
ATOM      3  C   UNL     1       1.954   4.323  19.268  0.00  0.00    +0.000 A 
ATOM      4  C   UNL     1       1.025   3.571  20.173  0.00  0.00    +0.000 C 
ATOM      5  C   UNL     1       2.696   3.718  18.241  0.00  0.00    +0.000 A 
ATOM      6  C   UNL     1       3.553   4.494  17.435  0.00  0.00    +0.000 A 
ATOM      7  C   UNL     1       3.665   5.889  17.602  0.00  0.00    +0.000 A 
ENDROOT
BRANCH   5   8
ATOM      8  C   UNL     1       2.589   2.260  18.010  0.00  0.00    +0.000 C 
ATOM      9  O   UNL     1       3.590   1.548  17.958  0.00  0.00    +0.000 OA
ENDBRANCH   5   8
BRANCH   6  10
ATOM     10  O   UNL     1       4.324   3.914  16.455  0.00  0.00    +0.000 OA
ATOM     11  H   UNL     1       4.092   4.315  15.588  0.00  0.00    +0.000 HD
ENDBRANCH   6  10
BRANCH   1  12
ATOM     12  O   UNL     1       2.988   7.866  18.902  0.00  0.00    +0.000 OA
BRANCH  12  14
ATOM     13  C   UNL     1       1.344   9.214  17.839  0.00  0.00    +0.000 C 
ATOM     14  C   UNL     1       1.778   8.540  19.108  0.00  0.00    +0.000 C 
ATOM     15  O   UNL     1       1.183   8.662  20.174  0.00  0.00    +0.000 OA
ENDBRANCH  12  14
ENDBRANCH   1  12
BRANCH   7  16
ATOM     16  C   UNL     1       4.611   6.664  16.717  0.00  0.00    +0.000 C 
BRANCH  16  17
ATOM     17  C   UNL     1       5.842   7.134  17.426  0.00  0.00    +0.000 C 
ATOM     18  C   UNL     1       7.040   6.531  17.581  0.00  0.00    +0.000 C 
ATOM     19  C   UNL     1       7.386   5.190  16.988  0.00  0.00    +0.000 C 
BRANCH  18  20
ATOM     20  C   UNL     1       8.184   7.179  18.366  0.00  0.00    +0.000 C 
BRANCH  20  21
ATOM     21  C   UNL     1       8.270   8.691  18.138  0.00  0.00    +0.000 C 
BRANCH  21  22
ATOM     22  C   UNL     1       8.725   9.563  19.263  0.00  0.00    +0.000 C 
ATOM     23  C   UNL     1       9.562  10.600  19.054  0.00  0.00    +0.000 C 
ATOM     24  C   UNL     1      10.111  10.981  17.698  0.00  0.00    +0.000 C 
ATOM     25  C   UNL     1      10.024  11.476  20.181  0.00  0.00    +0.000 C 
ENDBRANCH  21  22
ENDBRANCH  20  21
ENDBRANCH  18  20
ENDBRANCH  16  17
ENDBRANCH   7  16
TORSDOF 9
ENDMDL
MODEL 4
REMARK VINA RESULT:      -7.1      3.021      6.521
REMARK  Name = 
REMARK  14 active torsions:
REMARK  status: ('A' for Active; 'I' for Inactive)
REMARK    1  A    between atoms: C_1  and  C_2
REMARK    2  A    between atoms: C_2  and  O_4
REMARK    3  A    between atoms: O_4  and  C_5
REMARK    4  A    between atoms: C_7  and  C_8
REMARK    5  A    between atoms: C_9  and  C_10
REMARK    6  A    between atoms: C_12  and  O_13
REMARK    7  A    between atoms: C_14  and  C_15
REMARK    8  A    between atoms: C_15  and  C_16
REMARK    9  A    between atoms: C_17  and  C_18
REMARK   10  A    between atoms: C_17  and  C_19
REMARK   11  A    between atoms: C_19  and  C_20
REMARK   12  A    between atoms: C_20  and  C_21
REMARK   13  A    between atoms: C_22  and  C_23
REMARK   14  A    between atoms: C_22  and  C_24
REMARK                            x       y       z     vdW  Elec       q    Type
REMARK                         _______ _______ _______ _____ _____    ______ ____
ROOT
ATOM      1  C   UNL     1       2.264   6.450  20.136  0.00  0.00    +0.000 A 
ATOM      2  C   UNL     1       1.461   7.178  21.027  0.00  0.00    +0.000 A 
ATOM      3  C   UNL     1       1.012   8.466  20.718  0.00  0.00    +0.000 A 
ATOM      4  C   UNL     1       0.209   9.200  21.751  0.00  0.00    +0.000 C 
ATOM      5  C   UNL     1       1.336   9.003  19.463  0.00  0.00    +0.000 A 
ATOM      6  C   UNL     1       2.092   8.246  18.544  0.00  0.00    +0.000 A 
ATOM      7  C   UNL     1       2.573   6.960  18.861  0.00  0.00    +0.000 A 
ENDROOT
BRANCH   5   8
ATOM      8  C   UNL     1       0.877  10.361  19.095  0.00  0.00    +0.000 C 
ATOM      9  O   UNL     1      -0.310  10.594  18.876  0.00  0.00    +0.000 OA
ENDBRANCH   5   8
BRANCH   6  10
ATOM     10  O   UNL     1       2.381   8.734  17.291  0.00  0.00    +0.000 OA
ATOM     11  H   UNL     1       2.250   9.709  17.291  0.00  0.00    +0.000 HD
ENDBRANCH   6  10
BRANCH   1  12
ATOM     12  O   UNL     1       2.645   5.143  20.519  0.00  0.00    +0.000 OA
BRANCH  12  14
ATOM     13  C   UNL     1       1.907   3.185  21.648  0.00  0.00    +0.000 C 
ATOM     14  C   UNL     1       1.620   4.191  20.571  0.00  0.00    +0.000 C 
ATOM     15  O   UNL     1       0.664   4.105  19.807  0.00  0.00    +0.000 OA
ENDBRANCH  12  14
ENDBRANCH   1  12
BRANCH   7  16
ATOM     16  C   UNL     1       3.364   6.193  17.829  0.00  0.00    +0.000 C 
BRANCH  16  17
ATOM     17  C   UNL     1       4.842   6.401  17.936  0.00  0.00    +0.000 C 
ATOM     18  C   UNL     1       5.803   6.323  16.989  0.00  0.00    +0.000 C 
ATOM     19  C   UNL     1       5.525   6.029  15.538  0.00  0.00    +0.000 C 
BRANCH  18  20
ATOM     20  C   UNL     1       7.281   6.558  17.306  0.00  0.00    +0.000 C 
BRANCH  20  21
ATOM     21  C   UNL     1       7.643   8.046  17.353  0.00  0.00    +0.000 C 
BRANCH  21  22
ATOM     22  C   UNL     1       8.470   8.550  18.491  0.00  0.00    +0.000 C 
ATOM     23  C   UNL     1       8.753   9.862  18.627  0.00  0.00    +0.000 C 
ATOM     24  C   UNL     1       8.277  10.931  17.670  0.00  0.00    +0.000 C 
ATOM     25  C   UNL     1       9.586  10.371  19.766  0.00  0.00    +0.000 C 
ENDBRANCH  21  22
ENDBRANCH  20  21
ENDBRANCH  18  20
ENDBRANCH  16  17
ENDBRANCH   7  16
TORSDOF 9
ENDMDL
MODEL 5
REMARK VINA RESULT:      -7.0      3.107      5.310
REMARK  Name = 
REMARK  14 active torsions:
REMARK  status: ('A' for Active; 'I' for Inactive)
REMARK    1  A    between atoms: C_1  and  C_2
REMARK    2  A    between atoms: C_2  and  O_4
REMARK    3  A    between atoms: O_4  and  C_5
REMARK    4  A    between atoms: C_7  and  C_8
REMARK    5  A    between atoms: C_9  and  C_10
REMARK    6  A    between atoms: C_12  and  O_13
REMARK    7  A    between atoms: C_14  and  C_15
REMARK    8  A    between atoms: C_15  and  C_16
REMARK    9  A    between atoms: C_17  and  C_18
REMARK   10  A    between atoms: C_17  and  C_19
REMARK   11  A    between atoms: C_19  and  C_20
REMARK   12  A    between atoms: C_20  and  C_21
REMARK   13  A    between atoms: C_22  and  C_23
REMARK   14  A    between atoms: C_22  and  C_24
REMARK                            x       y       z     vdW  Elec       q    Type
REMARK                         _______ _______ _______ _____ _____    ______ ____
ROOT
ATOM      1  C   UNL     1       3.144   6.532  18.358  0.00  0.00    +0.000 A 
ATOM      2  C   UNL     1       2.345   6.007  19.385  0.00  0.00    +0.000 A 
ATOM      3  C   UNL     1       2.435   4.664  19.764  0.00  0.00    +0.000 A 
ATOM      4  C   UNL     1       1.502   4.167  20.829  0.00  0.00    +0.000 C 
ATOM      5  C   UNL     1       3.388   3.853  19.129  0.00  0.00    +0.000 A 
ATOM      6  C   UNL     1       4.232   4.397  18.139  0.00  0.00    +0.000 A 
ATOM      7  C   UNL     1       4.126   5.742  17.732  0.00  0.00    +0.000 A 
ENDROOT
BRANCH   5   8
ATOM      8  C   UNL     1       3.517   2.427  19.503  0.00  0.00    +0.000 C 
ATOM      9  O   UNL     1       4.599   1.954  19.845  0.00  0.00    +0.000 OA
ENDBRANCH   5   8
BRANCH   6  10
ATOM     10  O   UNL     1       5.205   3.632  17.538  0.00  0.00    +0.000 OA
ATOM     11  H   UNL     1       5.561   4.122  16.763  0.00  0.00    +0.000 HD
ENDBRANCH   6  10
BRANCH   1  12
ATOM     12  O   UNL     1       3.009   7.909  18.064  0.00  0.00    +0.000 OA
BRANCH  12  14
ATOM     13  C   UNL     1       0.969   9.055  17.643  0.00  0.00    +0.000 C 
ATOM     14  C   UNL     1       1.939   8.570  18.681  0.00  0.00    +0.000 C 
ATOM     15  O   UNL     1       1.826   8.816  19.877  0.00  0.00    +0.000 OA
ENDBRANCH  12  14
ENDBRANCH   1  12
BRANCH   7  16
ATOM     16  C   UNL     1       5.069   6.270  16.678  0.00  0.00    +0.000 C 
BRANCH  16  17
ATOM     17  C   UNL     1       6.166   7.123  17.232  0.00  0.00    +0.000 C 
ATOM     18  C   UNL     1       7.304   6.772  17.870  0.00  0.00    +0.000 C 
ATOM     19  C   UNL     1       7.717   5.346  18.120  0.00  0.00    +0.000 C 
BRANCH  18  20
ATOM     20  C   UNL     1       8.305   7.811  18.381  0.00  0.00    +0.000 C 
BRANCH  20  21
ATOM     21  C   UNL     1       7.889   9.245  18.042  0.00  0.00    +0.000 C 
BRANCH  21  22
ATOM     22  C   UNL     1       8.955  10.258  17.771  0.00  0.00    +0.000 C 
ATOM     23  C   UNL     1       9.620  10.864  18.776  0.00  0.00    +0.000 C 
ATOM     24  C   UNL     1       9.368  10.589  20.241  0.00  0.00    +0.000 C 
ATOM     25  C   UNL     1      10.688  11.883  18.508  0.00  0.00    +0.000 C 
ENDBRANCH  21  22
ENDBRANCH  20  21
ENDBRANCH  18  20
ENDBRANCH  16  17
ENDBRANCH   7  16
TORSDOF 9
ENDMDL
MODEL 6
REMARK VINA RESULT:      -6.9      0.834      1.086
REMARK  Name = 
REMARK  14 active torsions:
REMARK  status: ('A' for Active; 'I' for Inactive)
REMARK    1  A    between atoms: C_1  and  C_2
REMARK    2  A    between atoms: C_2  and  O_4
REMARK    3  A    between atoms: O_4  and  C_5
REMARK    4  A    between atoms: C_7  and  C_8
REMARK    5  A    between atoms: C_9  and  C_10
REMARK    6  A    between atoms: C_12  and  O_13
REMARK    7  A    between atoms: C_14  and  C_15
REMARK    8  A    between atoms: C_15  and  C_16
REMARK    9  A    between atoms: C_17  and  C_18
REMARK   10  A    between atoms: C_17  and  C_19
REMARK   11  A    between atoms: C_19  and  C_20
REMARK   12  A    between atoms: C_20  and  C_21
REMARK   13  A    between atoms: C_22  and  C_23
REMARK   14  A    between atoms: C_22  and  C_24
REMARK                            x       y       z     vdW  Elec       q    Type
REMARK                         _______ _______ _______ _____ _____    ______ ____
ROOT
ATOM      1  C   UNL     1       3.375   6.177  18.739  0.00  0.00    +0.000 A 
ATOM      2  C   UNL     1       2.260   5.526  19.287  0.00  0.00    +0.000 A 
ATOM      3  C   UNL     1       2.351   4.226  19.794  0.00  0.00    +0.000 A 
ATOM      4  C   UNL     1       1.099   3.578  20.305  0.00  0.00    +0.000 C 
ATOM      5  C   UNL     1       3.606   3.597  19.797  0.00  0.00    +0.000 A 
ATOM      6  C   UNL     1       4.739   4.276  19.302  0.00  0.00    +0.000 A 
ATOM      7  C   UNL     1       4.647   5.574  18.762  0.00  0.00    +0.000 A 
ENDROOT
BRANCH   5   8
ATOM      8  C   UNL     1       3.746   2.223  20.328  0.00  0.00    +0.000 C 
ATOM      9  O   UNL     1       4.790   1.849  20.859  0.00  0.00    +0.000 OA
ENDBRANCH   5   8
BRANCH   6  10
ATOM     10  O   UNL     1       5.985   3.696  19.339  0.00  0.00    +0.000 OA
ATOM     11  H   UNL     1       6.663   4.403  19.431  0.00  0.00    +0.000 HD
ENDBRANCH   6  10
BRANCH   1  12
ATOM     12  O   UNL     1       3.197   7.503  18.279  0.00  0.00    +0.000 OA
BRANCH  12  14
ATOM     13  C   UNL     1       1.373   8.902  17.672  0.00  0.00    +0.000 C 
ATOM     14  C   UNL     1       2.086   8.188  18.785  0.00  0.00    +0.000 C 
ATOM     15  O   UNL     1       1.765   8.289  19.965  0.00  0.00    +0.000 OA
ENDBRANCH  12  14
ENDBRANCH   1  12
BRANCH   7  16
ATOM     16  C   UNL     1       5.898   6.255  18.262  0.00  0.00    +0.000 C 
BRANCH  16  17
ATOM     17  C   UNL     1       6.451   5.644  17.012  0.00  0.00    +0.000 C 
ATOM     18  C   UNL     1       6.102   5.837  15.722  0.00  0.00    +0.000 C 
ATOM     19  C   UNL     1       5.039   6.808  15.278  0.00  0.00    +0.000 C 
BRANCH  18  20
ATOM     20  C   UNL     1       6.787   5.095  14.572  0.00  0.00    +0.000 C 
BRANCH  20  21
ATOM     21  C   UNL     1       6.168   3.719  14.310  0.00  0.00    +0.000 C 
BRANCH  21  22
ATOM     22  C   UNL     1       5.058   3.608  13.315  0.00  0.00    +0.000 C 
ATOM     23  C   UNL     1       5.290   3.221  12.043  0.00  0.00    +0.000 C 
ATOM     24  C   UNL     1       6.658   2.865  11.506  0.00  0.00    +0.000 C 
ATOM     25  C   UNL     1       4.180   3.112  11.041  0.00  0.00    +0.000 C 
ENDBRANCH  21  22
ENDBRANCH  20  21
ENDBRANCH  18  20
ENDBRANCH  16  17
ENDBRANCH   7  16
TORSDOF 9
ENDMDL
MODEL 7
REMARK VINA RESULT:      -6.9      3.270      6.579
REMARK  Name = 
REMARK  14 active torsions:
REMARK  status: ('A' for Active; 'I' for Inactive)
REMARK    1  A    between atoms: C_1  and  C_2
REMARK    2  A    between atoms: C_2  and  O_4
REMARK    3  A    between atoms: O_4  and  C_5
REMARK    4  A    between atoms: C_7  and  C_8
REMARK    5  A    between atoms: C_9  and  C_10
REMARK    6  A    between atoms: C_12  and  O_13
REMARK    7  A    between atoms: C_14  and  C_15
REMARK    8  A    between atoms: C_15  and  C_16
REMARK    9  A    between atoms: C_17  and  C_18
REMARK   10  A    between atoms: C_17  and  C_19
REMARK   11  A    between atoms: C_19  and  C_20
REMARK   12  A    between atoms: C_20  and  C_21
REMARK   13  A    between atoms: C_22  and  C_23
REMARK   14  A    between atoms: C_22  and  C_24
REMARK                            x       y       z     vdW  Elec       q    Type
REMARK                         _______ _______ _______ _____ _____    ______ ____
ROOT
ATOM      1  C   UNL     1       3.458   5.718  19.372  0.00  0.00    +0.000 A 
ATOM      2  C   UNL     1       2.552   6.171  20.344  0.00  0.00    +0.000 A 
ATOM      3  C   UNL     1       1.864   7.378  20.192  0.00  0.00    +0.000 A 
ATOM      4  C   UNL     1       0.960   7.820  21.305  0.00  0.00    +0.000 C 
ATOM      5  C   UNL     1       2.055   8.113  19.012  0.00  0.00    +0.000 A 
ATOM      6  C   UNL     1       2.919   7.626  18.009  0.00  0.00    +0.000 A 
ATOM      7  C   UNL     1       3.638   6.426  18.169  0.00  0.00    +0.000 A 
ENDROOT
BRANCH   5   8
ATOM      8  C   UNL     1       1.342   9.394  18.811  0.00  0.00    +0.000 C 
ATOM      9  O   UNL     1       0.627   9.577  17.828  0.00  0.00    +0.000 OA
ENDBRANCH   5   8
BRANCH   6  10
ATOM     10  O   UNL     1       3.085   8.306  16.824  0.00  0.00    +0.000 OA
ATOM     11  H   UNL     1       2.599   9.159  16.877  0.00  0.00    +0.000 HD
ENDBRANCH   6  10
BRANCH   1  12
ATOM     12  O   UNL     1       4.085   4.470  19.594  0.00  0.00    +0.000 OA
BRANCH  12  14
ATOM     13  C   UNL     1       2.834   2.696  20.563  0.00  0.00    +0.000 C 
ATOM     14  C   UNL     1       3.323   3.335  19.295  0.00  0.00    +0.000 C 
ATOM     15  O   UNL     1       3.139   2.851  18.182  0.00  0.00    +0.000 OA
ENDBRANCH  12  14
ENDBRANCH   1  12
BRANCH   7  16
ATOM     16  C   UNL     1       4.537   5.950  17.053  0.00  0.00    +0.000 C 
BRANCH  16  17
ATOM     17  C   UNL     1       5.783   6.764  16.902  0.00  0.00    +0.000 C 
ATOM     18  C   UNL     1       6.916   6.765  17.637  0.00  0.00    +0.000 C 
ATOM     19  C   UNL     1       7.157   5.846  18.806  0.00  0.00    +0.000 C 
BRANCH  18  20
ATOM     20  C   UNL     1       8.089   7.699  17.326  0.00  0.00    +0.000 C 
BRANCH  20  21
ATOM     21  C   UNL     1       7.934   9.075  17.980  0.00  0.00    +0.000 C 
BRANCH  21  22
ATOM     22  C   UNL     1       9.038   9.586  18.849  0.00  0.00    +0.000 C 
ATOM     23  C   UNL     1       9.433  10.875  18.798  0.00  0.00    +0.000 C 
ATOM     24  C   UNL     1       8.817  11.910  17.885  0.00  0.00    +0.000 C 
ATOM     25  C   UNL     1      10.543  11.391  19.665  0.00  0.00    +0.000 C 
ENDBRANCH  21  22
ENDBRANCH  20  21
ENDBRANCH  18  20
ENDBRANCH  16  17
ENDBRANCH   7  16
TORSDOF 9
ENDMDL
MODEL 8
REMARK VINA RESULT:      -6.9      2.104      5.109
REMARK  Name = 
REMARK  14 active torsions:
REMARK  status: ('A' for Active; 'I' for Inactive)
REMARK    1  A    between atoms: C_1  and  C_2
REMARK    2  A    between atoms: C_2  and  O_4
REMARK    3  A    between atoms: O_4  and  C_5
REMARK    4  A    between atoms: C_7  and  C_8
REMARK    5  A    between atoms: C_9  and  C_10
REMARK    6  A    between atoms: C_12  and  O_13
REMARK    7  A    between atoms: C_14  and  C_15
REMARK    8  A    between atoms: C_15  and  C_16
REMARK    9  A    between atoms: C_17  and  C_18
REMARK   10  A    between atoms: C_17  and  C_19
REMARK   11  A    between atoms: C_19  and  C_20
REMARK   12  A    between atoms: C_20  and  C_21
REMARK   13  A    between atoms: C_22  and  C_23
REMARK   14  A    between atoms: C_22  and  C_24
REMARK                            x       y       z     vdW  Elec       q    Type
REMARK                         _______ _______ _______ _____ _____    ______ ____
ROOT
ATOM      1  C   UNL     1       2.265   6.966  19.777  0.00  0.00    +0.000 A 
ATOM      2  C   UNL     1       1.471   7.449  20.829  0.00  0.00    +0.000 A 
ATOM      3  C   UNL     1       0.881   8.716  20.775  0.00  0.00    +0.000 A 
ATOM      4  C   UNL     1       0.099   9.181  21.967  0.00  0.00    +0.000 C 
ATOM      5  C   UNL     1       1.053   9.483  19.612  0.00  0.00    +0.000 A 
ATOM      6  C   UNL     1       1.800   8.972  18.531  0.00  0.00    +0.000 A 
ATOM      7  C   UNL     1       2.422   7.709  18.592  0.00  0.00    +0.000 A 
ENDROOT
BRANCH   5   8
ATOM      8  C   UNL     1       0.441  10.827  19.514  0.00  0.00    +0.000 C 
ATOM      9  O   UNL     1      -0.371  11.094  18.630  0.00  0.00    +0.000 OA
ENDBRANCH   5   8
BRANCH   6  10
ATOM     10  O   UNL     1       1.941   9.687  17.365  0.00  0.00    +0.000 OA
ATOM     11  H   UNL     1       1.570   9.161  16.622  0.00  0.00    +0.000 HD
ENDBRANCH   6  10
BRANCH   1  12
ATOM     12  O   UNL     1       2.796   5.661  19.905  0.00  0.00    +0.000 OA
BRANCH  12  14
ATOM     13  C   UNL     1       1.747   3.868  21.061  0.00  0.00    +0.000 C 
ATOM     14  C   UNL     1       1.885   4.608  19.761  0.00  0.00    +0.000 C 
ATOM     15  O   UNL     1       1.335   4.254  18.723  0.00  0.00    +0.000 OA
ENDBRANCH  12  14
ENDBRANCH   1  12
BRANCH   7  16
ATOM     16  C   UNL     1       3.196   7.210  17.395  0.00  0.00    +0.000 C 
BRANCH  16  17
ATOM     17  C   UNL     1       4.239   6.194  17.741  0.00  0.00    +0.000 C 
ATOM     18  C   UNL     1       5.584   6.260  17.640  0.00  0.00    +0.000 C 
ATOM     19  C   UNL     1       6.329   7.477  17.159  0.00  0.00    +0.000 C 
BRANCH  18  20
ATOM     20  C   UNL     1       6.490   5.091  18.037  0.00  0.00    +0.000 C 
BRANCH  20  21
ATOM     21  C   UNL     1       7.115   4.394  16.825  0.00  0.00    +0.000 C 
BRANCH  21  22
ATOM     22  C   UNL     1       6.218   3.899  15.737  0.00  0.00    +0.000 C 
ATOM     23  C   UNL     1       6.392   4.280  14.454  0.00  0.00    +0.000 C 
ATOM     24  C   UNL     1       7.483   5.219  13.994  0.00  0.00    +0.000 C 
ATOM     25  C   UNL     1       5.491   3.789  13.361  0.00  0.00    +0.000 C 
ENDBRANCH  21  22
ENDBRANCH  20  21
ENDBRANCH  18  20
ENDBRANCH  16  17
ENDBRANCH   7  16
TORSDOF 9
ENDMDL
MODEL 9
REMARK VINA RESULT:      -6.9      3.154      6.000
REMARK  Name = 
REMARK  14 active torsions:
REMARK  status: ('A' for Active; 'I' for Inactive)
REMARK    1  A    between atoms: C_1  and  C_2
REMARK    2  A    between atoms: C_2  and  O_4
REMARK    3  A    between atoms: O_4  and  C_5
REMARK    4  A    between atoms: C_7  and  C_8
REMARK    5  A    between atoms: C_9  and  C_10
REMARK    6  A    between atoms: C_12  and  O_13
REMARK    7  A    between atoms: C_14  and  C_15
REMARK    8  A    between atoms: C_15  and  C_16
REMARK    9  A    between atoms: C_17  and  C_18
REMARK   10  A    between atoms: C_17  and  C_19
REMARK   11  A    between atoms: C_19  and  C_20
REMARK   12  A    between atoms: C_20  and  C_21
REMARK   13  A    between atoms: C_22  and  C_23
REMARK   14  A    between atoms: C_22  and  C_24
REMARK                            x       y       z     vdW  Elec       q    Type
REMARK                         _______ _______ _______ _____ _____    ______ ____
ROOT
ATOM      1  C   UNL     1       2.189   6.879  20.047  0.00  0.00    +0.000 A 
ATOM      2  C   UNL     1       1.551   7.508  21.127  0.00  0.00    +0.000 A 
ATOM      3  C   UNL     1       1.010   8.791  21.007  0.00  0.00    +0.000 A 
ATOM      4  C   UNL     1       0.399   9.417  22.226  0.00  0.00    +0.000 C 
ATOM      5  C   UNL     1       1.069   9.426  19.757  0.00  0.00    +0.000 A 
ATOM      6  C   UNL     1       1.656   8.769  18.656  0.00  0.00    +0.000 A 
ATOM      7  C   UNL     1       2.229   7.488  18.779  0.00  0.00    +0.000 A 
ENDROOT
BRANCH   5   8
ATOM      8  C   UNL     1       0.504  10.784  19.587  0.00  0.00    +0.000 C 
ATOM      9  O   UNL     1      -0.441  10.990  18.828  0.00  0.00    +0.000 OA
ENDBRANCH   5   8
BRANCH   6  10
ATOM     10  O   UNL     1       1.681   9.353  17.412  0.00  0.00    +0.000 OA
ATOM     11  H   UNL     1       2.511   9.091  16.954  0.00  0.00    +0.000 HD
ENDBRANCH   6  10
BRANCH   1  12
ATOM     12  O   UNL     1       2.678   5.567  20.251  0.00  0.00    +0.000 OA
BRANCH  12  14
ATOM     13  C   UNL     1       2.175   3.657  21.573  0.00  0.00    +0.000 C 
ATOM     14  C   UNL     1       1.715   4.578  20.480  0.00  0.00    +0.000 C 
ATOM     15  O   UNL     1       0.682   4.402  19.840  0.00  0.00    +0.000 OA
ENDBRANCH  12  14
ENDBRANCH   1  12
BRANCH   7  16
ATOM     16  C   UNL     1       2.830   6.829  17.560  0.00  0.00    +0.000 C 
BRANCH  16  17
ATOM     17  C   UNL     1       4.123   6.128  17.837  0.00  0.00    +0.000 C 
ATOM     18  C   UNL     1       4.466   4.834  17.660  0.00  0.00    +0.000 C 
ATOM     19  C   UNL     1       3.547   3.798  17.067  0.00  0.00    +0.000 C 
BRANCH  18  20
ATOM     20  C   UNL     1       5.853   4.301  18.025  0.00  0.00    +0.000 C 
BRANCH  20  21
ATOM     21  C   UNL     1       6.934   4.749  17.036  0.00  0.00    +0.000 C 
BRANCH  21  22
ATOM     22  C   UNL     1       7.197   6.211  16.873  0.00  0.00    +0.000 C 
ATOM     23  C   UNL     1       7.732   6.944  17.871  0.00  0.00    +0.000 C 
ATOM     24  C   UNL     1       8.112   6.381  19.222  0.00  0.00    +0.000 C 
ATOM     25  C   UNL     1       7.994   8.413  17.713  0.00  0.00    +0.000 C 
ENDBRANCH  21  22
ENDBRANCH  20  21
ENDBRANCH  18  20
ENDBRANCH  16  17
ENDBRANCH   7  16
TORSDOF 9
ENDMDL
