MODEL 1
REMARK VINA RESULT:      -7.0      0.000      0.000
REMARK  Name = 
REMARK  10 active torsions:
REMARK  status: ('A' for Active; 'I' for Inactive)
REMARK    1  A    between atoms: C_1  and  C_2
REMARK    2  A    between atoms: C_2  and  N_3
REMARK    3  A    between atoms: N_3  and  C_4
REMARK    4  A    between atoms: N_3  and  C_6
REMARK    5  A    between atoms: C_4  and  C_5
REMARK    6  A    between atoms: C_6  and  C_7
REMARK    7  A    between atoms: C_7  and  O_8
REMARK    8  A    between atoms: O_8  and  C_9
REMARK    9  A    between atoms: C_14  and  C_15
REMARK   10  A    between atoms: N_17  and  C_18
REMARK                            x       y       z     vdW  Elec       q    Type
REMARK                         _______ _______ _______ _____ _____    ______ ____
ROOT
ATOM      1  C   UNL     1       4.281   5.389  18.676  0.00  0.00    +0.000 A 
ATOM      2  C   UNL     1       3.504   5.719  19.809  0.00  0.00    +0.000 A 
ATOM      3  C   UNL     1       2.603   6.788  19.802  0.00  0.00    +0.000 A 
ATOM      4  C   UNL     1       2.451   7.552  18.661  0.00  0.00    +0.000 A 
ATOM      5  C   UNL     1       3.216   7.253  17.539  0.00  0.00    +0.000 A 
ATOM      6  C   UNL     1       4.145   6.183  17.519  0.00  0.00    +0.000 A 
ENDROOT
BRANCH   6   7
ATOM      7  C   UNL     1       4.891   6.045  16.222  0.00  0.00    +0.000 C 
ATOM      8  O   UNL     1       5.183   7.091  15.640  0.00  0.00    +0.000 OA
ATOM      9  N   UNL     1       5.166   4.781  15.724  0.00  0.00    +0.000 N 
ATOM     10  H   UNL     1       4.745   3.997  16.210  0.00  0.00    +0.000 HD
BRANCH   9  11
ATOM     11  C   UNL     1       5.815   4.539  14.486  0.00  0.00    +0.000 A 
ATOM     12  C   UNL     1       5.277   3.719  13.484  0.00  0.00    +0.000 A 
ATOM     13  C   UNL     1       5.990   3.435  12.314  0.00  0.00    +0.000 A 
ATOM     14  C   UNL     1       7.252   3.978  12.128  0.00  0.00    +0.000 A 
ATOM     15  C   UNL     1       7.786   4.832  13.094  0.00  0.00    +0.000 A 
ATOM     16  C   UNL     1       7.064   5.124  14.260  0.00  0.00    +0.000 A 
ENDBRANCH   9  11
ENDBRANCH   6   7
BRANCH   1  17
ATOM     17  O   UNL     1       5.153   4.320  18.664  0.00  0.00    +0.000 OA
BRANCH  17  18
ATOM     18  C   UNL     1       4.682   3.120  19.316  0.00  0.00    +0.000 C 
BRANCH  18  19
ATOM     19  C   UNL     1       3.594   2.446  18.468  0.00  0.00    +0.000 C 
BRANCH  19  20
ATOM     20  N   UNL     1       2.348   2.097  19.190  0.00  0.00    +0.000 NA
BRANCH  20  22
ATOM     21  C   UNL     1       1.306   3.011  21.319  0.00  0.00    +0.000 C 
ATOM     22  C   UNL     1       2.519   2.396  20.626  0.00  0.00    +0.000 C 
ENDBRANCH  20  22
BRANCH  20  23
ATOM     23  C   UNL     1       1.126   2.673  18.607  0.00  0.00    +0.000 C 
ATOM     24  C   UNL     1       1.323   3.823  17.625  0.00  0.00    +0.000 C 
ENDBRANCH  20  23
ENDBRANCH  19  20
ENDBRANCH  18  19
ENDBRANCH  17  18
ENDBRANCH   1  17
TORSDOF 8
ENDMDL
MODEL 2
REMARK VINA RESULT:      -6.5      2.730      7.274
REMARK  Name = 
REMARK  10 active torsions:
REMARK  status: ('A' for Active; 'I' for Inactive)
REMARK    1  A    between atoms: C_1  and  C_2
REMARK    2  A    between atoms: C_2  and  N_3
REMARK    3  A    between atoms: N_3  and  C_4
REMARK    4  A    between atoms: N_3  and  C_6
REMARK    5  A    between atoms: C_4  and  C_5
REMARK    6  A    between atoms: C_6  and  C_7
REMARK    7  A    between atoms: C_7  and  O_8
REMARK    8  A    between atoms: O_8  and  C_9
REMARK    9  A    between atoms: C_14  and  C_15
REMARK   10  A    between atoms: N_17  and  C_18
REMARK                            x       y       z     vdW  Elec       q    Type
REMARK                         _______ _______ _______ _____ _____    ______ ____
ROOT
ATOM      1  C   UNL     1       3.972   4.808  19.293  0.00  0.00    +0.000 A 
ATOM      2  C   UNL     1       4.769   3.645  19.207  0.00  0.00    +0.000 A 
ATOM      3  C   UNL     1       4.451   2.477  19.907  0.00  0.00    +0.000 A 
ATOM      4  C   UNL     1       3.327   2.439  20.708  0.00  0.00    +0.000 A 
ATOM      5  C   UNL     1       2.535   3.578  20.818  0.00  0.00    +0.000 A 
ATOM      6  C   UNL     1       2.838   4.779  20.130  0.00  0.00    +0.000 A 
ENDROOT
BRANCH   6   7
ATOM      7  C   UNL     1       1.875   5.900  20.406  0.00  0.00    +0.000 C 
ATOM      8  O   UNL     1       0.697   5.585  20.580  0.00  0.00    +0.000 OA
ATOM      9  N   UNL     1       2.334   7.209  20.402  0.00  0.00    +0.000 N 
ATOM     10  H   UNL     1       3.288   7.358  20.097  0.00  0.00    +0.000 HD
BRANCH   9  11
ATOM     11  C   UNL     1       1.501   8.342  20.597  0.00  0.00    +0.000 A 
ATOM     12  C   UNL     1       1.080   9.174  19.550  0.00  0.00    +0.000 A 
ATOM     13  C   UNL     1       0.333  10.332  19.795  0.00  0.00    +0.000 A 
ATOM     14  C   UNL     1      -0.009  10.667  21.096  0.00  0.00    +0.000 A 
ATOM     15  C   UNL     1       0.364   9.828  22.147  0.00  0.00    +0.000 A 
ATOM     16  C   UNL     1       1.102   8.662  21.897  0.00  0.00    +0.000 A 
ENDBRANCH   9  11
ENDBRANCH   6   7
BRANCH   1  17
ATOM     17  O   UNL     1       4.262   5.957  18.586  0.00  0.00    +0.000 OA
BRANCH  17  18
ATOM     18  C   UNL     1       4.290   5.816  17.148  0.00  0.00    +0.000 C 
BRANCH  18  19
ATOM     19  C   UNL     1       5.270   6.826  16.534  0.00  0.00    +0.000 C 
BRANCH  19  20
ATOM     20  N   UNL     1       6.685   6.390  16.483  0.00  0.00    +0.000 NA
BRANCH  20  22
ATOM     21  C   UNL     1       7.735   5.991  18.762  0.00  0.00    +0.000 C 
ATOM     22  C   UNL     1       7.412   6.965  17.632  0.00  0.00    +0.000 C 
ENDBRANCH  20  22
BRANCH  20  23
ATOM     23  C   UNL     1       6.869   4.937  16.333  0.00  0.00    +0.000 C 
ATOM     24  C   UNL     1       6.662   4.371  14.933  0.00  0.00    +0.000 C 
ENDBRANCH  20  23
ENDBRANCH  19  20
ENDBRANCH  18  19
ENDBRANCH  17  18
ENDBRANCH   1  17
TORSDOF 8
ENDMDL
MODEL 3
REMARK VINA RESULT:      -6.5      1.990      6.656
REMARK  Name = 
REMARK  10 active torsions:
REMARK  status: ('A' for Active; 'I' for Inactive)
REMARK    1  A    between atoms: C_1  and  C_2
REMARK    2  A    between atoms: C_2  and  N_3
REMARK    3  A    between atoms: N_3  and  C_4
REMARK    4  A    between atoms: N_3  and  C_6
REMARK    5  A    between atoms: C_4  and  C_5
REMARK    6  A    between atoms: C_6  and  C_7
REMARK    7  A    between atoms: C_7  and  O_8
REMARK    8  A    between atoms: O_8  and  C_9
REMARK    9  A    between atoms: C_14  and  C_15
REMARK   10  A    between atoms: N_17  and  C_18
REMARK                            x       y       z     vdW  Elec       q    Type
REMARK                         _______ _______ _______ _____ _____    ______ ____
ROOT
ATOM      1  C   UNL     1       5.983   6.604  17.532  0.00  0.00    +0.000 A 
ATOM      2  C   UNL     1       7.074   7.478  17.332  0.00  0.00    +0.000 A 
ATOM      3  C   UNL     1       8.209   7.444  18.147  0.00  0.00    +0.000 A 
ATOM      4  C   UNL     1       8.286   6.532  19.181  0.00  0.00    +0.000 A 
ATOM      5  C   UNL     1       7.218   5.670  19.405  0.00  0.00    +0.000 A 
ATOM      6  C   UNL     1       6.050   5.689  18.603  0.00  0.00    +0.000 A 
ENDROOT
BRANCH   6   7
ATOM      7  C   UNL     1       5.001   4.699  19.027  0.00  0.00    +0.000 C 
ATOM      8  O   UNL     1       5.391   3.561  19.293  0.00  0.00    +0.000 OA
ATOM      9  N   UNL     1       3.669   5.086  19.052  0.00  0.00    +0.000 N 
ATOM     10  H   UNL     1       3.451   5.997  18.669  0.00  0.00    +0.000 HD
BRANCH   9  11
ATOM     11  C   UNL     1       2.597   4.217  19.385  0.00  0.00    +0.000 A 
ATOM     12  C   UNL     1       2.201   3.958  20.705  0.00  0.00    +0.000 A 
ATOM     13  C   UNL     1       1.196   3.027  20.994  0.00  0.00    +0.000 A 
ATOM     14  C   UNL     1       0.570   2.348  19.961  0.00  0.00    +0.000 A 
ATOM     15  C   UNL     1       0.920   2.624  18.639  0.00  0.00    +0.000 A 
ATOM     16  C   UNL     1       1.918   3.566  18.351  0.00  0.00    +0.000 A 
ENDBRANCH   9  11
ENDBRANCH   6   7
BRANCH   1  17
ATOM     17  O   UNL     1       4.870   6.611  16.717  0.00  0.00    +0.000 OA
BRANCH  17  18
ATOM     18  C   UNL     1       5.126   6.442  15.306  0.00  0.00    +0.000 C 
BRANCH  18  19
ATOM     19  C   UNL     1       5.413   4.967  14.990  0.00  0.00    +0.000 C 
BRANCH  19  20
ATOM     20  N   UNL     1       6.146   4.716  13.728  0.00  0.00    +0.000 NA
BRANCH  20  22
ATOM     21  C   UNL     1       8.293   5.688  12.778  0.00  0.00    +0.000 C 
ATOM     22  C   UNL     1       7.581   4.994  13.937  0.00  0.00    +0.000 C 
ENDBRANCH  20  22
BRANCH  20  23
ATOM     23  C   UNL     1       5.880   3.402  13.120  0.00  0.00    +0.000 C 
ATOM     24  C   UNL     1       4.890   3.383  11.960  0.00  0.00    +0.000 C 
ENDBRANCH  20  23
ENDBRANCH  19  20
ENDBRANCH  18  19
ENDBRANCH  17  18
ENDBRANCH   1  17
TORSDOF 8
ENDMDL
MODEL 4
REMARK VINA RESULT:      -6.4      2.719      7.330
REMARK  Name = 
REMARK  10 active torsions:
REMARK  status: ('A' for Active; 'I' for Inactive)
REMARK    1  A    between atoms: C_1  and  C_2
REMARK    2  A    between atoms: C_2  and  N_3
REMARK    3  A    between atoms: N_3  and  C_4
REMARK    4  A    between atoms: N_3  and  C_6
REMARK    5  A    between atoms: C_4  and  C_5
REMARK    6  A    between atoms: C_6  and  C_7
REMARK    7  A    between atoms: C_7  and  O_8
REMARK    8  A    between atoms: O_8  and  C_9
REMARK    9  A    between atoms: C_14  and  C_15
REMARK   10  A    between atoms: N_17  and  C_18
REMARK                            x       y       z     vdW  Elec       q    Type
REMARK                         _______ _______ _______ _____ _____    ______ ____
ROOT
ATOM      1  C   UNL     1       3.467   4.700  18.572  0.00  0.00    +0.000 A 
ATOM      2  C   UNL     1       4.272   3.564  18.336  0.00  0.00    +0.000 A 
ATOM      3  C   UNL     1       4.340   2.503  19.244  0.00  0.00    +0.000 A 
ATOM      4  C   UNL     1       3.602   2.549  20.411  0.00  0.00    +0.000 A 
ATOM      5  C   UNL     1       2.813   3.664  20.670  0.00  0.00    +0.000 A 
ATOM      6  C   UNL     1       2.732   4.759  19.774  0.00  0.00    +0.000 A 
ENDROOT
BRANCH   6   7
ATOM      7  C   UNL     1       1.849   5.877  20.252  0.00  0.00    +0.000 C 
ATOM      8  O   UNL     1       0.720   5.563  20.633  0.00  0.00    +0.000 OA
ATOM      9  N   UNL     1       2.311   7.183  20.198  0.00  0.00    +0.000 N 
ATOM     10  H   UNL     1       3.195   7.336  19.726  0.00  0.00    +0.000 HD
BRANCH   9  11
ATOM     11  C   UNL     1       1.540   8.314  20.573  0.00  0.00    +0.000 A 
ATOM     12  C   UNL     1       1.225   8.620  21.905  0.00  0.00    +0.000 A 
ATOM     13  C   UNL     1       0.388   9.695  22.226  0.00  0.00    +0.000 A 
ATOM     14  C   UNL     1      -0.138  10.484  21.215  0.00  0.00    +0.000 A 
ATOM     15  C   UNL     1       0.200  10.222  19.887  0.00  0.00    +0.000 A 
ATOM     16  C   UNL     1       1.048   9.152  19.568  0.00  0.00    +0.000 A 
ENDBRANCH   9  11
ENDBRANCH   6   7
BRANCH   1  17
ATOM     17  O   UNL     1       3.372   5.740  17.670  0.00  0.00    +0.000 OA
BRANCH  17  18
ATOM     18  C   UNL     1       4.536   6.589  17.569  0.00  0.00    +0.000 C 
BRANCH  18  19
ATOM     19  C   UNL     1       5.183   6.443  16.185  0.00  0.00    +0.000 C 
BRANCH  19  20
ATOM     20  N   UNL     1       6.641   6.181  16.186  0.00  0.00    +0.000 NA
BRANCH  20  22
ATOM     21  C   UNL     1       7.792   7.983  17.559  0.00  0.00    +0.000 C 
ATOM     22  C   UNL     1       7.203   6.576  17.494  0.00  0.00    +0.000 C 
ENDBRANCH  20  22
BRANCH  20  23
ATOM     23  C   UNL     1       7.015   4.821  15.768  0.00  0.00    +0.000 C 
ATOM     24  C   UNL     1       5.944   4.023  15.031  0.00  0.00    +0.000 C 
ENDBRANCH  20  23
ENDBRANCH  19  20
ENDBRANCH  18  19
ENDBRANCH  17  18
ENDBRANCH   1  17
TORSDOF 8
ENDMDL
MODEL 5
REMARK VINA RESULT:      -6.3      0.514      1.163
REMARK  Name = 
REMARK  10 active torsions:
REMARK  status: ('A' for Active; 'I' for Inactive)
REMARK    1  A    between atoms: C_1  and  C_2
REMARK    2  A    between atoms: C_2  and  N_3
REMARK    3  A    between atoms: N_3  and  C_4
REMARK    4  A    between atoms: N_3  and  C_6
REMARK    5  A    between atoms: C_4  and  C_5
REMARK    6  A    between atoms: C_6  and  C_7
REMARK    7  A    between atoms: C_7  and  O_8
REMARK    8  A    between atoms: O_8  and  C_9
REMARK    9  A    between atoms: C_14  and  C_15
REMARK   10  A    between atoms: N_17  and  C_18
REMARK                            x       y       z     vdW  Elec       q    Type
REMARK                         _______ _______ _______ _____ _____    ______ ____
ROOT
ATOM      1  C   UNL     1       4.391   5.630  18.602  0.00  0.00    +0.000 A 
ATOM      2  C   UNL     1       3.571   5.980  19.698  0.00  0.00    +0.000 A 
ATOM      3  C   UNL     1       2.578   6.958  19.598  0.00  0.00    +0.000 A 
ATOM      4  C   UNL     1       2.375   7.611  18.398  0.00  0.00    +0.000 A 
ATOM      5  C   UNL     1       3.179   7.293  17.308  0.00  0.00    +0.000 A 
ATOM      6  C   UNL     1       4.200   6.313  17.383  0.00  0.00    +0.000 A 
ENDROOT
BRANCH   6   7
ATOM      7  C   UNL     1       4.974   6.139  16.106  0.00  0.00    +0.000 C 
ATOM      8  O   UNL     1       5.211   7.161  15.461  0.00  0.00    +0.000 OA
ATOM      9  N   UNL     1       5.334   4.864  15.695  0.00  0.00    +0.000 N 
ATOM     10  H   UNL     1       4.954   4.089  16.226  0.00  0.00    +0.000 HD
BRANCH   9  11
ATOM     11  C   UNL     1       6.017   4.584  14.483  0.00  0.00    +0.000 A 
ATOM     12  C   UNL     1       7.219   5.206  14.118  0.00  0.00    +0.000 A 
ATOM     13  C   UNL     1       7.814   4.968  12.874  0.00  0.00    +0.000 A 
ATOM     14  C   UNL     1       7.214   4.094  11.980  0.00  0.00    +0.000 A 
ATOM     15  C   UNL     1       6.041   3.433  12.343  0.00  0.00    +0.000 A 
ATOM     16  C   UNL     1       5.453   3.664  13.595  0.00  0.00    +0.000 A 
ENDBRANCH   9  11
ENDBRANCH   6   7
BRANCH   1  17
ATOM     17  O   UNL     1       5.356   4.647  18.683  0.00  0.00    +0.000 OA
BRANCH  17  18
ATOM     18  C   UNL     1       5.025   3.514  19.516  0.00  0.00    +0.000 C 
BRANCH  18  19
ATOM     19  C   UNL     1       4.015   2.605  18.801  0.00  0.00    +0.000 C 
BRANCH  19  20
ATOM     20  N   UNL     1       2.777   2.308  19.559  0.00  0.00    +0.000 NA
BRANCH  20  22
ATOM     21  C   UNL     1       1.774   2.842  21.831  0.00  0.00    +0.000 C 
ATOM     22  C   UNL     1       3.018   2.550  20.996  0.00  0.00    +0.000 C 
ENDBRANCH  20  22
BRANCH  20  23
ATOM     23  C   UNL     1       1.572   2.975  19.040  0.00  0.00    +0.000 C 
ATOM     24  C   UNL     1       0.431   2.063  18.602  0.00  0.00    +0.000 C 
ENDBRANCH  20  23
ENDBRANCH  19  20
ENDBRANCH  18  19
ENDBRANCH  17  18
ENDBRANCH   1  17
TORSDOF 8
ENDMDL
MODEL 6
REMARK VINA RESULT:      -6.3      2.008      6.634
REMARK  Name = 
REMARK  10 active torsions:
REMARK  status: ('A' for Active; 'I' for Inactive)
REMARK    1  A    between atoms: C_1  and  C_2
REMARK    2  A    between atoms: C_2  and  N_3
REMARK    3  A    between atoms: N_3  and  C_4
REMARK    4  A    between atoms: N_3  and  C_6
REMARK    5  A    between atoms: C_4  and  C_5
REMARK    6  A    between atoms: C_6  and  C_7
REMARK    7  A    between atoms: C_7  and  O_8
REMARK    8  A    between atoms: O_8  and  C_9
REMARK    9  A    between atoms: C_14  and  C_15
REMARK   10  A    between atoms: N_17  and  C_18
REMARK                            x       y       z     vdW  Elec       q    Type
REMARK                         _______ _______ _______ _____ _____    ______ ____
ROOT
ATOM      1  C   UNL     1       6.107   6.476  17.286  0.00  0.00    +0.000 A 
ATOM      2  C   UNL     1       7.153   7.407  17.100  0.00  0.00    +0.000 A 
ATOM      3  C   UNL     1       8.202   7.534  18.015  0.00  0.00    +0.000 A 
ATOM      4  C   UNL     1       8.234   6.733  19.139  0.00  0.00    +0.000 A 
ATOM      5  C   UNL     1       7.207   5.819  19.350  0.00  0.00    +0.000 A 
ATOM      6  C   UNL     1       6.126   5.675  18.445  0.00  0.00    +0.000 A 
ENDROOT
BRANCH   6   7
ATOM      7  C   UNL     1       5.107   4.654  18.869  0.00  0.00    +0.000 C 
ATOM      8  O   UNL     1       5.533   3.536  19.158  0.00  0.00    +0.000 OA
ATOM      9  N   UNL     1       3.762   4.992  18.867  0.00  0.00    +0.000 N 
ATOM     10  H   UNL     1       3.517   5.890  18.466  0.00  0.00    +0.000 HD
BRANCH   9  11
ATOM     11  C   UNL     1       2.716   4.091  19.197  0.00  0.00    +0.000 A 
ATOM     12  C   UNL     1       2.060   3.296  18.246  0.00  0.00    +0.000 A 
ATOM     13  C   UNL     1       0.975   2.485  18.599  0.00  0.00    +0.000 A 
ATOM     14  C   UNL     1       0.537   2.455  19.914  0.00  0.00    +0.000 A 
ATOM     15  C   UNL     1       1.205   3.206  20.882  0.00  0.00    +0.000 A 
ATOM     16  C   UNL     1       2.300   4.007  20.528  0.00  0.00    +0.000 A 
ENDBRANCH   9  11
ENDBRANCH   6   7
BRANCH   1  17
ATOM     17  O   UNL     1       5.082   6.324  16.375  0.00  0.00    +0.000 OA
BRANCH  17  18
ATOM     18  C   UNL     1       5.170   5.161  15.523  0.00  0.00    +0.000 C 
BRANCH  18  19
ATOM     19  C   UNL     1       6.538   5.115  14.826  0.00  0.00    +0.000 C 
BRANCH  19  20
ATOM     20  N   UNL     1       6.638   4.182  13.680  0.00  0.00    +0.000 NA
BRANCH  20  22
ATOM     21  C   UNL     1       5.045   3.282  11.917  0.00  0.00    +0.000 C 
ATOM     22  C   UNL     1       5.300   3.634  13.381  0.00  0.00    +0.000 C 
ENDBRANCH  20  22
BRANCH  20  23
ATOM     23  C   UNL     1       7.327   4.737  12.503  0.00  0.00    +0.000 C 
ATOM     24  C   UNL     1       8.420   5.763  12.782  0.00  0.00    +0.000 C 
ENDBRANCH  20  23
ENDBRANCH  19  20
ENDBRANCH  18  19
ENDBRANCH  17  18
ENDBRANCH   1  17
TORSDOF 8
ENDMDL
MODEL 7
REMARK VINA RESULT:      -6.2      3.245      6.949
REMARK  Name = 
REMARK  10 active torsions:
REMARK  status: ('A' for Active; 'I' for Inactive)
REMARK    1  A    between atoms: C_1  and  C_2
REMARK    2  A    between atoms: C_2  and  N_3
REMARK    3  A    between atoms: N_3  and  C_4
REMARK    4  A    between atoms: N_3  and  C_6
REMARK    5  A    between atoms: C_4  and  C_5
REMARK    6  A    between atoms: C_6  and  C_7
REMARK    7  A    between atoms: C_7  and  O_8
REMARK    8  A    between atoms: O_8  and  C_9
REMARK    9  A    between atoms: C_14  and  C_15
REMARK   10  A    between atoms: N_17  and  C_18
REMARK                            x       y       z     vdW  Elec       q    Type
REMARK                         _______ _______ _______ _____ _____    ______ ____
ROOT
ATOM      1  C   UNL     1       3.439   6.152  18.804  0.00  0.00    +0.000 A 
ATOM      2  C   UNL     1       3.863   4.806  18.872  0.00  0.00    +0.000 A 
ATOM      3  C   UNL     1       3.293   3.895  19.766  0.00  0.00    +0.000 A 
ATOM      4  C   UNL     1       2.282   4.304  20.614  0.00  0.00    +0.000 A 
ATOM      5  C   UNL     1       1.859   5.629  20.574  0.00  0.00    +0.000 A 
ATOM      6  C   UNL     1       2.425   6.577  19.686  0.00  0.00    +0.000 A 
ENDROOT
BRANCH   6   7
ATOM      7  C   UNL     1       1.849   7.959  19.819  0.00  0.00    +0.000 C 
ATOM      8  O   UNL     1       1.553   8.326  20.957  0.00  0.00    +0.000 OA
ATOM      9  N   UNL     1       1.634   8.721  18.681  0.00  0.00    +0.000 N 
ATOM     10  H   UNL     1       1.772   8.260  17.789  0.00  0.00    +0.000 HD
BRANCH   9  11
ATOM     11  C   UNL     1       1.047  10.014  18.690  0.00  0.00    +0.000 A 
ATOM     12  C   UNL     1      -0.338  10.227  18.722  0.00  0.00    +0.000 A 
ATOM     13  C   UNL     1      -0.879  11.516  18.640  0.00  0.00    +0.000 A 
ATOM     14  C   UNL     1      -0.034  12.610  18.534  0.00  0.00    +0.000 A 
ATOM     15  C   UNL     1       1.348  12.421  18.546  0.00  0.00    +0.000 A 
ATOM     16  C   UNL     1       1.887  11.130  18.640  0.00  0.00    +0.000 A 
ENDBRANCH   9  11
ENDBRANCH   6   7
BRANCH   1  17
ATOM     17  O   UNL     1       3.976   7.052  17.906  0.00  0.00    +0.000 OA
BRANCH  17  18
ATOM     18  C   UNL     1       4.671   6.473  16.779  0.00  0.00    +0.000 C 
BRANCH  18  19
ATOM     19  C   UNL     1       6.189   6.556  16.990  0.00  0.00    +0.000 C 
BRANCH  19  20
ATOM     20  N   UNL     1       6.948   5.329  16.654  0.00  0.00    +0.000 NA
BRANCH  20  22
ATOM     21  C   UNL     1       7.556   5.747  19.085  0.00  0.00    +0.000 C 
ATOM     22  C   UNL     1       7.623   4.828  17.868  0.00  0.00    +0.000 C 
ENDBRANCH  20  22
BRANCH  20  23
ATOM     23  C   UNL     1       6.163   4.304  15.946  0.00  0.00    +0.000 C 
ATOM     24  C   UNL     1       6.421   4.172  14.449  0.00  0.00    +0.000 C 
ENDBRANCH  20  23
ENDBRANCH  19  20
ENDBRANCH  18  19
ENDBRANCH  17  18
ENDBRANCH   1  17
TORSDOF 8
ENDMDL
MODEL 8
REMARK VINA RESULT:      -6.1      2.349      5.741
REMARK  Name = 
REMARK  10 active torsions:
REMARK  status: ('A' for Active; 'I' for Inactive)
REMARK    1  A    between atoms: C_1  and  C_2
REMARK    2  A    between atoms: C_2  and  N_3
REMARK    3  A    between atoms: N_3  and  C_4
REMARK    4  A    between atoms: N_3  and  C_6
REMARK    5  A    between atoms: C_4  and  C_5
REMARK    6  A    between atoms: C_6  and  C_7
REMARK    7  A    between atoms: C_7  and  O_8
REMARK    8  A    between atoms: O_8  and  C_9
REMARK    9  A    between atoms: C_14  and  C_15
REMARK   10  A    between atoms: N_17  and  C_18
REMARK                            x       y       z     vdW  Elec       q    Type
REMARK                         _______ _______ _______ _____ _____    ______ ____
ROOT
ATOM      1  C   UNL     1       4.976   5.117  18.181  0.00  0.00    +0.000 A 
ATOM      2  C   UNL     1       6.100   4.643  17.470  0.00  0.00    +0.000 A 
ATOM      3  C   UNL     1       6.457   5.159  16.221  0.00  0.00    +0.000 A 
ATOM      4  C   UNL     1       5.701   6.165  15.650  0.00  0.00    +0.000 A 
ATOM      5  C   UNL     1       4.582   6.637  16.326  0.00  0.00    +0.000 A 
ATOM      6  C   UNL     1       4.189   6.126  17.589  0.00  0.00    +0.000 A 
ENDROOT
BRANCH   6   7
ATOM      7  C   UNL     1       2.936   6.750  18.137  0.00  0.00    +0.000 C 
ATOM      8  O   UNL     1       1.970   6.001  18.292  0.00  0.00    +0.000 OA
ATOM      9  N   UNL     1       2.907   8.113  18.390  0.00  0.00    +0.000 N 
ATOM     10  H   UNL     1       3.707   8.652  18.082  0.00  0.00    +0.000 HD
BRANCH   9  11
ATOM     11  C   UNL     1       1.761   8.809  18.857  0.00  0.00    +0.000 A 
ATOM     12  C   UNL     1       1.341   8.786  20.194  0.00  0.00    +0.000 A 
ATOM     13  C   UNL     1       0.156   9.413  20.596  0.00  0.00    +0.000 A 
ATOM     14  C   UNL     1      -0.621  10.080  19.662  0.00  0.00    +0.000 A 
ATOM     15  C   UNL     1      -0.197  10.151  18.334  0.00  0.00    +0.000 A 
ATOM     16  C   UNL     1       0.997   9.532  17.937  0.00  0.00    +0.000 A 
ENDBRANCH   9  11
ENDBRANCH   6   7
BRANCH   1  17
ATOM     17  O   UNL     1       4.630   4.634  19.426  0.00  0.00    +0.000 OA
BRANCH  17  18
ATOM     18  C   UNL     1       4.890   3.230  19.646  0.00  0.00    +0.000 C 
BRANCH  18  19
ATOM     19  C   UNL     1       3.673   2.560  20.301  0.00  0.00    +0.000 C 
BRANCH  19  20
ATOM     20  N   UNL     1       2.655   2.032  19.364  0.00  0.00    +0.000 NA
BRANCH  20  22
ATOM     21  C   UNL     1       1.027   3.118  20.985  0.00  0.00    +0.000 C 
ATOM     22  C   UNL     1       1.395   2.783  19.542  0.00  0.00    +0.000 C 
ENDBRANCH  20  22
BRANCH  20  23
ATOM     23  C   UNL     1       3.102   1.949  17.964  0.00  0.00    +0.000 C 
ATOM     24  C   UNL     1       2.421   2.896  16.981  0.00  0.00    +0.000 C 
ENDBRANCH  20  23
ENDBRANCH  19  20
ENDBRANCH  18  19
ENDBRANCH  17  18
ENDBRANCH   1  17
TORSDOF 8
ENDMDL
MODEL 9
REMARK VINA RESULT:      -6.1      2.006      3.264
REMARK  Name = 
REMARK  10 active torsions:
REMARK  status: ('A' for Active; 'I' for Inactive)
REMARK    1  A    between atoms: C_1  and  C_2
REMARK    2  A    between atoms: C_2  and  N_3
REMARK    3  A    between atoms: N_3  and  C_4
REMARK    4  A    between atoms: N_3  and  C_6
REMARK    5  A    between atoms: C_4  and  C_5
REMARK    6  A    between atoms: C_6  and  C_7
REMARK    7  A    between atoms: C_7  and  O_8
REMARK    8  A    between atoms: O_8  and  C_9
REMARK    9  A    between atoms: C_14  and  C_15
REMARK   10  A    between atoms: N_17  and  C_18
REMARK                            x       y       z     vdW  Elec       q    Type
REMARK                         _______ _______ _______ _____ _____    ______ ____
ROOT
ATOM      1  C   UNL     1       1.851   7.411  20.191  0.00  0.00    +0.000 A 
ATOM      2  C   UNL     1       0.950   8.070  21.057  0.00  0.00    +0.000 A 
ATOM      3  C   UNL     1       0.353   9.287  20.717  0.00  0.00    +0.000 A 
ATOM      4  C   UNL     1       0.638   9.878  19.501  0.00  0.00    +0.000 A 
ATOM      5  C   UNL     1       1.533   9.254  18.638  0.00  0.00    +0.000 A 
ATOM      6  C   UNL     1       2.161   8.025  18.960  0.00  0.00    +0.000 A 
ENDROOT
BRANCH   6   7
ATOM      7  C   UNL     1       3.115   7.533  17.907  0.00  0.00    +0.000 C 
ATOM      8  O   UNL     1       3.056   8.085  16.808  0.00  0.00    +0.000 OA
ATOM      9  N   UNL     1       3.961   6.473  18.196  0.00  0.00    +0.000 N 
ATOM     10  H   UNL     1       3.816   6.000  19.079  0.00  0.00    +0.000 HD
BRANCH   9  11
ATOM     11  C   UNL     1       4.860   5.898  17.260  0.00  0.00    +0.000 A 
ATOM     12  C   UNL     1       4.506   4.847  16.402  0.00  0.00    +0.000 A 
ATOM     13  C   UNL     1       5.447   4.248  15.556  0.00  0.00    +0.000 A 
ATOM     14  C   UNL     1       6.757   4.703  15.553  0.00  0.00    +0.000 A 
ATOM     15  C   UNL     1       7.118   5.777  16.368  0.00  0.00    +0.000 A 
ATOM     16  C   UNL     1       6.170   6.383  17.205  0.00  0.00    +0.000 A 
ENDBRANCH   9  11
ENDBRANCH   6   7
BRANCH   1  17
ATOM     17  O   UNL     1       2.425   6.196  20.504  0.00  0.00    +0.000 OA
BRANCH  17  18
ATOM     18  C   UNL     1       1.518   5.073  20.562  0.00  0.00    +0.000 C 
BRANCH  18  19
ATOM     19  C   UNL     1       2.230   3.845  21.148  0.00  0.00    +0.000 C 
BRANCH  19  20
ATOM     20  N   UNL     1       2.406   2.706  20.217  0.00  0.00    +0.000 NA
BRANCH  20  22
ATOM     21  C   UNL     1       2.236   2.250  17.723  0.00  0.00    +0.000 C 
ATOM     22  C   UNL     1       1.722   3.010  18.944  0.00  0.00    +0.000 C 
ENDBRANCH  20  22
BRANCH  20  23
ATOM     23  C   UNL     1       3.801   2.267  20.050  0.00  0.00    +0.000 C 
ATOM     24  C   UNL     1       4.821   3.360  19.746  0.00  0.00    +0.000 C 
ENDBRANCH  20  23
ENDBRANCH  19  20
ENDBRANCH  18  19
ENDBRANCH  17  18
ENDBRANCH   1  17
TORSDOF 8
ENDMDL
