MODEL 1
REMARK VINA RESULT:      -6.9      0.000      0.000
REMARK  Name = 
REMARK  4 active torsions:
REMARK  status: ('A' for Active; 'I' for Inactive)
REMARK    1  A    between atoms: C_1  and  C_2
REMARK    2  A    between atoms: C_6  and  C_7
REMARK    3  A    between atoms: N_12  and  C_13
REMARK    4  A    between atoms: C_13  and  C_14
REMARK                            x       y       z     vdW  Elec       q    Type
REMARK                         _______ _______ _______ _____ _____    ______ ____
ROOT
ATOM      1  C   UNL     1       2.946   5.435  19.457  0.00  0.00    +0.000 C 
ATOM      2  O   UNL     1       2.668   6.522  19.982  0.00  0.00    +0.000 OA
ATOM      3  N   UNL     1       3.743   5.384  18.325  0.00  0.00    +0.000 N 
ATOM      4  C   UNL     1       4.423   6.600  17.868  0.00  0.00    +0.000 C 
ATOM      5  C   UNL     1       5.850   6.273  17.363  0.00  0.00    +0.000 C 
ATOM      6  N   UNL     1       5.935   5.166  16.372  0.00  0.00    +0.000 NA
ATOM      7  C   UNL     1       5.200   3.999  16.915  0.00  0.00    +0.000 C 
ATOM      8  C   UNL     1       3.750   4.316  17.327  0.00  0.00    +0.000 C 
ENDROOT
BRANCH   1  14
ATOM      9  C   UNL     1       4.417   2.445  20.265  0.00  0.00    +0.000 C 
ATOM     10  C   UNL     1       3.052   3.007  20.379  0.00  0.00    +0.000 A 
ATOM     11  O   UNL     1       2.182   2.178  21.028  0.00  0.00    +0.000 OA
ATOM     12  C   UNL     1       1.016   2.842  21.177  0.00  0.00    +0.000 A 
ATOM     13  C   UNL     1       1.098   4.074  20.589  0.00  0.00    +0.000 A 
ATOM     14  C   UNL     1       2.426   4.204  20.055  0.00  0.00    +0.000 A 
ENDBRANCH   1  14
BRANCH   6  15
ATOM     15  C   UNL     1       5.441   5.598  15.053  0.00  0.00    +0.000 C 
BRANCH  15  16
ATOM     16  C   UNL     1       5.955   4.780  13.882  0.00  0.00    +0.000 A 
ATOM     17  C   UNL     1       5.132   3.818  13.272  0.00  0.00    +0.000 A 
ATOM     18  C   UNL     1       5.581   3.093  12.167  0.00  0.00    +0.000 A 
ATOM     19  C   UNL     1       6.848   3.335  11.640  0.00  0.00    +0.000 A 
ATOM     20  C   UNL     1       7.679   4.283  12.237  0.00  0.00    +0.000 A 
ATOM     21  C   UNL     1       7.240   4.989  13.361  0.00  0.00    +0.000 A 
ENDBRANCH  15  16
ENDBRANCH   6  15
TORSDOF 3
ENDMDL
MODEL 2
REMARK VINA RESULT:      -6.8      0.430      1.130
REMARK  Name = 
REMARK  4 active torsions:
REMARK  status: ('A' for Active; 'I' for Inactive)
REMARK    1  A    between atoms: C_1  and  C_2
REMARK    2  A    between atoms: C_6  and  C_7
REMARK    3  A    between atoms: N_12  and  C_13
REMARK    4  A    between atoms: C_13  and  C_14
REMARK                            x       y       z     vdW  Elec       q    Type
REMARK                         _______ _______ _______ _____ _____    ______ ____
ROOT
ATOM      1  C   UNL     1       3.101   5.387  19.254  0.00  0.00    +0.000 C 
ATOM      2  O   UNL     1       2.933   6.501  19.768  0.00  0.00    +0.000 OA
ATOM      3  N   UNL     1       3.836   5.255  18.087  0.00  0.00    +0.000 N 
ATOM      4  C   UNL     1       4.582   6.407  17.572  0.00  0.00    +0.000 C 
ATOM      5  C   UNL     1       5.954   5.962  17.006  0.00  0.00    +0.000 C 
ATOM      6  N   UNL     1       5.905   4.834  16.036  0.00  0.00    +0.000 NA
ATOM      7  C   UNL     1       5.112   3.737  16.639  0.00  0.00    +0.000 C 
ATOM      8  C   UNL     1       3.712   4.172  17.113  0.00  0.00    +0.000 C 
ENDROOT
BRANCH   1  14
ATOM      9  C   UNL     1       4.416   2.359  20.180  0.00  0.00    +0.000 C 
ATOM     10  C   UNL     1       3.082   2.996  20.273  0.00  0.00    +0.000 A 
ATOM     11  O   UNL     1       2.172   2.240  20.957  0.00  0.00    +0.000 OA
ATOM     12  C   UNL     1       1.043   2.971  21.080  0.00  0.00    +0.000 A 
ATOM     13  C   UNL     1       1.188   4.172  20.443  0.00  0.00    +0.000 A 
ATOM     14  C   UNL     1       2.519   4.211  19.902  0.00  0.00    +0.000 A 
ENDBRANCH   1  14
BRANCH   6  15
ATOM     15  C   UNL     1       5.382   5.280  14.733  0.00  0.00    +0.000 C 
BRANCH  15  16
ATOM     16  C   UNL     1       5.779   4.408  13.556  0.00  0.00    +0.000 A 
ATOM     17  C   UNL     1       7.113   4.376  13.114  0.00  0.00    +0.000 A 
ATOM     18  C   UNL     1       7.495   3.544  12.060  0.00  0.00    +0.000 A 
ATOM     19  C   UNL     1       6.557   2.715  11.450  0.00  0.00    +0.000 A 
ATOM     20  C   UNL     1       5.229   2.738  11.872  0.00  0.00    +0.000 A 
ATOM     21  C   UNL     1       4.840   3.592  12.909  0.00  0.00    +0.000 A 
ENDBRANCH  15  16
ENDBRANCH   6  15
TORSDOF 3
ENDMDL
MODEL 3
REMARK VINA RESULT:      -6.7      1.542      2.276
REMARK  Name = 
REMARK  4 active torsions:
REMARK  status: ('A' for Active; 'I' for Inactive)
REMARK    1  A    between atoms: C_1  and  C_2
REMARK    2  A    between atoms: C_6  and  C_7
REMARK    3  A    between atoms: N_12  and  C_13
REMARK    4  A    between atoms: C_13  and  C_14
REMARK                            x       y       z     vdW  Elec       q    Type
REMARK                         _______ _______ _______ _____ _____    ______ ____
ROOT
ATOM      1  C   UNL     1       2.492   3.725  18.068  0.00  0.00    +0.000 C 
ATOM      2  O   UNL     1       1.587   3.538  17.244  0.00  0.00    +0.000 OA
ATOM      3  N   UNL     1       3.764   4.079  17.648  0.00  0.00    +0.000 N 
ATOM      4  C   UNL     1       3.985   4.430  16.242  0.00  0.00    +0.000 C 
ATOM      5  C   UNL     1       4.973   5.618  16.123  0.00  0.00    +0.000 C 
ATOM      6  N   UNL     1       6.245   5.464  16.880  0.00  0.00    +0.000 NA
ATOM      7  C   UNL     1       5.914   5.087  18.274  0.00  0.00    +0.000 C 
ATOM      8  C   UNL     1       5.007   3.847  18.382  0.00  0.00    +0.000 C 
ENDROOT
BRANCH   1  14
ATOM      9  C   UNL     1       2.009   5.993  20.593  0.00  0.00    +0.000 C 
ATOM     10  C   UNL     1       1.998   4.516  20.494  0.00  0.00    +0.000 A 
ATOM     11  O   UNL     1       1.634   3.902  21.659  0.00  0.00    +0.000 OA
ATOM     12  C   UNL     1       1.542   2.578  21.413  0.00  0.00    +0.000 A 
ATOM     13  C   UNL     1       1.891   2.314  20.117  0.00  0.00    +0.000 A 
ATOM     14  C   UNL     1       2.197   3.573  19.494  0.00  0.00    +0.000 A 
ENDBRANCH   1  14
BRANCH   6  15
ATOM     15  C   UNL     1       7.142   4.501  16.217  0.00  0.00    +0.000 C 
BRANCH  15  16
ATOM     16  C   UNL     1       7.084   4.519  14.700  0.00  0.00    +0.000 A 
ATOM     17  C   UNL     1       7.895   5.405  13.969  0.00  0.00    +0.000 A 
ATOM     18  C   UNL     1       7.880   5.397  12.573  0.00  0.00    +0.000 A 
ATOM     19  C   UNL     1       7.077   4.489  11.887  0.00  0.00    +0.000 A 
ATOM     20  C   UNL     1       6.263   3.607  12.598  0.00  0.00    +0.000 A 
ATOM     21  C   UNL     1       6.256   3.634  13.995  0.00  0.00    +0.000 A 
ENDBRANCH  15  16
ENDBRANCH   6  15
TORSDOF 3
ENDMDL
MODEL 4
REMARK VINA RESULT:      -6.7      0.868      1.159
REMARK  Name = 
REMARK  4 active torsions:
REMARK  status: ('A' for Active; 'I' for Inactive)
REMARK    1  A    between atoms: C_1  and  C_2
REMARK    2  A    between atoms: C_6  and  C_7
REMARK    3  A    between atoms: N_12  and  C_13
REMARK    4  A    between atoms: C_13  and  C_14
REMARK                            x       y       z     vdW  Elec       q    Type
REMARK                         _______ _______ _______ _____ _____    ______ ____
ROOT
ATOM      1  C   UNL     1       2.624   5.590  19.588  0.00  0.00    +0.000 C 
ATOM      2  O   UNL     1       2.292   6.695  20.036  0.00  0.00    +0.000 OA
ATOM      3  N   UNL     1       3.442   5.499  18.473  0.00  0.00    +0.000 N 
ATOM      4  C   UNL     1       4.078   6.710  17.948  0.00  0.00    +0.000 C 
ATOM      5  C   UNL     1       5.527   6.412  17.486  0.00  0.00    +0.000 C 
ATOM      6  N   UNL     1       5.674   5.247  16.571  0.00  0.00    +0.000 NA
ATOM      7  C   UNL     1       4.978   4.088  17.178  0.00  0.00    +0.000 C 
ATOM      8  C   UNL     1       3.510   4.370  17.548  0.00  0.00    +0.000 C 
ENDROOT
BRANCH   1  14
ATOM      9  C   UNL     1       0.679   2.970  18.534  0.00  0.00    +0.000 C 
ATOM     10  C   UNL     1       1.360   3.328  19.798  0.00  0.00    +0.000 A 
ATOM     11  O   UNL     1       1.264   2.356  20.754  0.00  0.00    +0.000 OA
ATOM     12  C   UNL     1       2.019   2.740  21.806  0.00  0.00    +0.000 A 
ATOM     13  C   UNL     1       2.565   3.972  21.570  0.00  0.00    +0.000 A 
ATOM     14  C   UNL     1       2.144   4.379  20.257  0.00  0.00    +0.000 A 
ENDBRANCH   1  14
BRANCH   6  15
ATOM     15  C   UNL     1       5.186   5.571  15.219  0.00  0.00    +0.000 C 
BRANCH  15  16
ATOM     16  C   UNL     1       5.897   4.842  14.094  0.00  0.00    +0.000 A 
ATOM     17  C   UNL     1       5.248   3.806  13.399  0.00  0.00    +0.000 A 
ATOM     18  C   UNL     1       5.878   3.159  12.333  0.00  0.00    +0.000 A 
ATOM     19  C   UNL     1       7.152   3.553  11.932  0.00  0.00    +0.000 A 
ATOM     20  C   UNL     1       7.811   4.576  12.615  0.00  0.00    +0.000 A 
ATOM     21  C   UNL     1       7.192   5.204  13.699  0.00  0.00    +0.000 A 
ENDBRANCH  15  16
ENDBRANCH   6  15
TORSDOF 3
ENDMDL
MODEL 5
REMARK VINA RESULT:      -6.7      1.121      1.617
REMARK  Name = 
REMARK  4 active torsions:
REMARK  status: ('A' for Active; 'I' for Inactive)
REMARK    1  A    between atoms: C_1  and  C_2
REMARK    2  A    between atoms: C_6  and  C_7
REMARK    3  A    between atoms: N_12  and  C_13
REMARK    4  A    between atoms: C_13  and  C_14
REMARK                            x       y       z     vdW  Elec       q    Type
REMARK                         _______ _______ _______ _____ _____    ______ ____
ROOT
ATOM      1  C   UNL     1       3.726   5.213  18.526  0.00  0.00    +0.000 C 
ATOM      2  O   UNL     1       3.686   6.294  19.128  0.00  0.00    +0.000 OA
ATOM      3  N   UNL     1       4.564   5.045  17.435  0.00  0.00    +0.000 N 
ATOM      4  C   UNL     1       5.551   6.083  17.120  0.00  0.00    +0.000 C 
ATOM      5  C   UNL     1       6.887   5.446  16.661  0.00  0.00    +0.000 C 
ATOM      6  N   UNL     1       6.767   4.426  15.584  0.00  0.00    +0.000 NA
ATOM      7  C   UNL     1       5.734   3.444  15.986  0.00  0.00    +0.000 C 
ATOM      8  C   UNL     1       4.380   4.083  16.351  0.00  0.00    +0.000 C 
ENDROOT
BRANCH   1  14
ATOM      9  C   UNL     1       4.431   2.236  20.075  0.00  0.00    +0.000 C 
ATOM     10  C   UNL     1       3.196   2.916  19.623  0.00  0.00    +0.000 A 
ATOM     11  O   UNL     1       2.057   2.246  19.967  0.00  0.00    +0.000 OA
ATOM     12  C   UNL     1       1.006   3.016  19.613  0.00  0.00    +0.000 A 
ATOM     13  C   UNL     1       1.443   4.155  18.995  0.00  0.00    +0.000 A 
ATOM     14  C   UNL     1       2.880   4.111  18.988  0.00  0.00    +0.000 A 
ENDBRANCH   1  14
BRANCH   6  15
ATOM     15  C   UNL     1       6.489   5.061  14.284  0.00  0.00    +0.000 C 
BRANCH  15  16
ATOM     16  C   UNL     1       6.218   4.092  13.148  0.00  0.00    +0.000 A 
ATOM     17  C   UNL     1       7.278   3.402  12.535  0.00  0.00    +0.000 A 
ATOM     18  C   UNL     1       7.034   2.476  11.519  0.00  0.00    +0.000 A 
ATOM     19  C   UNL     1       5.727   2.208  11.118  0.00  0.00    +0.000 A 
ATOM     20  C   UNL     1       4.664   2.888  11.712  0.00  0.00    +0.000 A 
ATOM     21  C   UNL     1       4.911   3.835  12.709  0.00  0.00    +0.000 A 
ENDBRANCH  15  16
ENDBRANCH   6  15
TORSDOF 3
ENDMDL
MODEL 6
REMARK VINA RESULT:      -6.6      1.115      1.323
REMARK  Name = 
REMARK  4 active torsions:
REMARK  status: ('A' for Active; 'I' for Inactive)
REMARK    1  A    between atoms: C_1  and  C_2
REMARK    2  A    between atoms: C_6  and  C_7
REMARK    3  A    between atoms: N_12  and  C_13
REMARK    4  A    between atoms: C_13  and  C_14
REMARK                            x       y       z     vdW  Elec       q    Type
REMARK                         _______ _______ _______ _____ _____    ______ ____
ROOT
ATOM      1  C   UNL     1       3.703   5.228  18.522  0.00  0.00    +0.000 C 
ATOM      2  O   UNL     1       3.644   6.320  19.104  0.00  0.00    +0.000 OA
ATOM      3  N   UNL     1       4.554   5.052  17.443  0.00  0.00    +0.000 N 
ATOM      4  C   UNL     1       5.531   6.096  17.118  0.00  0.00    +0.000 C 
ATOM      5  C   UNL     1       6.879   5.469  16.684  0.00  0.00    +0.000 C 
ATOM      6  N   UNL     1       6.783   4.428  15.624  0.00  0.00    +0.000 NA
ATOM      7  C   UNL     1       5.758   3.441  16.034  0.00  0.00    +0.000 C 
ATOM      8  C   UNL     1       4.393   4.068  16.374  0.00  0.00    +0.000 C 
ENDROOT
BRANCH   1  14
ATOM      9  C   UNL     1       4.436   2.259  20.071  0.00  0.00    +0.000 C 
ATOM     10  C   UNL     1       3.194   2.933  19.630  0.00  0.00    +0.000 A 
ATOM     11  O   UNL     1       2.061   2.259  19.988  0.00  0.00    +0.000 OA
ATOM     12  C   UNL     1       1.003   3.024  19.642  0.00  0.00    +0.000 A 
ATOM     13  C   UNL     1       1.429   4.163  19.018  0.00  0.00    +0.000 A 
ATOM     14  C   UNL     1       2.866   4.125  18.995  0.00  0.00    +0.000 A 
ENDBRANCH   1  14
BRANCH   6  15
ATOM     15  C   UNL     1       6.510   5.036  14.310  0.00  0.00    +0.000 C 
BRANCH  15  16
ATOM     16  C   UNL     1       6.212   4.044  13.200  0.00  0.00    +0.000 A 
ATOM     17  C   UNL     1       4.891   3.843  12.764  0.00  0.00    +0.000 A 
ATOM     18  C   UNL     1       4.613   2.966  11.714  0.00  0.00    +0.000 A 
ATOM     19  C   UNL     1       5.650   2.297  11.069  0.00  0.00    +0.000 A 
ATOM     20  C   UNL     1       6.966   2.481  11.493  0.00  0.00    +0.000 A 
ATOM     21  C   UNL     1       7.242   3.338  12.563  0.00  0.00    +0.000 A 
ENDBRANCH  15  16
ENDBRANCH   6  15
TORSDOF 3
ENDMDL
MODEL 7
REMARK VINA RESULT:      -6.5      1.507      2.077
REMARK  Name = 
REMARK  4 active torsions:
REMARK  status: ('A' for Active; 'I' for Inactive)
REMARK    1  A    between atoms: C_1  and  C_2
REMARK    2  A    between atoms: C_6  and  C_7
REMARK    3  A    between atoms: N_12  and  C_13
REMARK    4  A    between atoms: C_13  and  C_14
REMARK                            x       y       z     vdW  Elec       q    Type
REMARK                         _______ _______ _______ _____ _____    ______ ____
ROOT
ATOM      1  C   UNL     1       2.675   3.649  18.207  0.00  0.00    +0.000 C 
ATOM      2  O   UNL     1       1.766   3.315  17.434  0.00  0.00    +0.000 OA
ATOM      3  N   UNL     1       3.903   4.059  17.713  0.00  0.00    +0.000 N 
ATOM      4  C   UNL     1       4.058   4.292  16.274  0.00  0.00    +0.000 C 
ATOM      5  C   UNL     1       4.943   5.536  16.013  0.00  0.00    +0.000 C 
ATOM      6  N   UNL     1       6.243   5.553  16.737  0.00  0.00    +0.000 NA
ATOM      7  C   UNL     1       5.980   5.285  18.170  0.00  0.00    +0.000 C 
ATOM      8  C   UNL     1       5.179   3.994  18.423  0.00  0.00    +0.000 C 
ENDROOT
BRANCH   1  14
ATOM      9  C   UNL     1       1.917   6.083  20.499  0.00  0.00    +0.000 C 
ATOM     10  C   UNL     1       2.116   4.617  20.553  0.00  0.00    +0.000 A 
ATOM     11  O   UNL     1       1.865   4.086  21.787  0.00  0.00    +0.000 OA
ATOM     12  C   UNL     1       1.959   2.743  21.682  0.00  0.00    +0.000 A 
ATOM     13  C   UNL     1       2.319   2.394  20.409  0.00  0.00    +0.000 A 
ATOM     14  C   UNL     1       2.430   3.609  19.650  0.00  0.00    +0.000 A 
ENDBRANCH   1  14
BRANCH   6  15
ATOM     15  C   UNL     1       7.197   4.605  16.136  0.00  0.00    +0.000 C 
BRANCH  15  16
ATOM     16  C   UNL     1       7.168   4.550  14.619  0.00  0.00    +0.000 A 
ATOM     17  C   UNL     1       6.345   3.622  13.959  0.00  0.00    +0.000 A 
ATOM     18  C   UNL     1       6.279   3.593  12.564  0.00  0.00    +0.000 A 
ATOM     19  C   UNL     1       7.015   4.505  11.811  0.00  0.00    +0.000 A 
ATOM     20  C   UNL     1       7.841   5.429  12.452  0.00  0.00    +0.000 A 
ATOM     21  C   UNL     1       7.928   5.439  13.847  0.00  0.00    +0.000 A 
ENDBRANCH  15  16
ENDBRANCH   6  15
TORSDOF 3
ENDMDL
MODEL 8
REMARK VINA RESULT:      -6.5      0.877      1.587
REMARK  Name = 
REMARK  4 active torsions:
REMARK  status: ('A' for Active; 'I' for Inactive)
REMARK    1  A    between atoms: C_1  and  C_2
REMARK    2  A    between atoms: C_6  and  C_7
REMARK    3  A    between atoms: N_12  and  C_13
REMARK    4  A    between atoms: C_13  and  C_14
REMARK                            x       y       z     vdW  Elec       q    Type
REMARK                         _______ _______ _______ _____ _____    ______ ____
ROOT
ATOM      1  C   UNL     1       2.566   5.519  19.633  0.00  0.00    +0.000 C 
ATOM      2  O   UNL     1       2.241   6.622  20.093  0.00  0.00    +0.000 OA
ATOM      3  N   UNL     1       3.361   5.435  18.501  0.00  0.00    +0.000 N 
ATOM      4  C   UNL     1       3.983   6.651  17.968  0.00  0.00    +0.000 C 
ATOM      5  C   UNL     1       5.422   6.358  17.474  0.00  0.00    +0.000 C 
ATOM      6  N   UNL     1       5.554   5.197  16.552  0.00  0.00    +0.000 NA
ATOM      7  C   UNL     1       4.874   4.034  17.169  0.00  0.00    +0.000 C 
ATOM      8  C   UNL     1       3.413   4.310  17.570  0.00  0.00    +0.000 C 
ENDROOT
BRANCH   1  14
ATOM      9  C   UNL     1       0.539   2.939  18.636  0.00  0.00    +0.000 C 
ATOM     10  C   UNL     1       1.286   3.269  19.872  0.00  0.00    +0.000 A 
ATOM     11  O   UNL     1       1.223   2.285  20.817  0.00  0.00    +0.000 OA
ATOM     12  C   UNL     1       2.033   2.644  21.836  0.00  0.00    +0.000 A 
ATOM     13  C   UNL     1       2.582   3.872  21.592  0.00  0.00    +0.000 A 
ATOM     14  C   UNL     1       2.104   4.304  20.307  0.00  0.00    +0.000 A 
ENDBRANCH   1  14
BRANCH   6  15
ATOM     15  C   UNL     1       5.037   5.526  15.212  0.00  0.00    +0.000 C 
BRANCH  15  16
ATOM     16  C   UNL     1       5.767   4.851  14.065  0.00  0.00    +0.000 A 
ATOM     17  C   UNL     1       7.112   5.161  13.800  0.00  0.00    +0.000 A 
ATOM     18  C   UNL     1       7.805   4.514  12.774  0.00  0.00    +0.000 A 
ATOM     19  C   UNL     1       7.172   3.531  12.017  0.00  0.00    +0.000 A 
ATOM     20  C   UNL     1       5.836   3.216  12.263  0.00  0.00    +0.000 A 
ATOM     21  C   UNL     1       5.134   3.884  13.271  0.00  0.00    +0.000 A 
ENDBRANCH  15  16
ENDBRANCH   6  15
TORSDOF 3
ENDMDL
MODEL 9
REMARK VINA RESULT:      -6.4      1.086      1.602
REMARK  Name = 
REMARK  4 active torsions:
REMARK  status: ('A' for Active; 'I' for Inactive)
REMARK    1  A    between atoms: C_1  and  C_2
REMARK    2  A    between atoms: C_6  and  C_7
REMARK    3  A    between atoms: N_12  and  C_13
REMARK    4  A    between atoms: C_13  and  C_14
REMARK                            x       y       z     vdW  Elec       q    Type
REMARK                         _______ _______ _______ _____ _____    ______ ____
ROOT
ATOM      1  C   UNL     1       3.182   5.045  19.206  0.00  0.00    +0.000 C 
ATOM      2  O   UNL     1       3.098   5.988  20.003  0.00  0.00    +0.000 OA
ATOM      3  N   UNL     1       4.160   5.039  18.224  0.00  0.00    +0.000 N 
ATOM      4  C   UNL     1       5.220   6.051  18.259  0.00  0.00    +0.000 C 
ATOM      5  C   UNL     1       6.583   5.431  17.861  0.00  0.00    +0.000 C 
ATOM      6  N   UNL     1       6.579   4.651  16.593  0.00  0.00    +0.000 NA
ATOM      7  C   UNL     1       5.462   3.680  16.648  0.00  0.00    +0.000 C 
ATOM      8  C   UNL     1       4.095   4.322  16.952  0.00  0.00    +0.000 C 
ENDROOT
BRANCH   1  14
ATOM      9  C   UNL     1       2.255   3.047  21.833  0.00  0.00    +0.000 C 
ATOM     10  C   UNL     1       1.876   3.145  20.405  0.00  0.00    +0.000 A 
ATOM     11  O   UNL     1       0.863   2.296  20.058  0.00  0.00    +0.000 OA
ATOM     12  C   UNL     1       0.527   2.561  18.777  0.00  0.00    +0.000 A 
ATOM     13  C   UNL     1       1.340   3.535  18.268  0.00  0.00    +0.000 A 
ATOM     14  C   UNL     1       2.237   3.933  19.319  0.00  0.00    +0.000 A 
ENDBRANCH   1  14
BRANCH   6  15
ATOM     15  C   UNL     1       6.513   5.544  15.423  0.00  0.00    +0.000 C 
BRANCH  15  16
ATOM     16  C   UNL     1       6.533   4.837  14.080  0.00  0.00    +0.000 A 
ATOM     17  C   UNL     1       7.601   5.038  13.189  0.00  0.00    +0.000 A 
ATOM     18  C   UNL     1       7.650   4.358  11.970  0.00  0.00    +0.000 A 
ATOM     19  C   UNL     1       6.648   3.451  11.636  0.00  0.00    +0.000 A 
ATOM     20  C   UNL     1       5.578   3.245  12.507  0.00  0.00    +0.000 A 
ATOM     21  C   UNL     1       5.515   3.947  13.714  0.00  0.00    +0.000 A 
ENDBRANCH  15  16
ENDBRANCH   6  15
TORSDOF 3
ENDMDL
