MODEL 1
REMARK VINA RESULT:      -7.0      0.000      0.000
REMARK  Name = 
REMARK  7 active torsions:
REMARK  status: ('A' for Active; 'I' for Inactive)
REMARK    1  A    between atoms: C_2  and  C_3
REMARK    2  A    between atoms: C_7  and  C_9
REMARK    3  A    between atoms: C_9  and  C_10
REMARK    4  A    between atoms: C_10  and  C_11
REMARK    5  A    between atoms: C_11  and  C_12
REMARK    6  A    between atoms: C_12  and  C_13
REMARK    7  A    between atoms: C_13  and  C_14
REMARK                            x       y       z     vdW  Elec       q    Type
REMARK                         _______ _______ _______ _____ _____    ______ ____
ROOT
ATOM      1  C   UNL     1       2.786   2.488  19.792  0.00  0.00    +0.000 C 
ENDROOT
BRANCH   1   6
ATOM      2  C   UNL     1       5.888   4.394  16.978  0.00  0.00    +0.000 A 
ATOM      3  C   UNL     1       6.064   4.399  18.367  0.00  0.00    +0.000 A 
ATOM      4  N   UNL     1       5.060   3.798  19.009  0.00  0.00    +0.000 NA
ATOM      5  N   UNL     1       4.214   3.394  18.019  0.00  0.00    +0.000 N 
ATOM      6  C   UNL     1       3.018   2.711  18.313  0.00  0.00    +0.000 C 
ATOM      7  O   UNL     1       2.288   2.364  17.393  0.00  0.00    +0.000 OA
ATOM      8  C   UNL     1       4.696   3.743  16.772  0.00  0.00    +0.000 A 
BRANCH   2  10
ATOM      9  N   UNL     1       7.468   5.386  15.192  0.00  0.00    +0.000 NA
ATOM     10  C   UNL     1       6.754   4.942  15.991  0.00  0.00    +0.000 C 
ENDBRANCH   2  10
ENDBRANCH   1   6
BRANCH   1  11
ATOM     11  C   UNL     1       1.366   2.867  20.198  0.00  0.00    +0.000 C 
BRANCH  11  12
ATOM     12  C   UNL     1       1.070   4.347  19.942  0.00  0.00    +0.000 C 
BRANCH  12  13
ATOM     13  C   UNL     1       2.041   5.221  20.739  0.00  0.00    +0.000 C 
BRANCH  13  14
ATOM     14  C   UNL     1       2.887   6.128  19.844  0.00  0.00    +0.000 C 
BRANCH  14  15
ATOM     15  C   UNL     1       2.162   7.420  19.542  0.00  0.00    +0.000 A 
ATOM     16  C   UNL     1       2.203   7.965  18.251  0.00  0.00    +0.000 A 
ATOM     17  C   UNL     1       1.586   9.187  17.977  0.00  0.00    +0.000 A 
ATOM     18  C   UNL     1       0.921   9.875  18.988  0.00  0.00    +0.000 A 
ATOM     19  C   UNL     1       0.865   9.340  20.273  0.00  0.00    +0.000 A 
ATOM     20  C   UNL     1       1.484   8.118  20.551  0.00  0.00    +0.000 A 
ENDBRANCH  14  15
ENDBRANCH  13  14
ENDBRANCH  12  13
ENDBRANCH  11  12
ENDBRANCH   1  11
TORSDOF 7
ENDMDL
MODEL 2
REMARK VINA RESULT:      -7.0      5.684      7.488
REMARK  Name = 
REMARK  7 active torsions:
REMARK  status: ('A' for Active; 'I' for Inactive)
REMARK    1  A    between atoms: C_2  and  C_3
REMARK    2  A    between atoms: C_7  and  C_9
REMARK    3  A    between atoms: C_9  and  C_10
REMARK    4  A    between atoms: C_10  and  C_11
REMARK    5  A    between atoms: C_11  and  C_12
REMARK    6  A    between atoms: C_12  and  C_13
REMARK    7  A    between atoms: C_13  and  C_14
REMARK                            x       y       z     vdW  Elec       q    Type
REMARK                         _______ _______ _______ _____ _____    ______ ____
ROOT
ATOM      1  C   UNL     1       7.349   6.027  17.286  0.00  0.00    +0.000 C 
ENDROOT
BRANCH   1   6
ATOM      2  C   UNL     1       3.713   3.403  18.323  0.00  0.00    +0.000 A 
ATOM      3  C   UNL     1       3.883   3.939  17.041  0.00  0.00    +0.000 A 
ATOM      4  N   UNL     1       4.996   4.668  16.937  0.00  0.00    +0.000 NA
ATOM      5  N   UNL     1       5.562   4.607  18.176  0.00  0.00    +0.000 N 
ATOM      6  C   UNL     1       6.772   5.268  18.462  0.00  0.00    +0.000 C 
ATOM      7  O   UNL     1       7.246   5.185  19.587  0.00  0.00    +0.000 OA
ATOM      8  C   UNL     1       4.801   3.841  19.039  0.00  0.00    +0.000 A 
BRANCH   2  10
ATOM      9  N   UNL     1       1.785   1.907  19.167  0.00  0.00    +0.000 NA
ATOM     10  C   UNL     1       2.648   2.583  18.788  0.00  0.00    +0.000 C 
ENDBRANCH   2  10
ENDBRANCH   1   6
BRANCH   1  11
ATOM     11  C   UNL     1       7.274   7.534  17.502  0.00  0.00    +0.000 C 
BRANCH  11  12
ATOM     12  C   UNL     1       8.349   8.030  18.473  0.00  0.00    +0.000 C 
BRANCH  12  13
ATOM     13  C   UNL     1       8.541   9.540  18.315  0.00  0.00    +0.000 C 
BRANCH  13  14
ATOM     14  C   UNL     1       9.229  10.175  19.525  0.00  0.00    +0.000 C 
BRANCH  14  15
ATOM     15  C   UNL     1      10.253  11.198  19.090  0.00  0.00    +0.000 A 
ATOM     16  C   UNL     1      10.326  11.595  17.747  0.00  0.00    +0.000 A 
ATOM     17  C   UNL     1      11.306  12.495  17.324  0.00  0.00    +0.000 A 
ATOM     18  C   UNL     1      12.222  13.008  18.238  0.00  0.00    +0.000 A 
ATOM     19  C   UNL     1      12.155  12.629  19.577  0.00  0.00    +0.000 A 
ATOM     20  C   UNL     1      11.177  11.727  20.003  0.00  0.00    +0.000 A 
ENDBRANCH  14  15
ENDBRANCH  13  14
ENDBRANCH  12  13
ENDBRANCH  11  12
ENDBRANCH   1  11
TORSDOF 7
ENDMDL
MODEL 3
REMARK VINA RESULT:      -6.7      5.675      7.328
REMARK  Name = 
REMARK  7 active torsions:
REMARK  status: ('A' for Active; 'I' for Inactive)
REMARK    1  A    between atoms: C_2  and  C_3
REMARK    2  A    between atoms: C_7  and  C_9
REMARK    3  A    between atoms: C_9  and  C_10
REMARK    4  A    between atoms: C_10  and  C_11
REMARK    5  A    between atoms: C_11  and  C_12
REMARK    6  A    between atoms: C_12  and  C_13
REMARK    7  A    between atoms: C_13  and  C_14
REMARK                            x       y       z     vdW  Elec       q    Type
REMARK                         _______ _______ _______ _____ _____    ______ ____
ROOT
ATOM      1  C   UNL     1       7.098   5.935  18.592  0.00  0.00    +0.000 C 
ENDROOT
BRANCH   1   6
ATOM      2  C   UNL     1       5.990   4.341  14.420  0.00  0.00    +0.000 A 
ATOM      3  C   UNL     1       5.298   5.412  14.998  0.00  0.00    +0.000 A 
ATOM      4  N   UNL     1       5.767   5.727  16.207  0.00  0.00    +0.000 NA
ATOM      5  N   UNL     1       6.785   4.845  16.421  0.00  0.00    +0.000 N 
ATOM      6  C   UNL     1       7.533   4.866  17.612  0.00  0.00    +0.000 C 
ATOM      7  O   UNL     1       8.439   4.057  17.763  0.00  0.00    +0.000 OA
ATOM      8  C   UNL     1       6.942   3.990  15.346  0.00  0.00    +0.000 A 
BRANCH   2  10
ATOM      9  N   UNL     1       5.584   3.254  12.112  0.00  0.00    +0.000 NA
ATOM     10  C   UNL     1       5.761   3.743  13.150  0.00  0.00    +0.000 C 
ENDBRANCH   2  10
ENDBRANCH   1   6
BRANCH   1  11
ATOM     11  C   UNL     1       8.061   7.117  18.595  0.00  0.00    +0.000 C 
BRANCH  11  12
ATOM     12  C   UNL     1       7.562   8.268  17.719  0.00  0.00    +0.000 C 
BRANCH  12  13
ATOM     13  C   UNL     1       8.643   9.343  17.600  0.00  0.00    +0.000 C 
BRANCH  13  14
ATOM     14  C   UNL     1       8.646  10.310  18.786  0.00  0.00    +0.000 C 
BRANCH  14  15
ATOM     15  C   UNL     1       9.952  11.065  18.867  0.00  0.00    +0.000 A 
ATOM     16  C   UNL     1      10.547  11.312  20.112  0.00  0.00    +0.000 A 
ATOM     17  C   UNL     1      11.723  12.060  20.202  0.00  0.00    +0.000 A 
ATOM     18  C   UNL     1      12.317  12.567  19.049  0.00  0.00    +0.000 A 
ATOM     19  C   UNL     1      11.741  12.321  17.804  0.00  0.00    +0.000 A 
ATOM     20  C   UNL     1      10.562  11.575  17.712  0.00  0.00    +0.000 A 
ENDBRANCH  14  15
ENDBRANCH  13  14
ENDBRANCH  12  13
ENDBRANCH  11  12
ENDBRANCH   1  11
TORSDOF 7
ENDMDL
MODEL 4
REMARK VINA RESULT:      -6.7      3.153      6.379
REMARK  Name = 
REMARK  7 active torsions:
REMARK  status: ('A' for Active; 'I' for Inactive)
REMARK    1  A    between atoms: C_2  and  C_3
REMARK    2  A    between atoms: C_7  and  C_9
REMARK    3  A    between atoms: C_9  and  C_10
REMARK    4  A    between atoms: C_10  and  C_11
REMARK    5  A    between atoms: C_11  and  C_12
REMARK    6  A    between atoms: C_12  and  C_13
REMARK    7  A    between atoms: C_13  and  C_14
REMARK                            x       y       z     vdW  Elec       q    Type
REMARK                         _______ _______ _______ _____ _____    ______ ____
ROOT
ATOM      1  C   UNL     1       3.291   6.192  17.896  0.00  0.00    +0.000 C 
ENDROOT
BRANCH   1   6
ATOM      2  C   UNL     1       1.095   9.974  19.328  0.00  0.00    +0.000 A 
ATOM      3  C   UNL     1       1.650   9.896  18.045  0.00  0.00    +0.000 A 
ATOM      4  N   UNL     1       2.241   8.721  17.818  0.00  0.00    +0.000 NA
ATOM      5  N   UNL     1       2.069   8.021  18.975  0.00  0.00    +0.000 N 
ATOM      6  C   UNL     1       2.568   6.713  19.120  0.00  0.00    +0.000 C 
ATOM      7  O   UNL     1       2.390   6.119  20.176  0.00  0.00    +0.000 OA
ATOM      8  C   UNL     1       1.372   8.761  19.911  0.00  0.00    +0.000 A 
BRANCH   2  10
ATOM      9  N   UNL     1      -0.169  11.962  20.387  0.00  0.00    +0.000 NA
ATOM     10  C   UNL     1       0.396  11.069  19.907  0.00  0.00    +0.000 C 
ENDBRANCH   2  10
ENDBRANCH   1   6
BRANCH   1  11
ATOM     11  C   UNL     1       4.728   5.797  18.221  0.00  0.00    +0.000 C 
BRANCH  11  12
ATOM     12  C   UNL     1       5.173   4.557  17.442  0.00  0.00    +0.000 C 
BRANCH  12  13
ATOM     13  C   UNL     1       3.950   3.773  16.961  0.00  0.00    +0.000 C 
BRANCH  13  14
ATOM     14  C   UNL     1       3.748   2.467  17.730  0.00  0.00    +0.000 C 
BRANCH  14  15
ATOM     15  C   UNL     1       2.882   2.684  18.949  0.00  0.00    +0.000 A 
ATOM     16  C   UNL     1       3.443   2.615  20.232  0.00  0.00    +0.000 A 
ATOM     17  C   UNL     1       2.641   2.755  21.366  0.00  0.00    +0.000 A 
ATOM     18  C   UNL     1       1.271   2.968  21.230  0.00  0.00    +0.000 A 
ATOM     19  C   UNL     1       0.703   3.048  19.961  0.00  0.00    +0.000 A 
ATOM     20  C   UNL     1       1.503   2.905  18.824  0.00  0.00    +0.000 A 
ENDBRANCH  14  15
ENDBRANCH  13  14
ENDBRANCH  12  13
ENDBRANCH  11  12
ENDBRANCH   1  11
TORSDOF 7
ENDMDL
MODEL 5
REMARK VINA RESULT:      -6.6      5.594      7.296
REMARK  Name = 
REMARK  7 active torsions:
REMARK  status: ('A' for Active; 'I' for Inactive)
REMARK    1  A    between atoms: C_2  and  C_3
REMARK    2  A    between atoms: C_7  and  C_9
REMARK    3  A    between atoms: C_9  and  C_10
REMARK    4  A    between atoms: C_10  and  C_11
REMARK    5  A    between atoms: C_11  and  C_12
REMARK    6  A    between atoms: C_12  and  C_13
REMARK    7  A    between atoms: C_13  and  C_14
REMARK                            x       y       z     vdW  Elec       q    Type
REMARK                         _______ _______ _______ _____ _____    ______ ____
ROOT
ATOM      1  C   UNL     1       7.253   6.026  17.057  0.00  0.00    +0.000 C 
ENDROOT
BRANCH   1   6
ATOM      2  C   UNL     1       3.718   3.338  18.264  0.00  0.00    +0.000 A 
ATOM      3  C   UNL     1       3.767   3.958  17.009  0.00  0.00    +0.000 A 
ATOM      4  N   UNL     1       4.870   4.692  16.848  0.00  0.00    +0.000 NA
ATOM      5  N   UNL     1       5.551   4.549  18.020  0.00  0.00    +0.000 N 
ATOM      6  C   UNL     1       6.787   5.191  18.231  0.00  0.00    +0.000 C 
ATOM      7  O   UNL     1       7.366   5.034  19.298  0.00  0.00    +0.000 OA
ATOM      8  C   UNL     1       4.872   3.728  18.900  0.00  0.00    +0.000 A 
BRANCH   2  10
ATOM      9  N   UNL     1       1.860   1.805  19.195  0.00  0.00    +0.000 NA
ATOM     10  C   UNL     1       2.697   2.489  18.774  0.00  0.00    +0.000 C 
ENDBRANCH   2  10
ENDBRANCH   1   6
BRANCH   1  11
ATOM     11  C   UNL     1       7.091   7.517  17.333  0.00  0.00    +0.000 C 
BRANCH  11  12
ATOM     12  C   UNL     1       8.265   8.084  18.135  0.00  0.00    +0.000 C 
BRANCH  12  13
ATOM     13  C   UNL     1       8.229   9.613  18.105  0.00  0.00    +0.000 C 
BRANCH  13  14
ATOM     14  C   UNL     1       9.238  10.245  19.065  0.00  0.00    +0.000 C 
BRANCH  14  15
ATOM     15  C   UNL     1       9.853  11.488  18.464  0.00  0.00    +0.000 A 
ATOM     16  C   UNL     1      11.217  11.511  18.137  0.00  0.00    +0.000 A 
ATOM     17  C   UNL     1      11.806  12.674  17.636  0.00  0.00    +0.000 A 
ATOM     18  C   UNL     1      11.041  13.823  17.456  0.00  0.00    +0.000 A 
ATOM     19  C   UNL     1       9.683  13.810  17.768  0.00  0.00    +0.000 A 
ATOM     20  C   UNL     1       9.091  12.649  18.272  0.00  0.00    +0.000 A 
ENDBRANCH  14  15
ENDBRANCH  13  14
ENDBRANCH  12  13
ENDBRANCH  11  12
ENDBRANCH   1  11
TORSDOF 7
ENDMDL
MODEL 6
REMARK VINA RESULT:      -6.6      3.427      6.759
REMARK  Name = 
REMARK  7 active torsions:
REMARK  status: ('A' for Active; 'I' for Inactive)
REMARK    1  A    between atoms: C_2  and  C_3
REMARK    2  A    between atoms: C_7  and  C_9
REMARK    3  A    between atoms: C_9  and  C_10
REMARK    4  A    between atoms: C_10  and  C_11
REMARK    5  A    between atoms: C_11  and  C_12
REMARK    6  A    between atoms: C_12  and  C_13
REMARK    7  A    between atoms: C_13  and  C_14
REMARK                            x       y       z     vdW  Elec       q    Type
REMARK                         _______ _______ _______ _____ _____    ______ ____
ROOT
ATOM      1  C   UNL     1       3.008   6.702  18.466  0.00  0.00    +0.000 C 
ENDROOT
BRANCH   1   6
ATOM      2  C   UNL     1       0.519   9.659  20.965  0.00  0.00    +0.000 A 
ATOM      3  C   UNL     1       1.024   8.477  21.522  0.00  0.00    +0.000 A 
ATOM      4  N   UNL     1       1.719   7.756  20.641  0.00  0.00    +0.000 NA
ATOM      5  N   UNL     1       1.666   8.480  19.487  0.00  0.00    +0.000 N 
ATOM      6  C   UNL     1       2.296   8.030  18.311  0.00  0.00    +0.000 C 
ATOM      7  O   UNL     1       2.225   8.712  17.297  0.00  0.00    +0.000 OA
ATOM      8  C   UNL     1       0.942   9.645  19.658  0.00  0.00    +0.000 A 
BRANCH   2  10
ATOM      9  N   UNL     1      -0.907  11.467  22.132  0.00  0.00    +0.000 NA
ATOM     10  C   UNL     1      -0.262  10.658  21.608  0.00  0.00    +0.000 C 
ENDBRANCH   2  10
ENDBRANCH   1   6
BRANCH   1  11
ATOM     11  C   UNL     1       4.139   6.554  17.455  0.00  0.00    +0.000 C 
BRANCH  11  12
ATOM     12  C   UNL     1       4.731   5.142  17.457  0.00  0.00    +0.000 C 
BRANCH  12  13
ATOM     13  C   UNL     1       3.705   4.143  16.919  0.00  0.00    +0.000 C 
BRANCH  13  14
ATOM     14  C   UNL     1       3.711   2.820  17.687  0.00  0.00    +0.000 C 
BRANCH  14  15
ATOM     15  C   UNL     1       2.867   2.915  18.937  0.00  0.00    +0.000 A 
ATOM     16  C   UNL     1       3.446   2.697  20.195  0.00  0.00    +0.000 A 
ATOM     17  C   UNL     1       2.662   2.724  21.351  0.00  0.00    +0.000 A 
ATOM     18  C   UNL     1       1.295   2.970  21.261  0.00  0.00    +0.000 A 
ATOM     19  C   UNL     1       0.709   3.196  20.017  0.00  0.00    +0.000 A 
ATOM     20  C   UNL     1       1.490   3.167  18.859  0.00  0.00    +0.000 A 
ENDBRANCH  14  15
ENDBRANCH  13  14
ENDBRANCH  12  13
ENDBRANCH  11  12
ENDBRANCH   1  11
TORSDOF 7
ENDMDL
MODEL 7
REMARK VINA RESULT:      -6.6      2.653      4.652
REMARK  Name = 
REMARK  7 active torsions:
REMARK  status: ('A' for Active; 'I' for Inactive)
REMARK    1  A    between atoms: C_2  and  C_3
REMARK    2  A    between atoms: C_7  and  C_9
REMARK    3  A    between atoms: C_9  and  C_10
REMARK    4  A    between atoms: C_10  and  C_11
REMARK    5  A    between atoms: C_11  and  C_12
REMARK    6  A    between atoms: C_12  and  C_13
REMARK    7  A    between atoms: C_13  and  C_14
REMARK                            x       y       z     vdW  Elec       q    Type
REMARK                         _______ _______ _______ _____ _____    ______ ____
ROOT
ATOM      1  C   UNL     1       6.920   6.046  17.964  0.00  0.00    +0.000 C 
ENDROOT
BRANCH   1   6
ATOM      2  C   UNL     1       5.913   4.107  13.914  0.00  0.00    +0.000 A 
ATOM      3  C   UNL     1       5.224   5.236  14.373  0.00  0.00    +0.000 A 
ATOM      4  N   UNL     1       5.661   5.650  15.563  0.00  0.00    +0.000 NA
ATOM      5  N   UNL     1       6.654   4.773  15.888  0.00  0.00    +0.000 N 
ATOM      6  C   UNL     1       7.365   4.888  17.097  0.00  0.00    +0.000 C 
ATOM      7  O   UNL     1       8.251   4.081  17.348  0.00  0.00    +0.000 OA
ATOM      8  C   UNL     1       6.829   3.824  14.898  0.00  0.00    +0.000 A 
BRANCH   2  10
ATOM      9  N   UNL     1       5.552   2.837  11.695  0.00  0.00    +0.000 NA
ATOM     10  C   UNL     1       5.713   3.403  12.695  0.00  0.00    +0.000 C 
ENDBRANCH   2  10
ENDBRANCH   1   6
BRANCH   1  11
ATOM     11  C   UNL     1       6.443   5.570  19.331  0.00  0.00    +0.000 C 
BRANCH  11  12
ATOM     12  C   UNL     1       4.932   5.328  19.362  0.00  0.00    +0.000 C 
BRANCH  12  13
ATOM     13  C   UNL     1       4.232   6.259  18.369  0.00  0.00    +0.000 C 
BRANCH  13  14
ATOM     14  C   UNL     1       2.763   6.499  18.722  0.00  0.00    +0.000 C 
BRANCH  14  15
ATOM     15  C   UNL     1       2.068   5.200  19.059  0.00  0.00    +0.000 A 
ATOM     16  C   UNL     1       1.726   4.910  20.388  0.00  0.00    +0.000 A 
ATOM     17  C   UNL     1       1.136   3.688  20.718  0.00  0.00    +0.000 A 
ATOM     18  C   UNL     1       0.881   2.745  19.725  0.00  0.00    +0.000 A 
ATOM     19  C   UNL     1       1.208   3.026  18.400  0.00  0.00    +0.000 A 
ATOM     20  C   UNL     1       1.800   4.247  18.067  0.00  0.00    +0.000 A 
ENDBRANCH  14  15
ENDBRANCH  13  14
ENDBRANCH  12  13
ENDBRANCH  11  12
ENDBRANCH   1  11
TORSDOF 7
ENDMDL
MODEL 8
REMARK VINA RESULT:      -6.6      3.598      6.900
REMARK  Name = 
REMARK  7 active torsions:
REMARK  status: ('A' for Active; 'I' for Inactive)
REMARK    1  A    between atoms: C_2  and  C_3
REMARK    2  A    between atoms: C_7  and  C_9
REMARK    3  A    between atoms: C_9  and  C_10
REMARK    4  A    between atoms: C_10  and  C_11
REMARK    5  A    between atoms: C_11  and  C_12
REMARK    6  A    between atoms: C_12  and  C_13
REMARK    7  A    between atoms: C_13  and  C_14
REMARK                            x       y       z     vdW  Elec       q    Type
REMARK                         _______ _______ _______ _____ _____    ______ ____
ROOT
ATOM      1  C   UNL     1       2.635   7.225  18.184  0.00  0.00    +0.000 C 
ENDROOT
BRANCH   1   6
ATOM      2  C   UNL     1       0.528   9.783  21.376  0.00  0.00    +0.000 A 
ATOM      3  C   UNL     1       1.014   8.504  21.672  0.00  0.00    +0.000 A 
ATOM      4  N   UNL     1       1.593   7.924  20.619  0.00  0.00    +0.000 NA
ATOM      5  N   UNL     1       1.481   8.842  19.617  0.00  0.00    +0.000 N 
ATOM      6  C   UNL     1       1.985   8.584  18.329  0.00  0.00    +0.000 C 
ATOM      7  O   UNL     1       1.865   9.438  17.459  0.00  0.00    +0.000 OA
ATOM      8  C   UNL     1       0.838   9.985  20.053  0.00  0.00    +0.000 A 
BRANCH   2  10
ATOM      9  N   UNL     1      -0.688  11.407  22.974  0.00  0.00    +0.000 NA
ATOM     10  C   UNL     1      -0.142  10.682  22.252  0.00  0.00    +0.000 C 
ENDBRANCH   2  10
ENDBRANCH   1   6
BRANCH   1  11
ATOM     11  C   UNL     1       3.885   7.292  17.313  0.00  0.00    +0.000 C 
BRANCH  11  12
ATOM     12  C   UNL     1       4.878   6.176  17.646  0.00  0.00    +0.000 C 
BRANCH  12  13
ATOM     13  C   UNL     1       4.801   5.074  16.588  0.00  0.00    +0.000 C 
BRANCH  13  14
ATOM     14  C   UNL     1       4.667   3.678  17.199  0.00  0.00    +0.000 C 
BRANCH  14  15
ATOM     15  C   UNL     1       3.473   3.603  18.122  0.00  0.00    +0.000 A 
ATOM     16  C   UNL     1       3.659   3.509  19.508  0.00  0.00    +0.000 A 
ATOM     17  C   UNL     1       2.563   3.380  20.364  0.00  0.00    +0.000 A 
ATOM     18  C   UNL     1       1.272   3.344  19.845  0.00  0.00    +0.000 A 
ATOM     19  C   UNL     1       1.073   3.445  18.470  0.00  0.00    +0.000 A 
ATOM     20  C   UNL     1       2.168   3.572  17.610  0.00  0.00    +0.000 A 
ENDBRANCH  14  15
ENDBRANCH  13  14
ENDBRANCH  12  13
ENDBRANCH  11  12
ENDBRANCH   1  11
TORSDOF 7
ENDMDL
MODEL 9
REMARK VINA RESULT:      -6.6      0.624      1.239
REMARK  Name = 
REMARK  7 active torsions:
REMARK  status: ('A' for Active; 'I' for Inactive)
REMARK    1  A    between atoms: C_2  and  C_3
REMARK    2  A    between atoms: C_7  and  C_9
REMARK    3  A    between atoms: C_9  and  C_10
REMARK    4  A    between atoms: C_10  and  C_11
REMARK    5  A    between atoms: C_11  and  C_12
REMARK    6  A    between atoms: C_12  and  C_13
REMARK    7  A    between atoms: C_13  and  C_14
REMARK                            x       y       z     vdW  Elec       q    Type
REMARK                         _______ _______ _______ _____ _____    ______ ____
ROOT
ATOM      1  C   UNL     1       3.403   2.818  20.171  0.00  0.00    +0.000 C 
ENDROOT
BRANCH   1   6
ATOM      2  C   UNL     1       6.130   4.487  16.861  0.00  0.00    +0.000 A 
ATOM      3  C   UNL     1       6.424   4.684  18.216  0.00  0.00    +0.000 A 
ATOM      4  N   UNL     1       5.518   4.124  19.020  0.00  0.00    +0.000 NA
ATOM      5  N   UNL     1       4.615   3.552  18.172  0.00  0.00    +0.000 N 
ATOM      6  C   UNL     1       3.493   2.855  18.660  0.00  0.00    +0.000 C 
ATOM      7  O   UNL     1       2.709   2.355  17.864  0.00  0.00    +0.000 OA
ATOM      8  C   UNL     1       4.966   3.757  16.852  0.00  0.00    +0.000 A 
BRANCH   2  10
ATOM      9  N   UNL     1       7.472   5.323  14.819  0.00  0.00    +0.000 NA
ATOM     10  C   UNL     1       6.872   4.943  15.737  0.00  0.00    +0.000 C 
ENDBRANCH   2  10
ENDBRANCH   1   6
BRANCH   1  11
ATOM     11  C   UNL     1       1.956   2.892  20.646  0.00  0.00    +0.000 C 
BRANCH  11  12
ATOM     12  C   UNL     1       1.301   4.227  20.287  0.00  0.00    +0.000 C 
BRANCH  12  13
ATOM     13  C   UNL     1       2.325   5.359  20.390  0.00  0.00    +0.000 C 
BRANCH  13  14
ATOM     14  C   UNL     1       1.723   6.650  20.947  0.00  0.00    +0.000 C 
BRANCH  14  15
ATOM     15  C   UNL     1       1.754   7.752  19.913  0.00  0.00    +0.000 A 
ATOM     16  C   UNL     1       1.103   8.969  20.161  0.00  0.00    +0.000 A 
ATOM     17  C   UNL     1       1.075   9.970  19.189  0.00  0.00    +0.000 A 
ATOM     18  C   UNL     1       1.699   9.768  17.960  0.00  0.00    +0.000 A 
ATOM     19  C   UNL     1       2.357   8.567  17.705  0.00  0.00    +0.000 A 
ATOM     20  C   UNL     1       2.384   7.561  18.675  0.00  0.00    +0.000 A 
ENDBRANCH  14  15
ENDBRANCH  13  14
ENDBRANCH  12  13
ENDBRANCH  11  12
ENDBRANCH   1  11
TORSDOF 7
ENDMDL
