MODEL 1
REMARK VINA RESULT:      -8.4      0.000      0.000
REMARK  Name = 
REMARK  7 active torsions:
REMARK  status: ('A' for Active; 'I' for Inactive)
REMARK    1  A    between atoms: C_1  and  O_2
REMARK    2  A    between atoms: O_2  and  C_3
REMARK    3  A    between atoms: N_18  and  C_19
REMARK    4  A    between atoms: C_19  and  C_20
REMARK    5  A    between atoms: C_20  and  N_21
REMARK    6  A    between atoms: N_21  and  C_22
REMARK    7  A    between atoms: N_21  and  C_23
REMARK                            x       y       z     vdW  Elec       q    Type
REMARK                         _______ _______ _______ _____ _____    ______ ____
ROOT
ATOM      1  C   UNL     1       0.169   8.845  21.295  0.00  0.00    +0.000 A 
ATOM      2  C   UNL     1      -0.070   9.909  20.447  0.00  0.00    +0.000 A 
ATOM      3  C   UNL     1       0.617   9.972  19.251  0.00  0.00    +0.000 A 
ATOM      4  C   UNL     1       1.533   8.980  18.879  0.00  0.00    +0.000 A 
ATOM      5  C   UNL     1       2.160   9.216  17.675  0.00  0.00    +0.000 A 
ATOM      6  C   UNL     1       3.090   8.328  17.184  0.00  0.00    +0.000 A 
ATOM      7  C   UNL     1       3.412   7.137  17.849  0.00  0.00    +0.000 A 
ATOM      8  C   UNL     1       4.389   6.222  17.211  0.00  0.00    +0.000 A 
ATOM      9  C   UNL     1       5.094   6.529  16.020  0.00  0.00    +0.000 A 
ATOM     10  C   UNL     1       6.011   5.648  15.438  0.00  0.00    +0.000 A 
ATOM     11  C   UNL     1       6.259   4.427  16.037  0.00  0.00    +0.000 A 
ATOM     12  C   UNL     1       5.585   4.098  17.213  0.00  0.00    +0.000 A 
ATOM     13  C   UNL     1       4.657   4.990  17.791  0.00  0.00    +0.000 A 
ATOM     14  C   UNL     1       3.947   4.597  19.020  0.00  0.00    +0.000 A 
ATOM     15  O   UNL     1       4.148   3.453  19.434  0.00  0.00    +0.000 OA
ATOM     16  N   UNL     1       3.079   5.515  19.661  0.00  0.00    +0.000 N 
ATOM     17  C   UNL     1       2.764   6.827  19.093  0.00  0.00    +0.000 A 
ATOM     18  C   UNL     1       1.820   7.823  19.667  0.00  0.00    +0.000 A 
ATOM     19  C   UNL     1       1.105   7.851  20.921  0.00  0.00    +0.000 A 
ENDROOT
BRANCH   1  21
ATOM     20  C   UNL     1      -0.283   9.729  23.458  0.00  0.00    +0.000 C 
ATOM     21  O   UNL     1      -0.453   8.676  22.506  0.00  0.00    +0.000 OA
ENDBRANCH   1  21
BRANCH  16  22
ATOM     22  C   UNL     1       2.444   4.968  20.870  0.00  0.00    +0.000 C 
BRANCH  22  23
ATOM     23  C   UNL     1       1.042   4.369  20.608  0.00  0.00    +0.000 C 
BRANCH  23  24
ATOM     24  N   UNL     1       0.931   2.903  20.808  0.00  0.00    +0.000 NA
ATOM     25  C   UNL     1       1.072   2.228  19.511  0.00  0.00    +0.000 C 
ATOM     26  C   UNL     1       1.972   2.400  21.714  0.00  0.00    +0.000 C 
ENDBRANCH  23  24
ENDBRANCH  22  23
ENDBRANCH  16  22
TORSDOF 4
ENDMDL
MODEL 2
REMARK VINA RESULT:      -6.6      3.674      6.800
REMARK  Name = 
REMARK  7 active torsions:
REMARK  status: ('A' for Active; 'I' for Inactive)
REMARK    1  A    between atoms: C_1  and  O_2
REMARK    2  A    between atoms: O_2  and  C_3
REMARK    3  A    between atoms: N_18  and  C_19
REMARK    4  A    between atoms: C_19  and  C_20
REMARK    5  A    between atoms: C_20  and  N_21
REMARK    6  A    between atoms: N_21  and  C_22
REMARK    7  A    between atoms: N_21  and  C_23
REMARK                            x       y       z     vdW  Elec       q    Type
REMARK                         _______ _______ _______ _____ _____    ______ ____
ROOT
ATOM      1  C   UNL     1      -1.709  13.688  21.701  0.00  0.00    +0.000 A 
ATOM      2  C   UNL     1      -2.001  13.262  22.982  0.00  0.00    +0.000 A 
ATOM      3  C   UNL     1      -1.603  11.998  23.368  0.00  0.00    +0.000 A 
ATOM      4  C   UNL     1      -0.905  11.151  22.498  0.00  0.00    +0.000 A 
ATOM      5  C   UNL     1      -0.618   9.912  23.026  0.00  0.00    +0.000 A 
ATOM      6  C   UNL     1       0.061   8.974  22.283  0.00  0.00    +0.000 A 
ATOM      7  C   UNL     1       0.527   9.238  20.988  0.00  0.00    +0.000 A 
ATOM      8  C   UNL     1       1.293   8.178  20.290  0.00  0.00    +0.000 A 
ATOM      9  C   UNL     1       1.493   6.876  20.814  0.00  0.00    +0.000 A 
ATOM     10  C   UNL     1       2.220   5.893  20.135  0.00  0.00    +0.000 A 
ATOM     11  C   UNL     1       2.768   6.181  18.899  0.00  0.00    +0.000 A 
ATOM     12  C   UNL     1       2.585   7.452  18.355  0.00  0.00    +0.000 A 
ATOM     13  C   UNL     1       1.854   8.440  19.048  0.00  0.00    +0.000 A 
ATOM     14  C   UNL     1       1.703   9.777  18.451  0.00  0.00    +0.000 A 
ATOM     15  O   UNL     1       2.306   9.985  17.396  0.00  0.00    +0.000 OA
ATOM     16  N   UNL     1       0.899  10.752  19.092  0.00  0.00    +0.000 N 
ATOM     17  C   UNL     1       0.283  10.527  20.401  0.00  0.00    +0.000 A 
ATOM     18  C   UNL     1      -0.521  11.514  21.170  0.00  0.00    +0.000 A 
ATOM     19  C   UNL     1      -1.014  12.825  20.819  0.00  0.00    +0.000 A 
ENDROOT
BRANCH   1  21
ATOM     20  C   UNL     1      -1.200  15.458  20.194  0.00  0.00    +0.000 C 
ATOM     21  O   UNL     1      -2.053  14.921  21.207  0.00  0.00    +0.000 OA
ENDBRANCH   1  21
BRANCH  16  22
ATOM     22  C   UNL     1       0.855  12.034  18.373  0.00  0.00    +0.000 C 
BRANCH  22  23
ATOM     23  C   UNL     1       2.134  12.885  18.557  0.00  0.00    +0.000 C 
BRANCH  23  24
ATOM     24  N   UNL     1       2.007  14.029  19.493  0.00  0.00    +0.000 NA
ATOM     25  C   UNL     1       2.695  13.704  20.748  0.00  0.00    +0.000 C 
ATOM     26  C   UNL     1       2.599  15.253  18.935  0.00  0.00    +0.000 C 
ENDBRANCH  23  24
ENDBRANCH  22  23
ENDBRANCH  16  22
TORSDOF 4
ENDMDL
MODEL 3
REMARK VINA RESULT:      -6.5      4.275      9.358
REMARK  Name = 
REMARK  7 active torsions:
REMARK  status: ('A' for Active; 'I' for Inactive)
REMARK    1  A    between atoms: C_1  and  O_2
REMARK    2  A    between atoms: O_2  and  C_3
REMARK    3  A    between atoms: N_18  and  C_19
REMARK    4  A    between atoms: C_19  and  C_20
REMARK    5  A    between atoms: C_20  and  N_21
REMARK    6  A    between atoms: N_21  and  C_22
REMARK    7  A    between atoms: N_21  and  C_23
REMARK                            x       y       z     vdW  Elec       q    Type
REMARK                         _______ _______ _______ _____ _____    ______ ____
ROOT
ATOM      1  C   UNL     1       1.548   8.730  19.140  0.00  0.00    +0.000 A 
ATOM      2  C   UNL     1       1.881   7.930  20.215  0.00  0.00    +0.000 A 
ATOM      3  C   UNL     1       1.303   8.189  21.441  0.00  0.00    +0.000 A 
ATOM      4  C   UNL     1       0.384   9.233  21.612  0.00  0.00    +0.000 A 
ATOM      5  C   UNL     1      -0.067   9.380  22.905  0.00  0.00    +0.000 A 
ATOM      6  C   UNL     1      -0.971  10.368  23.223  0.00  0.00    +0.000 A 
ATOM      7  C   UNL     1      -1.505  11.233  22.258  0.00  0.00    +0.000 A 
ATOM      8  C   UNL     1      -2.511  12.231  22.694  0.00  0.00    +0.000 A 
ATOM      9  C   UNL     1      -2.889  12.431  24.046  0.00  0.00    +0.000 A 
ATOM     10  C   UNL     1      -3.841  13.378  24.431  0.00  0.00    +0.000 A 
ATOM     11  C   UNL     1      -4.446  14.168  23.471  0.00  0.00    +0.000 A 
ATOM     12  C   UNL     1      -4.092  13.999  22.133  0.00  0.00    +0.000 A 
ATOM     13  C   UNL     1      -3.133  13.037  21.751  0.00  0.00    +0.000 A 
ATOM     14  C   UNL     1      -2.804  12.872  20.325  0.00  0.00    +0.000 A 
ATOM     15  O   UNL     1      -3.459  13.541  19.524  0.00  0.00    +0.000 OA
ATOM     16  N   UNL     1      -1.781  11.973  19.934  0.00  0.00    +0.000 N 
ATOM     17  C   UNL     1      -1.093  11.102  20.888  0.00  0.00    +0.000 A 
ATOM     18  C   UNL     1      -0.055  10.090  20.556  0.00  0.00    +0.000 A 
ATOM     19  C   UNL     1       0.628   9.792  19.318  0.00  0.00    +0.000 A 
ENDROOT
BRANCH   1  21
ATOM     20  C   UNL     1       3.150   7.655  17.746  0.00  0.00    +0.000 C 
ATOM     21  O   UNL     1       2.057   8.567  17.876  0.00  0.00    +0.000 OA
ENDBRANCH   1  21
BRANCH  16  22
ATOM     22  C   UNL     1      -1.579  11.920  18.478  0.00  0.00    +0.000 C 
BRANCH  22  23
ATOM     23  C   UNL     1      -2.483  10.883  17.771  0.00  0.00    +0.000 C 
BRANCH  23  24
ATOM     24  N   UNL     1      -3.164  11.368  16.544  0.00  0.00    +0.000 NA
ATOM     25  C   UNL     1      -2.858  10.459  15.432  0.00  0.00    +0.000 C 
ATOM     26  C   UNL     1      -4.622  11.421  16.720  0.00  0.00    +0.000 C 
ENDBRANCH  23  24
ENDBRANCH  22  23
ENDBRANCH  16  22
TORSDOF 4
ENDMDL
MODEL 4
REMARK VINA RESULT:      -6.5      3.682      6.618
REMARK  Name = 
REMARK  7 active torsions:
REMARK  status: ('A' for Active; 'I' for Inactive)
REMARK    1  A    between atoms: C_1  and  O_2
REMARK    2  A    between atoms: O_2  and  C_3
REMARK    3  A    between atoms: N_18  and  C_19
REMARK    4  A    between atoms: C_19  and  C_20
REMARK    5  A    between atoms: C_20  and  N_21
REMARK    6  A    between atoms: N_21  and  C_22
REMARK    7  A    between atoms: N_21  and  C_23
REMARK                            x       y       z     vdW  Elec       q    Type
REMARK                         _______ _______ _______ _____ _____    ______ ____
ROOT
ATOM      1  C   UNL     1      -2.416  13.642  21.926  0.00  0.00    +0.000 A 
ATOM      2  C   UNL     1      -2.583  13.208  23.227  0.00  0.00    +0.000 A 
ATOM      3  C   UNL     1      -2.020  12.005  23.604  0.00  0.00    +0.000 A 
ATOM      4  C   UNL     1      -1.279  11.229  22.704  0.00  0.00    +0.000 A 
ATOM      5  C   UNL     1      -0.822  10.041  23.229  0.00  0.00    +0.000 A 
ATOM      6  C   UNL     1      -0.082   9.173  22.459  0.00  0.00    +0.000 A 
ATOM      7  C   UNL     1       0.277   9.466  21.136  0.00  0.00    +0.000 A 
ATOM      8  C   UNL     1       1.119   8.488  20.407  0.00  0.00    +0.000 A 
ATOM      9  C   UNL     1       1.497   7.227  20.933  0.00  0.00    +0.000 A 
ATOM     10  C   UNL     1       2.294   6.322  20.225  0.00  0.00    +0.000 A 
ATOM     11  C   UNL     1       2.734   6.648  18.956  0.00  0.00    +0.000 A 
ATOM     12  C   UNL     1       2.374   7.879  18.408  0.00  0.00    +0.000 A 
ATOM     13  C   UNL     1       1.574   8.789  19.131  0.00  0.00    +0.000 A 
ATOM     14  C   UNL     1       1.236  10.089  18.528  0.00  0.00    +0.000 A 
ATOM     15  O   UNL     1       1.750  10.345  17.437  0.00  0.00    +0.000 OA
ATOM     16  N   UNL     1       0.362  10.977  19.203  0.00  0.00    +0.000 N 
ATOM     17  C   UNL     1      -0.148  10.707  20.549  0.00  0.00    +0.000 A 
ATOM     18  C   UNL     1      -1.016  11.609  21.352  0.00  0.00    +0.000 A 
ATOM     19  C   UNL     1      -1.676  12.849  21.015  0.00  0.00    +0.000 A 
ENDROOT
BRANCH   1  21
ATOM     20  C   UNL     1      -3.957  15.432  22.217  0.00  0.00    +0.000 C 
ATOM     21  O   UNL     1      -2.927  14.818  21.439  0.00  0.00    +0.000 OA
ENDBRANCH   1  21
BRANCH  16  22
ATOM     22  C   UNL     1       0.130  12.232  18.473  0.00  0.00    +0.000 C 
BRANCH  22  23
ATOM     23  C   UNL     1      -1.204  12.248  17.689  0.00  0.00    +0.000 C 
BRANCH  23  24
ATOM     24  N   UNL     1      -2.078  11.068  17.900  0.00  0.00    +0.000 NA
ATOM     25  C   UNL     1      -3.453  11.523  18.144  0.00  0.00    +0.000 C 
ATOM     26  C   UNL     1      -2.079  10.180  16.729  0.00  0.00    +0.000 C 
ENDBRANCH  23  24
ENDBRANCH  22  23
ENDBRANCH  16  22
TORSDOF 4
ENDMDL
MODEL 5
REMARK VINA RESULT:      -6.2      7.684      9.515
REMARK  Name = 
REMARK  7 active torsions:
REMARK  status: ('A' for Active; 'I' for Inactive)
REMARK    1  A    between atoms: C_1  and  O_2
REMARK    2  A    between atoms: O_2  and  C_3
REMARK    3  A    between atoms: N_18  and  C_19
REMARK    4  A    between atoms: C_19  and  C_20
REMARK    5  A    between atoms: C_20  and  N_21
REMARK    6  A    between atoms: N_21  and  C_22
REMARK    7  A    between atoms: N_21  and  C_23
REMARK                            x       y       z     vdW  Elec       q    Type
REMARK                         _______ _______ _______ _____ _____    ______ ____
ROOT
ATOM      1  C   UNL     1      -3.335  14.009  23.453  0.00  0.00    +0.000 A 
ATOM      2  C   UNL     1      -2.020  13.726  23.764  0.00  0.00    +0.000 A 
ATOM      3  C   UNL     1      -1.261  13.009  22.861  0.00  0.00    +0.000 A 
ATOM      4  C   UNL     1      -1.793  12.577  21.639  0.00  0.00    +0.000 A 
ATOM      5  C   UNL     1      -0.916  11.842  20.872  0.00  0.00    +0.000 A 
ATOM      6  C   UNL     1      -1.302  11.348  19.647  0.00  0.00    +0.000 A 
ATOM      7  C   UNL     1      -2.570  11.598  19.104  0.00  0.00    +0.000 A 
ATOM      8  C   UNL     1      -2.871  11.063  17.754  0.00  0.00    +0.000 A 
ATOM      9  C   UNL     1      -1.989  10.227  17.024  0.00  0.00    +0.000 A 
ATOM     10  C   UNL     1      -2.297   9.736  15.751  0.00  0.00    +0.000 A 
ATOM     11  C   UNL     1      -3.507  10.061  15.168  0.00  0.00    +0.000 A 
ATOM     12  C   UNL     1      -4.397  10.878  15.863  0.00  0.00    +0.000 A 
ATOM     13  C   UNL     1      -4.078  11.374  17.145  0.00  0.00    +0.000 A 
ATOM     14  C   UNL     1      -5.035  12.254  17.837  0.00  0.00    +0.000 A 
ATOM     15  O   UNL     1      -6.044  12.579  17.209  0.00  0.00    +0.000 OA
ATOM     16  N   UNL     1      -4.768  12.688  19.160  0.00  0.00    +0.000 N 
ATOM     17  C   UNL     1      -3.513  12.387  19.848  0.00  0.00    +0.000 A 
ATOM     18  C   UNL     1      -3.127  12.853  21.207  0.00  0.00    +0.000 A 
ATOM     19  C   UNL     1      -3.873  13.560  22.222  0.00  0.00    +0.000 A 
ENDROOT
BRANCH   1  21
ATOM     20  C   UNL     1      -5.548  14.784  23.857  0.00  0.00    +0.000 C 
ATOM     21  O   UNL     1      -4.182  14.712  24.271  0.00  0.00    +0.000 OA
ENDBRANCH   1  21
BRANCH  16  22
ATOM     22  C   UNL     1      -5.816  13.563  19.707  0.00  0.00    +0.000 C 
BRANCH  22  23
ATOM     23  C   UNL     1      -7.105  12.804  20.102  0.00  0.00    +0.000 C 
BRANCH  23  24
ATOM     24  N   UNL     1      -6.917  11.696  21.071  0.00  0.00    +0.000 NA
ATOM     25  C   UNL     1      -7.794  11.914  22.229  0.00  0.00    +0.000 C 
ATOM     26  C   UNL     1      -7.244  10.394  20.473  0.00  0.00    +0.000 C 
ENDBRANCH  23  24
ENDBRANCH  22  23
ENDBRANCH  16  22
TORSDOF 4
ENDMDL
MODEL 6
REMARK VINA RESULT:      -6.2      6.655      8.775
REMARK  Name = 
REMARK  7 active torsions:
REMARK  status: ('A' for Active; 'I' for Inactive)
REMARK    1  A    between atoms: C_1  and  O_2
REMARK    2  A    between atoms: O_2  and  C_3
REMARK    3  A    between atoms: N_18  and  C_19
REMARK    4  A    between atoms: C_19  and  C_20
REMARK    5  A    between atoms: C_20  and  N_21
REMARK    6  A    between atoms: N_21  and  C_22
REMARK    7  A    between atoms: N_21  and  C_23
REMARK                            x       y       z     vdW  Elec       q    Type
REMARK                         _______ _______ _______ _____ _____    ______ ____
ROOT
ATOM      1  C   UNL     1      -1.810  14.611  23.962  0.00  0.00    +0.000 A 
ATOM      2  C   UNL     1      -3.120  15.026  24.101  0.00  0.00    +0.000 A 
ATOM      3  C   UNL     1      -4.036  14.670  23.133  0.00  0.00    +0.000 A 
ATOM      4  C   UNL     1      -3.669  13.893  22.027  0.00  0.00    +0.000 A 
ATOM      5  C   UNL     1      -4.693  13.661  21.136  0.00  0.00    +0.000 A 
ATOM      6  C   UNL     1      -4.478  12.916  19.999  0.00  0.00    +0.000 A 
ATOM      7  C   UNL     1      -3.239  12.326  19.714  0.00  0.00    +0.000 A 
ATOM      8  C   UNL     1      -3.123  11.499  18.489  0.00  0.00    +0.000 A 
ATOM      9  C   UNL     1      -4.163  11.354  17.535  0.00  0.00    +0.000 A 
ATOM     10  C   UNL     1      -4.028  10.567  16.388  0.00  0.00    +0.000 A 
ATOM     11  C   UNL     1      -2.840   9.901  16.151  0.00  0.00    +0.000 A 
ATOM     12  C   UNL     1      -1.797  10.028  17.068  0.00  0.00    +0.000 A 
ATOM     13  C   UNL     1      -1.942  10.820  18.227  0.00  0.00    +0.000 A 
ATOM     14  C   UNL     1      -0.826  10.909  19.184  0.00  0.00    +0.000 A 
ATOM     15  O   UNL     1       0.160  10.207  18.953  0.00  0.00    +0.000 OA
ATOM     16  N   UNL     1      -0.923  11.770  20.306  0.00  0.00    +0.000 N 
ATOM     17  C   UNL     1      -2.144  12.509  20.627  0.00  0.00    +0.000 A 
ATOM     18  C   UNL     1      -2.351  13.382  21.814  0.00  0.00    +0.000 A 
ATOM     19  C   UNL     1      -1.439  13.835  22.837  0.00  0.00    +0.000 A 
ENDROOT
BRANCH   1  21
ATOM     20  C   UNL     1      -1.193  15.684  25.995  0.00  0.00    +0.000 C 
ATOM     21  O   UNL     1      -0.814  14.902  24.860  0.00  0.00    +0.000 OA
ENDBRANCH   1  21
BRANCH  16  22
ATOM     22  C   UNL     1       0.270  11.740  21.165  0.00  0.00    +0.000 C 
BRANCH  22  23
ATOM     23  C   UNL     1       1.265  12.888  20.873  0.00  0.00    +0.000 C 
BRANCH  23  24
ATOM     24  N   UNL     1       1.208  13.443  19.498  0.00  0.00    +0.000 NA
ATOM     25  C   UNL     1       1.032  14.899  19.572  0.00  0.00    +0.000 C 
ATOM     26  C   UNL     1       2.439  13.156  18.748  0.00  0.00    +0.000 C 
ENDBRANCH  23  24
ENDBRANCH  22  23
ENDBRANCH  16  22
TORSDOF 4
ENDMDL
MODEL 7
REMARK VINA RESULT:      -6.2      2.160      4.878
REMARK  Name = 
REMARK  7 active torsions:
REMARK  status: ('A' for Active; 'I' for Inactive)
REMARK    1  A    between atoms: C_1  and  O_2
REMARK    2  A    between atoms: O_2  and  C_3
REMARK    3  A    between atoms: N_18  and  C_19
REMARK    4  A    between atoms: C_19  and  C_20
REMARK    5  A    between atoms: C_20  and  N_21
REMARK    6  A    between atoms: N_21  and  C_22
REMARK    7  A    between atoms: N_21  and  C_23
REMARK                            x       y       z     vdW  Elec       q    Type
REMARK                         _______ _______ _______ _____ _____    ______ ____
ROOT
ATOM      1  C   UNL     1       1.947  10.925  18.473  0.00  0.00    +0.000 A 
ATOM      2  C   UNL     1       1.290  11.293  19.631  0.00  0.00    +0.000 A 
ATOM      3  C   UNL     1       0.928  10.312  20.531  0.00  0.00    +0.000 A 
ATOM      4  C   UNL     1       1.223   8.962  20.301  0.00  0.00    +0.000 A 
ATOM      5  C   UNL     1       0.758   8.110  21.278  0.00  0.00    +0.000 A 
ATOM      6  C   UNL     1       0.971   6.753  21.183  0.00  0.00    +0.000 A 
ATOM      7  C   UNL     1       1.696   6.181  20.130  0.00  0.00    +0.000 A 
ATOM      8  C   UNL     1       1.913   4.714  20.146  0.00  0.00    +0.000 A 
ATOM      9  C   UNL     1       1.343   3.844  21.109  0.00  0.00    +0.000 A 
ATOM     10  C   UNL     1       1.565   2.463  21.102  0.00  0.00    +0.000 A 
ATOM     11  C   UNL     1       2.362   1.904  20.121  0.00  0.00    +0.000 A 
ATOM     12  C   UNL     1       2.933   2.734  19.156  0.00  0.00    +0.000 A 
ATOM     13  C   UNL     1       2.709   4.127  19.172  0.00  0.00    +0.000 A 
ATOM     14  C   UNL     1       3.349   4.972  18.151  0.00  0.00    +0.000 A 
ATOM     15  O   UNL     1       4.125   4.412  17.374  0.00  0.00    +0.000 OA
ATOM     16  N   UNL     1       3.064   6.359  18.100  0.00  0.00    +0.000 N 
ATOM     17  C   UNL     1       2.231   7.028  19.100  0.00  0.00    +0.000 A 
ATOM     18  C   UNL     1       1.933   8.485  19.156  0.00  0.00    +0.000 A 
ATOM     19  C   UNL     1       2.232   9.558  18.238  0.00  0.00    +0.000 A 
ENDROOT
BRANCH   1  21
ATOM     20  C   UNL     1       2.786  13.094  17.967  0.00  0.00    +0.000 C 
ATOM     21  O   UNL     1       2.355  11.810  17.508  0.00  0.00    +0.000 OA
ENDBRANCH   1  21
BRANCH  16  22
ATOM     22  C   UNL     1       3.786   7.062  17.028  0.00  0.00    +0.000 C 
BRANCH  22  23
ATOM     23  C   UNL     1       5.274   7.323  17.359  0.00  0.00    +0.000 C 
BRANCH  23  24
ATOM     24  N   UNL     1       6.244   6.833  16.348  0.00  0.00    +0.000 NA
ATOM     25  C   UNL     1       7.204   5.932  16.999  0.00  0.00    +0.000 C 
ATOM     26  C   UNL     1       5.574   6.102  15.265  0.00  0.00    +0.000 C 
ENDBRANCH  23  24
ENDBRANCH  22  23
ENDBRANCH  16  22
TORSDOF 4
ENDMDL
MODEL 8
REMARK VINA RESULT:      -6.2      5.255      9.815
REMARK  Name = 
REMARK  7 active torsions:
REMARK  status: ('A' for Active; 'I' for Inactive)
REMARK    1  A    between atoms: C_1  and  O_2
REMARK    2  A    between atoms: O_2  and  C_3
REMARK    3  A    between atoms: N_18  and  C_19
REMARK    4  A    between atoms: C_19  and  C_20
REMARK    5  A    between atoms: C_20  and  N_21
REMARK    6  A    between atoms: N_21  and  C_22
REMARK    7  A    between atoms: N_21  and  C_23
REMARK                            x       y       z     vdW  Elec       q    Type
REMARK                         _______ _______ _______ _____ _____    ______ ____
ROOT
ATOM      1  C   UNL     1      -3.119  11.040  16.881  0.00  0.00    +0.000 A 
ATOM      2  C   UNL     1      -4.498  11.109  16.833  0.00  0.00    +0.000 A 
ATOM      3  C   UNL     1      -5.175  11.644  17.910  0.00  0.00    +0.000 A 
ATOM      4  C   UNL     1      -4.495  12.126  19.036  0.00  0.00    +0.000 A 
ATOM      5  C   UNL     1      -5.321  12.590  20.036  0.00  0.00    +0.000 A 
ATOM      6  C   UNL     1      -4.793  13.091  21.204  0.00  0.00    +0.000 A 
ATOM      7  C   UNL     1      -3.412  13.194  21.418  0.00  0.00    +0.000 A 
ATOM      8  C   UNL     1      -2.944  13.794  22.691  0.00  0.00    +0.000 A 
ATOM      9  C   UNL     1      -3.810  14.176  23.747  0.00  0.00    +0.000 A 
ATOM     10  C   UNL     1      -3.343  14.741  24.937  0.00  0.00    +0.000 A 
ATOM     11  C   UNL     1      -1.986  14.937  25.114  0.00  0.00    +0.000 A 
ATOM     12  C   UNL     1      -1.109  14.567  24.095  0.00  0.00    +0.000 A 
ATOM     13  C   UNL     1      -1.587  14.002  22.895  0.00  0.00    +0.000 A 
ATOM     14  C   UNL     1      -0.631  13.647  21.832  0.00  0.00    +0.000 A 
ATOM     15  O   UNL     1       0.548  13.947  22.026  0.00  0.00    +0.000 OA
ATOM     16  N   UNL     1      -1.087  12.998  20.658  0.00  0.00    +0.000 N 
ATOM     17  C   UNL     1      -2.505  12.753  20.394  0.00  0.00    +0.000 A 
ATOM     18  C   UNL     1      -3.072  12.137  19.165  0.00  0.00    +0.000 A 
ATOM     19  C   UNL     1      -2.436  11.517  18.026  0.00  0.00    +0.000 A 
ENDROOT
BRANCH   1  21
ATOM     20  C   UNL     1      -3.025  10.146  14.677  0.00  0.00    +0.000 C 
ATOM     21  O   UNL     1      -2.341  10.530  15.872  0.00  0.00    +0.000 OA
ENDBRANCH   1  21
BRANCH  16  22
ATOM     22  C   UNL     1      -0.011  12.717  19.695  0.00  0.00    +0.000 C 
BRANCH  22  23
ATOM     23  C   UNL     1       0.871  11.511  20.094  0.00  0.00    +0.000 C 
BRANCH  23  24
ATOM     24  N   UNL     1       0.353  10.182  19.683  0.00  0.00    +0.000 NA
ATOM     25  C   UNL     1       0.901   9.839  18.365  0.00  0.00    +0.000 C 
ATOM     26  C   UNL     1       0.736   9.134  20.639  0.00  0.00    +0.000 C 
ENDBRANCH  23  24
ENDBRANCH  22  23
ENDBRANCH  16  22
TORSDOF 4
ENDMDL
MODEL 9
REMARK VINA RESULT:      -6.2      5.799     10.170
REMARK  Name = 
REMARK  7 active torsions:
REMARK  status: ('A' for Active; 'I' for Inactive)
REMARK    1  A    between atoms: C_1  and  O_2
REMARK    2  A    between atoms: O_2  and  C_3
REMARK    3  A    between atoms: N_18  and  C_19
REMARK    4  A    between atoms: C_19  and  C_20
REMARK    5  A    between atoms: C_20  and  N_21
REMARK    6  A    between atoms: N_21  and  C_22
REMARK    7  A    between atoms: N_21  and  C_23
REMARK                            x       y       z     vdW  Elec       q    Type
REMARK                         _______ _______ _______ _____ _____    ______ ____
ROOT
ATOM      1  C   UNL     1       0.421  10.551  20.639  0.00  0.00    +0.000 A 
ATOM      2  C   UNL     1       0.744   9.957  19.435  0.00  0.00    +0.000 A 
ATOM      3  C   UNL     1      -0.171  10.008  18.402  0.00  0.00    +0.000 A 
ATOM      4  C   UNL     1      -1.404  10.656  18.548  0.00  0.00    +0.000 A 
ATOM      5  C   UNL     1      -2.215  10.580  17.437  0.00  0.00    +0.000 A 
ATOM      6  C   UNL     1      -3.459  11.167  17.436  0.00  0.00    +0.000 A 
ATOM      7  C   UNL     1      -3.943  11.898  18.530  0.00  0.00    +0.000 A 
ATOM      8  C   UNL     1      -5.277  12.535  18.411  0.00  0.00    +0.000 A 
ATOM      9  C   UNL     1      -6.135  12.363  17.296  0.00  0.00    +0.000 A 
ATOM     10  C   UNL     1      -7.388  12.976  17.208  0.00  0.00    +0.000 A 
ATOM     11  C   UNL     1      -7.830  13.779  18.242  0.00  0.00    +0.000 A 
ATOM     12  C   UNL     1      -7.011  13.964  19.355  0.00  0.00    +0.000 A 
ATOM     13  C   UNL     1      -5.745  13.346  19.435  0.00  0.00    +0.000 A 
ATOM     14  C   UNL     1      -4.898  13.585  20.616  0.00  0.00    +0.000 A 
ATOM     15  O   UNL     1      -5.320  14.393  21.446  0.00  0.00    +0.000 OA
ATOM     16  N   UNL     1      -3.664  12.902  20.752  0.00  0.00    +0.000 N 
ATOM     17  C   UNL     1      -3.125  12.035  19.704  0.00  0.00    +0.000 A 
ATOM     18  C   UNL     1      -1.814  11.332  19.738  0.00  0.00    +0.000 A 
ATOM     19  C   UNL     1      -0.832  11.194  20.787  0.00  0.00    +0.000 A 
ENDROOT
BRANCH   1  21
ATOM     20  C   UNL     1       1.499   9.301  22.354  0.00  0.00    +0.000 C 
ATOM     21  O   UNL     1       1.249  10.564  21.733  0.00  0.00    +0.000 OA
ENDBRANCH   1  21
BRANCH  16  22
ATOM     22  C   UNL     1      -2.937  13.254  21.982  0.00  0.00    +0.000 C 
BRANCH  22  23
ATOM     23  C   UNL     1      -3.136  12.232  23.126  0.00  0.00    +0.000 C 
BRANCH  23  24
ATOM     24  N   UNL     1      -3.666  12.793  24.393  0.00  0.00    +0.000 NA
ATOM     25  C   UNL     1      -3.366  14.229  24.447  0.00  0.00    +0.000 C 
ATOM     26  C   UNL     1      -5.120  12.612  24.498  0.00  0.00    +0.000 C 
ENDBRANCH  23  24
ENDBRANCH  22  23
ENDBRANCH  16  22
TORSDOF 4
ENDMDL
