MODEL 1
REMARK VINA RESULT:      -6.9      0.000      0.000
REMARK  Name = 
REMARK  8 active torsions:
REMARK  status: ('A' for Active; 'I' for Inactive)
REMARK    1  A    between atoms: C_1  and  C_2
REMARK    2  A    between atoms: C_2  and  C_3
REMARK    3  A    between atoms: C_2  and  N_4
REMARK    4  A    between atoms: C_8  and  C_9
REMARK    5  A    between atoms: C_19  and  C_20
REMARK    6  A    between atoms: N_23  and  C_24
REMARK    7  A    between atoms: C_24  and  C_25
REMARK    8  A    between atoms: C_25  and  O_26
REMARK                            x       y       z     vdW  Elec       q    Type
REMARK                         _______ _______ _______ _____ _____    ______ ____
ROOT
ATOM      1  C   UNL     1       1.699  13.118  20.526  0.00  0.00    +0.000 A 
ATOM      2  N   UNL     1       1.562  12.151  19.636  0.00  0.00    +0.000 NA
ATOM      3  C   UNL     1       0.624  11.216  20.088  0.00  0.00    +0.000 A 
ATOM      4  C   UNL     1       0.039  11.555  21.288  0.00  0.00    +0.000 A 
ATOM      5  S   UNL     1       0.476  13.148  21.733  0.00  0.00    +0.000 S 
ATOM      6  C   UNL     1      -0.609  10.636  22.259  0.00  0.00    +0.000 C 
ATOM      7  C   UNL     1       0.423   9.551  22.569  0.00  0.00    +0.000 C 
ATOM      8  O   UNL     1       0.402   8.496  21.614  0.00  0.00    +0.000 OA
ATOM      9  C   UNL     1       0.896   8.745  20.364  0.00  0.00    +0.000 A 
ATOM     10  C   UNL     1       1.715   7.724  19.883  0.00  0.00    +0.000 A 
ATOM     11  C   UNL     1       2.231   7.790  18.588  0.00  0.00    +0.000 A 
ATOM     12  C   UNL     1       1.617   8.652  17.680  0.00  0.00    +0.000 A 
ATOM     13  C   UNL     1       0.848   9.712  18.163  0.00  0.00    +0.000 A 
ATOM     14  C   UNL     1       0.654   9.857  19.545  0.00  0.00    +0.000 A 
ENDROOT
BRANCH   1  19
ATOM     15  N   UNL     1       3.245  14.910  19.670  0.00  0.00    +0.000 N 
ATOM     16  N   UNL     1       4.417  15.489  20.018  0.00  0.00    +0.000 NA
ATOM     17  C   UNL     1       4.697  14.856  21.157  0.00  0.00    +0.000 A 
ATOM     18  N   UNL     1       3.772  13.937  21.555  0.00  0.00    +0.000 NA
ATOM     19  C   UNL     1       2.850  13.996  20.612  0.00  0.00    +0.000 A 
BRANCH  15  21
ATOM     20  C   UNL     1       1.651  16.507  18.759  0.00  0.00    +0.000 C 
ATOM     21  C   UNL     1       2.565  15.321  18.448  0.00  0.00    +0.000 C 
ATOM     22  C   UNL     1       3.509  15.670  17.285  0.00  0.00    +0.000 C 
ENDBRANCH  15  21
ENDBRANCH   1  19
BRANCH  11  23
ATOM     23  C   UNL     1       3.558   7.228  18.325  0.00  0.00    +0.000 A 
ATOM     24  C   UNL     1       4.455   7.490  17.260  0.00  0.00    +0.000 A 
ATOM     25  N   UNL     1       5.391   6.547  17.123  0.00  0.00    +0.000 NA
ATOM     26  N   UNL     1       5.060   5.642  18.061  0.00  0.00    +0.000 N 
ATOM     27  C   UNL     1       4.009   6.027  18.841  0.00  0.00    +0.000 A 
BRANCH  26  28
ATOM     28  C   UNL     1       5.704   4.341  18.072  0.00  0.00    +0.000 C 
BRANCH  28  29
ATOM     29  C   UNL     1       7.171   4.402  17.677  0.00  0.00    +0.000 C 
BRANCH  29  30
ATOM     30  O   UNL     1       7.947   5.042  18.687  0.00  0.00    +0.000 OA
ATOM     31  H   UNL     1       7.661   4.656  19.537  0.00  0.00    +0.000 HD
ENDBRANCH  29  30
ENDBRANCH  28  29
ENDBRANCH  26  28
ENDBRANCH  11  23
TORSDOF 6
ENDMDL
MODEL 2
REMARK VINA RESULT:      -6.7      4.770      6.936
REMARK  Name = 
REMARK  8 active torsions:
REMARK  status: ('A' for Active; 'I' for Inactive)
REMARK    1  A    between atoms: C_1  and  C_2
REMARK    2  A    between atoms: C_2  and  C_3
REMARK    3  A    between atoms: C_2  and  N_4
REMARK    4  A    between atoms: C_8  and  C_9
REMARK    5  A    between atoms: C_19  and  C_20
REMARK    6  A    between atoms: N_23  and  C_24
REMARK    7  A    between atoms: C_24  and  C_25
REMARK    8  A    between atoms: C_25  and  O_26
REMARK                            x       y       z     vdW  Elec       q    Type
REMARK                         _______ _______ _______ _____ _____    ______ ____
ROOT
ATOM      1  C   UNL     1      -4.912  12.769  21.522  0.00  0.00    +0.000 A 
ATOM      2  N   UNL     1      -3.856  12.197  22.071  0.00  0.00    +0.000 NA
ATOM      3  C   UNL     1      -2.819  13.128  22.197  0.00  0.00    +0.000 A 
ATOM      4  C   UNL     1      -3.163  14.398  21.788  0.00  0.00    +0.000 A 
ATOM      5  S   UNL     1      -4.843  14.486  21.477  0.00  0.00    +0.000 S 
ATOM      6  C   UNL     1      -2.241  15.477  21.350  0.00  0.00    +0.000 C 
ATOM      7  C   UNL     1      -1.388  14.876  20.232  0.00  0.00    +0.000 C 
ATOM      8  O   UNL     1      -0.259  14.169  20.734  0.00  0.00    +0.000 OA
ATOM      9  C   UNL     1      -0.471  12.967  21.350  0.00  0.00    +0.000 A 
ATOM     10  C   UNL     1       0.432  11.981  20.956  0.00  0.00    +0.000 A 
ATOM     11  C   UNL     1       0.400  10.721  21.555  0.00  0.00    +0.000 A 
ATOM     12  C   UNL     1      -0.251  10.594  22.782  0.00  0.00    +0.000 A 
ATOM     13  C   UNL     1      -1.201  11.548  23.148  0.00  0.00    +0.000 A 
ATOM     14  C   UNL     1      -1.441  12.648  22.311  0.00  0.00    +0.000 A 
ENDROOT
BRANCH   1  19
ATOM     15  N   UNL     1      -6.161  11.933  19.503  0.00  0.00    +0.000 N 
ATOM     16  N   UNL     1      -7.315  11.285  19.222  0.00  0.00    +0.000 NA
ATOM     17  C   UNL     1      -7.804  11.073  20.442  0.00  0.00    +0.000 A 
ATOM     18  N   UNL     1      -7.027  11.524  21.468  0.00  0.00    +0.000 NA
ATOM     19  C   UNL     1      -5.982  12.051  20.857  0.00  0.00    +0.000 A 
BRANCH  15  21
ATOM     20  C   UNL     1      -4.274  11.255  18.124  0.00  0.00    +0.000 C 
ATOM     21  C   UNL     1      -5.285  12.363  18.420  0.00  0.00    +0.000 C 
ATOM     22  C   UNL     1      -6.022  12.767  17.132  0.00  0.00    +0.000 C 
ENDBRANCH  15  21
ENDBRANCH   1  19
BRANCH  11  23
ATOM     23  C   UNL     1       0.745   9.546  20.751  0.00  0.00    +0.000 A 
ATOM     24  C   UNL     1       1.228   8.279  21.164  0.00  0.00    +0.000 A 
ATOM     25  N   UNL     1       1.787   7.585  20.169  0.00  0.00    +0.000 NA
ATOM     26  N   UNL     1       1.722   8.430  19.125  0.00  0.00    +0.000 N 
ATOM     27  C   UNL     1       1.060   9.590  19.406  0.00  0.00    +0.000 A 
BRANCH  26  28
ATOM     28  C   UNL     1       2.448   8.132  17.905  0.00  0.00    +0.000 C 
BRANCH  28  29
ATOM     29  C   UNL     1       3.288   6.869  18.008  0.00  0.00    +0.000 C 
BRANCH  29  30
ATOM     30  O   UNL     1       2.469   5.703  17.968  0.00  0.00    +0.000 OA
ATOM     31  H   UNL     1       3.078   4.944  17.890  0.00  0.00    +0.000 HD
ENDBRANCH  29  30
ENDBRANCH  28  29
ENDBRANCH  26  28
ENDBRANCH  11  23
TORSDOF 6
ENDMDL
MODEL 3
REMARK VINA RESULT:      -6.6      3.777      6.506
REMARK  Name = 
REMARK  8 active torsions:
REMARK  status: ('A' for Active; 'I' for Inactive)
REMARK    1  A    between atoms: C_1  and  C_2
REMARK    2  A    between atoms: C_2  and  C_3
REMARK    3  A    between atoms: C_2  and  N_4
REMARK    4  A    between atoms: C_8  and  C_9
REMARK    5  A    between atoms: C_19  and  C_20
REMARK    6  A    between atoms: N_23  and  C_24
REMARK    7  A    between atoms: C_24  and  C_25
REMARK    8  A    between atoms: C_25  and  O_26
REMARK                            x       y       z     vdW  Elec       q    Type
REMARK                         _______ _______ _______ _____ _____    ______ ____
ROOT
ATOM      1  C   UNL     1       1.990   6.938  19.568  0.00  0.00    +0.000 A 
ATOM      2  N   UNL     1       2.893   7.100  18.619  0.00  0.00    +0.000 NA
ATOM      3  C   UNL     1       3.544   5.888  18.367  0.00  0.00    +0.000 A 
ATOM      4  C   UNL     1       3.053   4.832  19.104  0.00  0.00    +0.000 A 
ATOM      5  S   UNL     1       1.628   5.296  19.928  0.00  0.00    +0.000 S 
ATOM      6  C   UNL     1       3.761   3.571  19.442  0.00  0.00    +0.000 C 
ATOM      7  C   UNL     1       5.077   3.987  20.101  0.00  0.00    +0.000 C 
ATOM      8  O   UNL     1       6.097   4.259  19.146  0.00  0.00    +0.000 OA
ATOM      9  C   UNL     1       5.997   5.400  18.401  0.00  0.00    +0.000 A 
ATOM     10  C   UNL     1       7.202   6.095  18.295  0.00  0.00    +0.000 A 
ATOM     11  C   UNL     1       7.285   7.237  17.497  0.00  0.00    +0.000 A 
ATOM     12  C   UNL     1       6.299   7.437  16.531  0.00  0.00    +0.000 A 
ATOM     13  C   UNL     1       5.071   6.789  16.671  0.00  0.00    +0.000 A 
ATOM     14  C   UNL     1       4.868   5.905  17.742  0.00  0.00    +0.000 A 
ENDROOT
BRANCH   1  19
ATOM     15  N   UNL     1       1.021   9.234  19.919  0.00  0.00    +0.000 N 
ATOM     16  N   UNL     1       0.667  10.039  20.947  0.00  0.00    +0.000 NA
ATOM     17  C   UNL     1       0.935   9.262  21.996  0.00  0.00    +0.000 A 
ATOM     18  N   UNL     1       1.412   8.020  21.694  0.00  0.00    +0.000 NA
ATOM     19  C   UNL     1       1.444   8.013  20.374  0.00  0.00    +0.000 A 
BRANCH  15  21
ATOM     20  C   UNL     1      -0.518  10.281  18.352  0.00  0.00    +0.000 C 
ATOM     21  C   UNL     1       0.884   9.705  18.546  0.00  0.00    +0.000 C 
ATOM     22  C   UNL     1       1.944  10.736  18.122  0.00  0.00    +0.000 C 
ENDBRANCH  15  21
ENDBRANCH   1  19
BRANCH  11  23
ATOM     23  C   UNL     1       8.178   8.323  17.907  0.00  0.00    +0.000 A 
ATOM     24  C   UNL     1       8.834   8.534  19.145  0.00  0.00    +0.000 A 
ATOM     25  N   UNL     1       9.258   9.791  19.303  0.00  0.00    +0.000 NA
ATOM     26  N   UNL     1       8.819  10.409  18.193  0.00  0.00    +0.000 N 
ATOM     27  C   UNL     1       8.218   9.566  17.303  0.00  0.00    +0.000 A 
BRANCH  26  28
ATOM     28  C   UNL     1       8.874  11.856  18.098  0.00  0.00    +0.000 C 
BRANCH  28  29
ATOM     29  C   UNL     1      10.296  12.393  18.039  0.00  0.00    +0.000 C 
BRANCH  29  30
ATOM     30  O   UNL     1      11.168  11.465  17.400  0.00  0.00    +0.000 OA
ATOM     31  H   UNL     1      11.804  11.173  18.081  0.00  0.00    +0.000 HD
ENDBRANCH  29  30
ENDBRANCH  28  29
ENDBRANCH  26  28
ENDBRANCH  11  23
TORSDOF 6
ENDMDL
MODEL 4
REMARK VINA RESULT:      -6.5      2.154      2.525
REMARK  Name = 
REMARK  8 active torsions:
REMARK  status: ('A' for Active; 'I' for Inactive)
REMARK    1  A    between atoms: C_1  and  C_2
REMARK    2  A    between atoms: C_2  and  C_3
REMARK    3  A    between atoms: C_2  and  N_4
REMARK    4  A    between atoms: C_8  and  C_9
REMARK    5  A    between atoms: C_19  and  C_20
REMARK    6  A    between atoms: N_23  and  C_24
REMARK    7  A    between atoms: C_24  and  C_25
REMARK    8  A    between atoms: C_25  and  O_26
REMARK                            x       y       z     vdW  Elec       q    Type
REMARK                         _______ _______ _______ _____ _____    ______ ____
ROOT
ATOM      1  C   UNL     1       2.614  13.939  20.842  0.00  0.00    +0.000 A 
ATOM      2  N   UNL     1       2.299  13.033  19.935  0.00  0.00    +0.000 NA
ATOM      3  C   UNL     1       0.980  12.607  20.123  0.00  0.00    +0.000 A 
ATOM      4  C   UNL     1       0.325  13.267  21.140  0.00  0.00    +0.000 A 
ATOM      5  S   UNL     1       1.269  14.579  21.700  0.00  0.00    +0.000 S 
ATOM      6  C   UNL     1      -0.855  12.787  21.904  0.00  0.00    +0.000 C 
ATOM      7  C   UNL     1      -0.475  11.411  22.452  0.00  0.00    +0.000 C 
ATOM      8  O   UNL     1      -0.709  10.370  21.510  0.00  0.00    +0.000 OA
ATOM      9  C   UNL     1       0.123  10.277  20.429  0.00  0.00    +0.000 A 
ATOM     10  C   UNL     1       0.529   8.970  20.159  0.00  0.00    +0.000 A 
ATOM     11  C   UNL     1       1.314   8.698  19.038  0.00  0.00    +0.000 A 
ATOM     12  C   UNL     1       1.348   9.645  18.014  0.00  0.00    +0.000 A 
ATOM     13  C   UNL     1       1.001  10.966  18.300  0.00  0.00    +0.000 A 
ATOM     14  C   UNL     1       0.566  11.308  19.589  0.00  0.00    +0.000 A 
ENDROOT
BRANCH   1  19
ATOM     15  N   UNL     1       4.891  14.941  20.458  0.00  0.00    +0.000 N 
ATOM     16  N   UNL     1       6.091  15.000  21.081  0.00  0.00    +0.000 NA
ATOM     17  C   UNL     1       5.841  14.324  22.202  0.00  0.00    +0.000 A 
ATOM     18  N   UNL     1       4.563  13.864  22.332  0.00  0.00    +0.000 NA
ATOM     19  C   UNL     1       3.971  14.278  21.227  0.00  0.00    +0.000 A 
BRANCH  15  21
ATOM     20  C   UNL     1       5.379  16.951  19.177  0.00  0.00    +0.000 C 
ATOM     21  C   UNL     1       4.714  15.574  19.157  0.00  0.00    +0.000 C 
ATOM     22  C   UNL     1       5.243  14.747  17.973  0.00  0.00    +0.000 C 
ENDBRANCH  15  21
ENDBRANCH   1  19
BRANCH  11  23
ATOM     23  C   UNL     1       2.306   7.623  19.113  0.00  0.00    +0.000 A 
ATOM     24  C   UNL     1       3.183   7.132  18.113  0.00  0.00    +0.000 A 
ATOM     25  N   UNL     1       3.673   5.923  18.399  0.00  0.00    +0.000 NA
ATOM     26  N   UNL     1       3.063   5.604  19.554  0.00  0.00    +0.000 N 
ATOM     27  C   UNL     1       2.281   6.607  20.049  0.00  0.00    +0.000 A 
BRANCH  26  28
ATOM     28  C   UNL     1       3.153   4.252  20.073  0.00  0.00    +0.000 C 
BRANCH  28  29
ATOM     29  C   UNL     1       1.896   3.814  20.807  0.00  0.00    +0.000 C 
BRANCH  29  30
ATOM     30  O   UNL     1       2.197   3.400  22.137  0.00  0.00    +0.000 OA
ATOM     31  H   UNL     1       2.522   2.481  22.070  0.00  0.00    +0.000 HD
ENDBRANCH  29  30
ENDBRANCH  28  29
ENDBRANCH  26  28
ENDBRANCH  11  23
TORSDOF 6
ENDMDL
MODEL 5
REMARK VINA RESULT:      -6.5      1.180      1.391
REMARK  Name = 
REMARK  8 active torsions:
REMARK  status: ('A' for Active; 'I' for Inactive)
REMARK    1  A    between atoms: C_1  and  C_2
REMARK    2  A    between atoms: C_2  and  C_3
REMARK    3  A    between atoms: C_2  and  N_4
REMARK    4  A    between atoms: C_8  and  C_9
REMARK    5  A    between atoms: C_19  and  C_20
REMARK    6  A    between atoms: N_23  and  C_24
REMARK    7  A    between atoms: C_24  and  C_25
REMARK    8  A    between atoms: C_25  and  O_26
REMARK                            x       y       z     vdW  Elec       q    Type
REMARK                         _______ _______ _______ _____ _____    ______ ____
ROOT
ATOM      1  C   UNL     1       1.928  13.570  20.714  0.00  0.00    +0.000 A 
ATOM      2  N   UNL     1       1.714  12.629  19.813  0.00  0.00    +0.000 NA
ATOM      3  C   UNL     1       0.572  11.895  20.151  0.00  0.00    +0.000 A 
ATOM      4  C   UNL     1      -0.073  12.361  21.275  0.00  0.00    +0.000 A 
ATOM      5  S   UNL     1       0.603  13.853  21.771  0.00  0.00    +0.000 S 
ATOM      6  C   UNL     1      -0.989  11.599  22.163  0.00  0.00    +0.000 C 
ATOM      7  C   UNL     1      -0.222  10.346  22.588  0.00  0.00    +0.000 C 
ATOM      8  O   UNL     1      -0.331   9.295  21.635  0.00  0.00    +0.000 OA
ATOM      9  C   UNL     1       0.341   9.422  20.452  0.00  0.00    +0.000 A 
ATOM     10  C   UNL     1       1.004   8.257  20.068  0.00  0.00    +0.000 A 
ATOM     11  C   UNL     1       1.668   8.200  18.841  0.00  0.00    +0.000 A 
ATOM     12  C   UNL     1       1.335   9.143  17.869  0.00  0.00    +0.000 A 
ATOM     13  C   UNL     1       0.728  10.337  18.262  0.00  0.00    +0.000 A 
ATOM     14  C   UNL     1       0.408  10.543  19.613  0.00  0.00    +0.000 A 
ENDROOT
BRANCH   1  19
ATOM     15  N   UNL     1       3.774  15.183  20.144  0.00  0.00    +0.000 N 
ATOM     16  N   UNL     1       5.016  15.497  20.579  0.00  0.00    +0.000 NA
ATOM     17  C   UNL     1       5.155  14.665  21.610  0.00  0.00    +0.000 A 
ATOM     18  N   UNL     1       4.078  13.866  21.862  0.00  0.00    +0.000 NA
ATOM     19  C   UNL     1       3.206  14.219  20.935  0.00  0.00    +0.000 A 
BRANCH  15  21
ATOM     20  C   UNL     1       3.338  14.991  17.758  0.00  0.00    +0.000 C 
ATOM     21  C   UNL     1       3.207  15.879  18.995  0.00  0.00    +0.000 C 
ATOM     22  C   UNL     1       1.745  16.319  19.181  0.00  0.00    +0.000 C 
ENDBRANCH  15  21
ENDBRANCH   1  19
BRANCH  11  23
ATOM     23  C   UNL     1       2.886   7.394  18.734  0.00  0.00    +0.000 A 
ATOM     24  C   UNL     1       3.833   7.325  17.681  0.00  0.00    +0.000 A 
ATOM     25  N   UNL     1       4.600   6.234  17.742  0.00  0.00    +0.000 NA
ATOM     26  N   UNL     1       4.107   5.564  18.798  0.00  0.00    +0.000 N 
ATOM     27  C   UNL     1       3.121   6.239  19.457  0.00  0.00    +0.000 A 
BRANCH  26  28
ATOM     28  C   UNL     1       4.523   4.196  19.049  0.00  0.00    +0.000 C 
BRANCH  28  29
ATOM     29  C   UNL     1       4.134   3.243  17.930  0.00  0.00    +0.000 C 
BRANCH  29  30
ATOM     30  O   UNL     1       5.089   3.278  16.872  0.00  0.00    +0.000 OA
ATOM     31  H   UNL     1       4.669   2.834  16.110  0.00  0.00    +0.000 HD
ENDBRANCH  29  30
ENDBRANCH  28  29
ENDBRANCH  26  28
ENDBRANCH  11  23
TORSDOF 6
ENDMDL
MODEL 6
REMARK VINA RESULT:      -6.5      1.831      2.389
REMARK  Name = 
REMARK  8 active torsions:
REMARK  status: ('A' for Active; 'I' for Inactive)
REMARK    1  A    between atoms: C_1  and  C_2
REMARK    2  A    between atoms: C_2  and  C_3
REMARK    3  A    between atoms: C_2  and  N_4
REMARK    4  A    between atoms: C_8  and  C_9
REMARK    5  A    between atoms: C_19  and  C_20
REMARK    6  A    between atoms: N_23  and  C_24
REMARK    7  A    between atoms: C_24  and  C_25
REMARK    8  A    between atoms: C_25  and  O_26
REMARK                            x       y       z     vdW  Elec       q    Type
REMARK                         _______ _______ _______ _____ _____    ______ ____
ROOT
ATOM      1  C   UNL     1       0.744  14.769  19.421  0.00  0.00    +0.000 A 
ATOM      2  N   UNL     1       0.440  13.610  18.867  0.00  0.00    +0.000 NA
ATOM      3  C   UNL     1      -0.513  12.944  19.646  0.00  0.00    +0.000 A 
ATOM      4  C   UNL     1      -0.940  13.667  20.737  0.00  0.00    +0.000 A 
ATOM      5  S   UNL     1      -0.339  15.267  20.660  0.00  0.00    +0.000 S 
ATOM      6  C   UNL     1      -1.549  13.134  21.982  0.00  0.00    +0.000 C 
ATOM      7  C   UNL     1      -0.575  12.081  22.512  0.00  0.00    +0.000 C 
ATOM      8  O   UNL     1      -0.777  10.806  21.912  0.00  0.00    +0.000 OA
ATOM      9  C   UNL     1      -0.400  10.638  20.609  0.00  0.00    +0.000 A 
ATOM     10  C   UNL     1       0.283   9.444  20.384  0.00  0.00    +0.000 A 
ATOM     11  C   UNL     1       0.662   9.086  19.089  0.00  0.00    +0.000 A 
ATOM     12  C   UNL     1       0.022   9.714  18.020  0.00  0.00    +0.000 A 
ATOM     13  C   UNL     1      -0.609  10.940  18.233  0.00  0.00    +0.000 A 
ATOM     14  C   UNL     1      -0.644  11.491  19.523  0.00  0.00    +0.000 A 
ENDROOT
BRANCH   1  19
ATOM     15  N   UNL     1       2.050  16.715  18.503  0.00  0.00    +0.000 N 
ATOM     16  N   UNL     1       3.342  17.078  18.333  0.00  0.00    +0.000 NA
ATOM     17  C   UNL     1       3.983  16.039  18.867  0.00  0.00    +0.000 A 
ATOM     18  N   UNL     1       3.181  15.061  19.378  0.00  0.00    +0.000 NA
ATOM     19  C   UNL     1       1.960  15.513  19.155  0.00  0.00    +0.000 A 
BRANCH  15  21
ATOM     20  C   UNL     1       0.688  18.630  19.130  0.00  0.00    +0.000 C 
ATOM     21  C   UNL     1       0.981  17.594  18.046  0.00  0.00    +0.000 C 
ATOM     22  C   UNL     1       1.265  18.293  16.706  0.00  0.00    +0.000 C 
ENDBRANCH  15  21
ENDBRANCH   1  19
BRANCH  11  23
ATOM     23  C   UNL     1       1.908   8.339  18.897  0.00  0.00    +0.000 A 
ATOM     24  C   UNL     1       2.788   8.321  17.787  0.00  0.00    +0.000 A 
ATOM     25  N   UNL     1       3.606   7.266  17.788  0.00  0.00    +0.000 NA
ATOM     26  N   UNL     1       3.212   6.567  18.867  0.00  0.00    +0.000 N 
ATOM     27  C   UNL     1       2.240   7.191  19.593  0.00  0.00    +0.000 A 
BRANCH  26  28
ATOM     28  C   UNL     1       3.706   5.218  19.078  0.00  0.00    +0.000 C 
BRANCH  28  29
ATOM     29  C   UNL     1       5.203   5.169  19.339  0.00  0.00    +0.000 C 
BRANCH  29  30
ATOM     30  O   UNL     1       5.794   4.026  18.726  0.00  0.00    +0.000 OA
ATOM     31  H   UNL     1       5.448   3.250  19.206  0.00  0.00    +0.000 HD
ENDBRANCH  29  30
ENDBRANCH  28  29
ENDBRANCH  26  28
ENDBRANCH  11  23
TORSDOF 6
ENDMDL
MODEL 7
REMARK VINA RESULT:      -6.5      5.253      9.567
REMARK  Name = 
REMARK  8 active torsions:
REMARK  status: ('A' for Active; 'I' for Inactive)
REMARK    1  A    between atoms: C_1  and  C_2
REMARK    2  A    between atoms: C_2  and  C_3
REMARK    3  A    between atoms: C_2  and  N_4
REMARK    4  A    between atoms: C_8  and  C_9
REMARK    5  A    between atoms: C_19  and  C_20
REMARK    6  A    between atoms: N_23  and  C_24
REMARK    7  A    between atoms: C_24  and  C_25
REMARK    8  A    between atoms: C_25  and  O_26
REMARK                            x       y       z     vdW  Elec       q    Type
REMARK                         _______ _______ _______ _____ _____    ______ ____
ROOT
ATOM      1  C   UNL     1      -1.461  11.133  18.065  0.00  0.00    +0.000 A 
ATOM      2  N   UNL     1      -1.475  11.983  19.076  0.00  0.00    +0.000 NA
ATOM      3  C   UNL     1      -0.613  11.540  20.085  0.00  0.00    +0.000 A 
ATOM      4  C   UNL     1       0.074  10.391  19.761  0.00  0.00    +0.000 A 
ATOM      5  S   UNL     1      -0.171   9.998  18.113  0.00  0.00    +0.000 S 
ATOM      6  C   UNL     1       0.681   9.415  20.702  0.00  0.00    +0.000 C 
ATOM      7  C   UNL     1      -0.436   8.999  21.659  0.00  0.00    +0.000 C 
ATOM      8  O   UNL     1      -0.580   9.903  22.749  0.00  0.00    +0.000 OA
ATOM      9  C   UNL     1      -1.119  11.134  22.501  0.00  0.00    +0.000 A 
ATOM     10  C   UNL     1      -2.066  11.521  23.449  0.00  0.00    +0.000 A 
ATOM     11  C   UNL     1      -2.648  12.788  23.382  0.00  0.00    +0.000 A 
ATOM     12  C   UNL     1      -2.004  13.768  22.627  0.00  0.00    +0.000 A 
ATOM     13  C   UNL     1      -1.103  13.377  21.635  0.00  0.00    +0.000 A 
ATOM     14  C   UNL     1      -0.814  12.016  21.454  0.00  0.00    +0.000 A 
ENDROOT
BRANCH   1  19
ATOM     15  N   UNL     1      -3.855  10.959  17.311  0.00  0.00    +0.000 N 
ATOM     16  N   UNL     1      -4.545  10.759  16.164  0.00  0.00    +0.000 NA
ATOM     17  C   UNL     1      -3.559  10.675  15.273  0.00  0.00    +0.000 A 
ATOM     18  N   UNL     1      -2.301  10.830  15.779  0.00  0.00    +0.000 NA
ATOM     19  C   UNL     1      -2.508  11.026  17.068  0.00  0.00    +0.000 A 
BRANCH  15  21
ATOM     20  C   UNL     1      -4.798  12.597  18.843  0.00  0.00    +0.000 C 
ATOM     21  C   UNL     1      -4.569  11.110  18.573  0.00  0.00    +0.000 C 
ATOM     22  C   UNL     1      -5.903  10.347  18.641  0.00  0.00    +0.000 C 
ENDBRANCH  15  21
ENDBRANCH   1  19
BRANCH  11  23
ATOM     23  C   UNL     1      -4.039  12.951  23.812  0.00  0.00    +0.000 A 
ATOM     24  C   UNL     1      -4.805  12.165  24.708  0.00  0.00    +0.000 A 
ATOM     25  N   UNL     1      -6.119  12.366  24.584  0.00  0.00    +0.000 NA
ATOM     26  N   UNL     1      -6.207  13.237  23.564  0.00  0.00    +0.000 N 
ATOM     27  C   UNL     1      -4.993  13.659  23.105  0.00  0.00    +0.000 A 
BRANCH  26  28
ATOM     28  C   UNL     1      -7.496  13.524  22.963  0.00  0.00    +0.000 C 
BRANCH  28  29
ATOM     29  C   UNL     1      -7.606  13.030  21.529  0.00  0.00    +0.000 C 
BRANCH  29  30
ATOM     30  O   UNL     1      -7.615  11.605  21.477  0.00  0.00    +0.000 OA
ATOM     31  H   UNL     1      -7.958  11.367  20.594  0.00  0.00    +0.000 HD
ENDBRANCH  29  30
ENDBRANCH  28  29
ENDBRANCH  26  28
ENDBRANCH  11  23
TORSDOF 6
ENDMDL
MODEL 8
REMARK VINA RESULT:      -6.4      2.446      3.536
REMARK  Name = 
REMARK  8 active torsions:
REMARK  status: ('A' for Active; 'I' for Inactive)
REMARK    1  A    between atoms: C_1  and  C_2
REMARK    2  A    between atoms: C_2  and  C_3
REMARK    3  A    between atoms: C_2  and  N_4
REMARK    4  A    between atoms: C_8  and  C_9
REMARK    5  A    between atoms: C_19  and  C_20
REMARK    6  A    between atoms: N_23  and  C_24
REMARK    7  A    between atoms: C_24  and  C_25
REMARK    8  A    between atoms: C_25  and  O_26
REMARK                            x       y       z     vdW  Elec       q    Type
REMARK                         _______ _______ _______ _____ _____    ______ ____
ROOT
ATOM      1  C   UNL     1      -0.396  15.585  19.190  0.00  0.00    +0.000 A 
ATOM      2  N   UNL     1      -0.718  14.345  18.872  0.00  0.00    +0.000 NA
ATOM      3  C   UNL     1      -1.390  13.737  19.938  0.00  0.00    +0.000 A 
ATOM      4  C   UNL     1      -1.605  14.578  21.008  0.00  0.00    +0.000 A 
ATOM      5  S   UNL     1      -1.188  16.185  20.592  0.00  0.00    +0.000 S 
ATOM      6  C   UNL     1      -1.845  14.187  22.420  0.00  0.00    +0.000 C 
ATOM      7  C   UNL     1      -0.680  13.276  22.810  0.00  0.00    +0.000 C 
ATOM      8  O   UNL     1      -0.904  11.921  22.436  0.00  0.00    +0.000 OA
ATOM      9  C   UNL     1      -0.840  11.597  21.110  0.00  0.00    +0.000 A 
ATOM     10  C   UNL     1      -0.125  10.425  20.865  0.00  0.00    +0.000 A 
ATOM     11  C   UNL     1      -0.039   9.915  19.568  0.00  0.00    +0.000 A 
ATOM     12  C   UNL     1      -0.973  10.351  18.628  0.00  0.00    +0.000 A 
ATOM     13  C   UNL     1      -1.643  11.556  18.844  0.00  0.00    +0.000 A 
ATOM     14  C   UNL     1      -1.415  12.276  20.027  0.00  0.00    +0.000 A 
ENDROOT
BRANCH   1  19
ATOM     15  N   UNL     1       1.997  16.137  18.639  0.00  0.00    +0.000 N 
ATOM     16  N   UNL     1       2.692  17.100  17.991  0.00  0.00    +0.000 NA
ATOM     17  C   UNL     1       1.710  17.887  17.554  0.00  0.00    +0.000 A 
ATOM     18  N   UNL     1       0.448  17.472  17.866  0.00  0.00    +0.000 NA
ATOM     19  C   UNL     1       0.648  16.354  18.539  0.00  0.00    +0.000 A 
BRANCH  15  21
ATOM     20  C   UNL     1       2.818  13.871  18.310  0.00  0.00    +0.000 C 
ATOM     21  C   UNL     1       2.705  15.040  19.288  0.00  0.00    +0.000 C 
ATOM     22  C   UNL     1       4.095  15.416  19.829  0.00  0.00    +0.000 C 
ENDBRANCH  15  21
ENDBRANCH   1  19
BRANCH  11  23
ATOM     23  C   UNL     1       1.185   9.222  19.160  0.00  0.00    +0.000 A 
ATOM     24  C   UNL     1       1.821   9.182  17.894  0.00  0.00    +0.000 A 
ATOM     25  N   UNL     1       2.687   8.172  17.778  0.00  0.00    +0.000 NA
ATOM     26  N   UNL     1       2.565   7.521  18.948  0.00  0.00    +0.000 N 
ATOM     27  C   UNL     1       1.724   8.138  19.828  0.00  0.00    +0.000 A 
BRANCH  26  28
ATOM     28  C   UNL     1       3.175   6.215  19.119  0.00  0.00    +0.000 C 
BRANCH  28  29
ATOM     29  C   UNL     1       3.272   5.432  17.819  0.00  0.00    +0.000 C 
BRANCH  29  30
ATOM     30  O   UNL     1       4.391   5.858  17.045  0.00  0.00    +0.000 OA
ATOM     31  H   UNL     1       5.001   6.297  17.668  0.00  0.00    +0.000 HD
ENDBRANCH  29  30
ENDBRANCH  28  29
ENDBRANCH  26  28
ENDBRANCH  11  23
TORSDOF 6
ENDMDL
MODEL 9
REMARK VINA RESULT:      -6.4      3.845      7.287
REMARK  Name = 
REMARK  8 active torsions:
REMARK  status: ('A' for Active; 'I' for Inactive)
REMARK    1  A    between atoms: C_1  and  C_2
REMARK    2  A    between atoms: C_2  and  C_3
REMARK    3  A    between atoms: C_2  and  N_4
REMARK    4  A    between atoms: C_8  and  C_9
REMARK    5  A    between atoms: C_19  and  C_20
REMARK    6  A    between atoms: N_23  and  C_24
REMARK    7  A    between atoms: C_24  and  C_25
REMARK    8  A    between atoms: C_25  and  O_26
REMARK                            x       y       z     vdW  Elec       q    Type
REMARK                         _______ _______ _______ _____ _____    ______ ____
ROOT
ATOM      1  C   UNL     1       1.758  13.065  19.432  0.00  0.00    +0.000 A 
ATOM      2  N   UNL     1       2.797  13.562  20.076  0.00  0.00    +0.000 NA
ATOM      3  C   UNL     1       2.838  14.951  19.919  0.00  0.00    +0.000 A 
ATOM      4  C   UNL     1       1.776  15.459  19.204  0.00  0.00    +0.000 A 
ATOM      5  S   UNL     1       0.605  14.240  18.936  0.00  0.00    +0.000 S 
ATOM      6  C   UNL     1       1.726  16.748  18.468  0.00  0.00    +0.000 C 
ATOM      7  C   UNL     1       2.925  16.740  17.519  0.00  0.00    +0.000 C 
ATOM      8  O   UNL     1       4.118  17.190  18.151  0.00  0.00    +0.000 OA
ATOM      9  C   UNL     1       4.714  16.369  19.066  0.00  0.00    +0.000 A 
ATOM     10  C   UNL     1       6.098  16.289  18.914  0.00  0.00    +0.000 A 
ATOM     11  C   UNL     1       6.862  15.556  19.823  0.00  0.00    +0.000 A 
ATOM     12  C   UNL     1       6.297  15.252  21.062  0.00  0.00    +0.000 A 
ATOM     13  C   UNL     1       4.908  15.272  21.196  0.00  0.00    +0.000 A 
ATOM     14  C   UNL     1       4.108  15.654  20.109  0.00  0.00    +0.000 A 
ENDROOT
BRANCH   1  19
ATOM     15  N   UNL     1       1.045  10.669  19.723  0.00  0.00    +0.000 N 
ATOM     16  N   UNL     1       1.196   9.482  19.091  0.00  0.00    +0.000 NA
ATOM     17  C   UNL     1       1.917   9.838  18.029  0.00  0.00    +0.000 A 
ATOM     18  N   UNL     1       2.210  11.167  17.941  0.00  0.00    +0.000 NA
ATOM     19  C   UNL     1       1.636  11.682  19.014  0.00  0.00    +0.000 A 
BRANCH  15  21
ATOM     20  C   UNL     1      -1.105  11.282  20.683  0.00  0.00    +0.000 C 
ATOM     21  C   UNL     1       0.294  10.739  20.971  0.00  0.00    +0.000 C 
ATOM     22  C   UNL     1       0.200   9.404  21.729  0.00  0.00    +0.000 C 
ENDBRANCH  15  21
ENDBRANCH   1  19
BRANCH  11  23
ATOM     23  C   UNL     1       8.061  14.864  19.344  0.00  0.00    +0.000 A 
ATOM     24  C   UNL     1       8.652  14.869  18.057  0.00  0.00    +0.000 A 
ATOM     25  N   UNL     1       9.499  13.853  17.869  0.00  0.00    +0.000 NA
ATOM     26  N   UNL     1       9.407  13.155  19.013  0.00  0.00    +0.000 N 
ATOM     27  C   UNL     1       8.605  13.745  19.947  0.00  0.00    +0.000 A 
BRANCH  26  28
ATOM     28  C   UNL     1      10.002  11.834  19.108  0.00  0.00    +0.000 C 
BRANCH  28  29
ATOM     29  C   UNL     1      10.558  11.339  17.782  0.00  0.00    +0.000 C 
BRANCH  29  30
ATOM     30  O   UNL     1      11.907  11.762  17.602  0.00  0.00    +0.000 OA
ATOM     31  H   UNL     1      11.866  12.704  17.349  0.00  0.00    +0.000 HD
ENDBRANCH  29  30
ENDBRANCH  28  29
ENDBRANCH  26  28
ENDBRANCH  11  23
TORSDOF 6
ENDMDL
