MODEL 1
REMARK VINA RESULT:      -8.4      0.000      0.000
REMARK  Name = 
REMARK  10 active torsions:
REMARK  status: ('A' for Active; 'I' for Inactive)
REMARK    1  A    between atoms: C_1  and  C_2
REMARK    2  A    between atoms: C_2  and  C_3
REMARK    3  A    between atoms: C_3  and  N_4
REMARK    4  A    between atoms: N_4  and  C_5
REMARK    5  A    between atoms: N_4  and  C_23
REMARK    6  A    between atoms: C_5  and  C_6
REMARK    7  A    between atoms: C_9  and  C_10
REMARK    8  A    between atoms: C_15  and  C_16
REMARK    9  A    between atoms: C_28  and  C_29
REMARK   10  A    between atoms: C_29  and  O_31
REMARK                            x       y       z     vdW  Elec       q    Type
REMARK                         _______ _______ _______ _____ _____    ______ ____
ROOT
ATOM      1  C   UNL     1       1.276   8.817  19.838  0.00  0.00    +0.000 A 
ATOM      2  C   UNL     1       1.787   7.642  20.387  0.00  0.00    +0.000 A 
ATOM      3  C   UNL     1       2.609   6.795  19.622  0.00  0.00    +0.000 A 
ATOM      4  C   UNL     1       2.901   7.053  18.266  0.00  0.00    +0.000 A 
ATOM      5  C   UNL     1       2.312   8.200  17.717  0.00  0.00    +0.000 A 
ATOM      6  C   UNL     1       1.557   9.084  18.491  0.00  0.00    +0.000 A 
ENDROOT
BRANCH   4   7
ATOM      7  C   UNL     1       3.760   6.133  17.460  0.00  0.00    +0.000 A 
ATOM      8  C   UNL     1       4.828   6.692  16.715  0.00  0.00    +0.000 A 
ATOM      9  C   UNL     1       5.683   5.917  15.924  0.00  0.00    +0.000 A 
ATOM     10  C   UNL     1       5.520   4.542  15.874  0.00  0.00    +0.000 A 
ATOM     11  C   UNL     1       4.501   3.948  16.613  0.00  0.00    +0.000 A 
ATOM     12  C   UNL     1       3.609   4.720  17.393  0.00  0.00    +0.000 A 
BRANCH  12  13
ATOM     13  C   UNL     1       2.580   3.967  18.103  0.00  0.00    +0.000 A 
ATOM     14  N   UNL     1       1.312   3.806  17.585  0.00  0.00    +0.000 NA
ATOM     15  N   UNL     1       0.649   3.027  18.427  0.00  0.00    +0.000 NA
ATOM     16  N   UNL     1       1.525   2.768  19.402  0.00  0.00    +0.000 N 
ATOM     17  N   UNL     1       2.725   3.356  19.291  0.00  0.00    +0.000 NA
ATOM     18  H   UNL     1       1.298   2.144  20.171  0.00  0.00    +0.000 HD
ENDBRANCH  12  13
ENDBRANCH   4   7
BRANCH   1  19
ATOM     19  C   UNL     1       0.289   9.720  20.538  0.00  0.00    +0.000 C 
BRANCH  19  20
ATOM     20  N   UNL     1       0.179  11.147  20.121  0.00  0.00    +0.000 N 
BRANCH  20  21
ATOM     21  C   UNL     1      -1.137  11.665  20.332  0.00  0.00    +0.000 A 
ATOM     22  N   UNL     1      -1.510  12.025  21.581  0.00  0.00    +0.000 NA
ATOM     23  N   UNL     1      -2.757  12.525  21.840  0.00  0.00    +0.000 NA
ATOM     24  C   UNL     1      -3.636  12.670  20.835  0.00  0.00    +0.000 A 
ATOM     25  C   UNL     1      -3.314  12.341  19.541  0.00  0.00    +0.000 A 
ATOM     26  C   UNL     1      -2.036  11.846  19.276  0.00  0.00    +0.000 A 
BRANCH  26  27
ATOM     27  C   UNL     1      -1.719  11.584  17.852  0.00  0.00    +0.000 C 
ATOM     28  O   UNL     1      -1.880  10.487  17.342  0.00  0.00    +0.000 OA
BRANCH  27  29
ATOM     29  O   UNL     1      -1.288  12.656  17.155  0.00  0.00    +0.000 OA
ATOM     30  H   UNL     1      -0.874  13.344  17.725  0.00  0.00    +0.000 HD
ENDBRANCH  27  29
ENDBRANCH  26  27
ENDBRANCH  20  21
BRANCH  20  31
ATOM     31  C   UNL     1       1.220  12.104  20.554  0.00  0.00    +0.000 C 
BRANCH  31  33
ATOM     32  C   UNL     1       2.317  12.773  18.335  0.00  0.00    +0.000 C 
ATOM     33  C   UNL     1       1.524  13.220  19.553  0.00  0.00    +0.000 C 
ENDBRANCH  31  33
ENDBRANCH  20  31
ENDBRANCH  19  20
ENDBRANCH   1  19
TORSDOF 9
ENDMDL
MODEL 2
REMARK VINA RESULT:      -8.4      0.979      1.221
REMARK  Name = 
REMARK  10 active torsions:
REMARK  status: ('A' for Active; 'I' for Inactive)
REMARK    1  A    between atoms: C_1  and  C_2
REMARK    2  A    between atoms: C_2  and  C_3
REMARK    3  A    between atoms: C_3  and  N_4
REMARK    4  A    between atoms: N_4  and  C_5
REMARK    5  A    between atoms: N_4  and  C_23
REMARK    6  A    between atoms: C_5  and  C_6
REMARK    7  A    between atoms: C_9  and  C_10
REMARK    8  A    between atoms: C_15  and  C_16
REMARK    9  A    between atoms: C_28  and  C_29
REMARK   10  A    between atoms: C_29  and  O_31
REMARK                            x       y       z     vdW  Elec       q    Type
REMARK                         _______ _______ _______ _____ _____    ______ ____
ROOT
ATOM      1  C   UNL     1       0.877   9.338  19.881  0.00  0.00    +0.000 A 
ATOM      2  C   UNL     1       1.400   8.271  20.610  0.00  0.00    +0.000 A 
ATOM      3  C   UNL     1       2.225   7.318  19.987  0.00  0.00    +0.000 A 
ATOM      4  C   UNL     1       2.506   7.354  18.605  0.00  0.00    +0.000 A 
ATOM      5  C   UNL     1       1.906   8.392  17.881  0.00  0.00    +0.000 A 
ATOM      6  C   UNL     1       1.148   9.386  18.507  0.00  0.00    +0.000 A 
ENDROOT
BRANCH   4   7
ATOM      7  C   UNL     1       3.368   6.320  17.953  0.00  0.00    +0.000 A 
ATOM      8  C   UNL     1       4.350   6.753  17.027  0.00  0.00    +0.000 A 
ATOM      9  C   UNL     1       5.200   5.865  16.359  0.00  0.00    +0.000 A 
ATOM     10  C   UNL     1       5.118   4.506  16.617  0.00  0.00    +0.000 A 
ATOM     11  C   UNL     1       4.186   4.040  17.540  0.00  0.00    +0.000 A 
ATOM     12  C   UNL     1       3.300   4.922  18.202  0.00  0.00    +0.000 A 
BRANCH  12  13
ATOM     13  C   UNL     1       2.366   4.295  19.131  0.00  0.00    +0.000 A 
ATOM     14  N   UNL     1       2.731   3.974  20.421  0.00  0.00    +0.000 NA
ATOM     15  N   UNL     1       1.651   3.491  21.018  0.00  0.00    +0.000 NA
ATOM     16  N   UNL     1       0.704   3.531  20.076  0.00  0.00    +0.000 N 
ATOM     17  N   UNL     1       1.087   3.973  18.870  0.00  0.00    +0.000 NA
ATOM     18  H   UNL     1      -0.256   3.260  20.273  0.00  0.00    +0.000 HD
ENDBRANCH  12  13
ENDBRANCH   4   7
BRANCH   1  19
ATOM     19  C   UNL     1      -0.113  10.336  20.432  0.00  0.00    +0.000 C 
BRANCH  19  20
ATOM     20  N   UNL     1      -0.440  11.557  19.641  0.00  0.00    +0.000 N 
BRANCH  20  21
ATOM     21  C   UNL     1      -1.833  11.877  19.704  0.00  0.00    +0.000 A 
ATOM     22  N   UNL     1      -2.309  12.529  20.788  0.00  0.00    +0.000 NA
ATOM     23  N   UNL     1      -3.633  12.858  20.901  0.00  0.00    +0.000 NA
ATOM     24  C   UNL     1      -4.484  12.535  19.914  0.00  0.00    +0.000 A 
ATOM     25  C   UNL     1      -4.060  11.888  18.778  0.00  0.00    +0.000 A 
ATOM     26  C   UNL     1      -2.707  11.568  18.657  0.00  0.00    +0.000 A 
BRANCH  26  27
ATOM     27  C   UNL     1      -2.295  10.944  17.377  0.00  0.00    +0.000 C 
ATOM     28  O   UNL     1      -2.348   9.738  17.195  0.00  0.00    +0.000 OA
BRANCH  27  29
ATOM     29  O   UNL     1      -1.905  11.809  16.418  0.00  0.00    +0.000 OA
ATOM     30  H   UNL     1      -1.049  12.251  16.624  0.00  0.00    +0.000 HD
ENDBRANCH  27  29
ENDBRANCH  26  27
ENDBRANCH  20  21
BRANCH  20  31
ATOM     31  C   UNL     1       0.406  12.760  19.794  0.00  0.00    +0.000 C 
BRANCH  31  33
ATOM     32  C   UNL     1       2.414  12.937  18.210  0.00  0.00    +0.000 C 
ATOM     33  C   UNL     1       0.969  13.321  18.487  0.00  0.00    +0.000 C 
ENDBRANCH  31  33
ENDBRANCH  20  31
ENDBRANCH  19  20
ENDBRANCH   1  19
TORSDOF 9
ENDMDL
MODEL 3
REMARK VINA RESULT:      -8.4      0.212      1.106
REMARK  Name = 
REMARK  10 active torsions:
REMARK  status: ('A' for Active; 'I' for Inactive)
REMARK    1  A    between atoms: C_1  and  C_2
REMARK    2  A    between atoms: C_2  and  C_3
REMARK    3  A    between atoms: C_3  and  N_4
REMARK    4  A    between atoms: N_4  and  C_5
REMARK    5  A    between atoms: N_4  and  C_23
REMARK    6  A    between atoms: C_5  and  C_6
REMARK    7  A    between atoms: C_9  and  C_10
REMARK    8  A    between atoms: C_15  and  C_16
REMARK    9  A    between atoms: C_28  and  C_29
REMARK   10  A    between atoms: C_29  and  O_31
REMARK                            x       y       z     vdW  Elec       q    Type
REMARK                         _______ _______ _______ _____ _____    ______ ____
ROOT
ATOM      1  C   UNL     1       1.263   8.862  19.697  0.00  0.00    +0.000 A 
ATOM      2  C   UNL     1       1.678   9.158  18.399  0.00  0.00    +0.000 A 
ATOM      3  C   UNL     1       2.468   8.245  17.677  0.00  0.00    +0.000 A 
ATOM      4  C   UNL     1       2.926   7.036  18.242  0.00  0.00    +0.000 A 
ATOM      5  C   UNL     1       2.559   6.799  19.573  0.00  0.00    +0.000 A 
ATOM      6  C   UNL     1       1.712   7.664  20.270  0.00  0.00    +0.000 A 
ENDROOT
BRANCH   4   7
ATOM      7  C   UNL     1       3.783   6.085  17.468  0.00  0.00    +0.000 A 
ATOM      8  C   UNL     1       4.862   6.615  16.716  0.00  0.00    +0.000 A 
ATOM      9  C   UNL     1       5.715   5.811  15.954  0.00  0.00    +0.000 A 
ATOM     10  C   UNL     1       5.540   4.436  15.939  0.00  0.00    +0.000 A 
ATOM     11  C   UNL     1       4.509   3.872  16.687  0.00  0.00    +0.000 A 
ATOM     12  C   UNL     1       3.619   4.673  17.439  0.00  0.00    +0.000 A 
BRANCH  12  13
ATOM     13  C   UNL     1       2.578   3.950  18.161  0.00  0.00    +0.000 A 
ATOM     14  N   UNL     1       2.833   3.311  19.356  0.00  0.00    +0.000 NA
ATOM     15  N   UNL     1       1.680   2.816  19.781  0.00  0.00    +0.000 NA
ATOM     16  N   UNL     1       0.800   3.162  18.837  0.00  0.00    +0.000 N 
ATOM     17  N   UNL     1       1.294   3.823  17.781  0.00  0.00    +0.000 NA
ATOM     18  H   UNL     1      -0.190   2.951  18.927  0.00  0.00    +0.000 HD
ENDBRANCH  12  13
ENDBRANCH   4   7
BRANCH   1  19
ATOM     19  C   UNL     1       0.521   9.828  20.590  0.00  0.00    +0.000 C 
BRANCH  19  20
ATOM     20  N   UNL     1       0.356  11.245  20.158  0.00  0.00    +0.000 N 
BRANCH  20  21
ATOM     21  C   UNL     1      -0.955  11.741  20.442  0.00  0.00    +0.000 A 
ATOM     22  N   UNL     1      -1.270  12.074  21.714  0.00  0.00    +0.000 NA
ATOM     23  N   UNL     1      -2.510  12.552  22.043  0.00  0.00    +0.000 NA
ATOM     24  C   UNL     1      -3.439  12.702  21.084  0.00  0.00    +0.000 A 
ATOM     25  C   UNL     1      -3.176  12.400  19.770  0.00  0.00    +0.000 A 
ATOM     26  C   UNL     1      -1.906  11.928  19.435  0.00  0.00    +0.000 A 
BRANCH  26  27
ATOM     27  C   UNL     1      -1.657  11.695  17.992  0.00  0.00    +0.000 C 
ATOM     28  O   UNL     1      -1.913  10.631  17.452  0.00  0.00    +0.000 OA
BRANCH  27  29
ATOM     29  O   UNL     1      -1.172  12.757  17.316  0.00  0.00    +0.000 OA
ATOM     30  H   UNL     1      -0.270  13.023  17.613  0.00  0.00    +0.000 HD
ENDBRANCH  27  29
ENDBRANCH  26  27
ENDBRANCH  20  21
BRANCH  20  31
ATOM     31  C   UNL     1       1.402  12.229  20.509  0.00  0.00    +0.000 C 
BRANCH  31  33
ATOM     32  C   UNL     1       2.393  12.848  18.227  0.00  0.00    +0.000 C 
ATOM     33  C   UNL     1       1.640  13.317  19.461  0.00  0.00    +0.000 C 
ENDBRANCH  31  33
ENDBRANCH  20  31
ENDBRANCH  19  20
ENDBRANCH   1  19
TORSDOF 9
ENDMDL
MODEL 4
REMARK VINA RESULT:      -8.3      3.121      8.483
REMARK  Name = 
REMARK  10 active torsions:
REMARK  status: ('A' for Active; 'I' for Inactive)
REMARK    1  A    between atoms: C_1  and  C_2
REMARK    2  A    between atoms: C_2  and  C_3
REMARK    3  A    between atoms: C_3  and  N_4
REMARK    4  A    between atoms: N_4  and  C_5
REMARK    5  A    between atoms: N_4  and  C_23
REMARK    6  A    between atoms: C_5  and  C_6
REMARK    7  A    between atoms: C_9  and  C_10
REMARK    8  A    between atoms: C_15  and  C_16
REMARK    9  A    between atoms: C_28  and  C_29
REMARK   10  A    between atoms: C_29  and  O_31
REMARK                            x       y       z     vdW  Elec       q    Type
REMARK                         _______ _______ _______ _____ _____    ______ ____
ROOT
ATOM      1  C   UNL     1       2.208   7.382  19.244  0.00  0.00    +0.000 A 
ATOM      2  C   UNL     1       1.621   8.047  20.320  0.00  0.00    +0.000 A 
ATOM      3  C   UNL     1       1.151   9.365  20.174  0.00  0.00    +0.000 A 
ATOM      4  C   UNL     1       1.305  10.090  18.973  0.00  0.00    +0.000 A 
ATOM      5  C   UNL     1       1.967   9.425  17.932  0.00  0.00    +0.000 A 
ATOM      6  C   UNL     1       2.367   8.091  18.046  0.00  0.00    +0.000 A 
ENDROOT
BRANCH   4   7
ATOM      7  C   UNL     1       0.819  11.497  18.840  0.00  0.00    +0.000 A 
ATOM      8  C   UNL     1       1.710  12.549  19.167  0.00  0.00    +0.000 A 
ATOM      9  C   UNL     1       1.349  13.897  19.083  0.00  0.00    +0.000 A 
ATOM     10  C   UNL     1       0.085  14.247  18.637  0.00  0.00    +0.000 A 
ATOM     11  C   UNL     1      -0.813  13.246  18.278  0.00  0.00    +0.000 A 
ATOM     12  C   UNL     1      -0.474  11.878  18.385  0.00  0.00    +0.000 A 
BRANCH  12  13
ATOM     13  C   UNL     1      -1.517  10.937  17.989  0.00  0.00    +0.000 A 
ATOM     14  N   UNL     1      -2.758  10.933  18.591  0.00  0.00    +0.000 NA
ATOM     15  N   UNL     1      -3.486  10.020  17.966  0.00  0.00    +0.000 NA
ATOM     16  N   UNL     1      -2.665   9.515  17.040  0.00  0.00    +0.000 N 
ATOM     17  N   UNL     1      -1.416  10.002  17.028  0.00  0.00    +0.000 NA
ATOM     18  H   UNL     1      -2.980   8.817  16.372  0.00  0.00    +0.000 HD
ENDBRANCH  12  13
ENDBRANCH   4   7
BRANCH   1  19
ATOM     19  C   UNL     1       2.850   6.019  19.340  0.00  0.00    +0.000 C 
BRANCH  19  20
ATOM     20  N   UNL     1       3.566   5.462  18.157  0.00  0.00    +0.000 N 
BRANCH  20  21
ATOM     21  C   UNL     1       4.986   5.525  18.314  0.00  0.00    +0.000 A 
ATOM     22  N   UNL     1       5.525   5.282  19.530  0.00  0.00    +0.000 NA
ATOM     23  N   UNL     1       6.877   5.331  19.737  0.00  0.00    +0.000 NA
ATOM     24  C   UNL     1       7.696   5.620  18.712  0.00  0.00    +0.000 A 
ATOM     25  C   UNL     1       7.213   5.859  17.448  0.00  0.00    +0.000 A 
ATOM     26  C   UNL     1       5.835   5.793  17.236  0.00  0.00    +0.000 A 
BRANCH  26  27
ATOM     27  C   UNL     1       5.381   5.981  15.837  0.00  0.00    +0.000 C 
ATOM     28  O   UNL     1       5.044   7.071  15.404  0.00  0.00    +0.000 OA
BRANCH  27  29
ATOM     29  O   UNL     1       5.412   4.871  15.071  0.00  0.00    +0.000 OA
ATOM     30  H   UNL     1       5.923   4.993  14.237  0.00  0.00    +0.000 HD
ENDBRANCH  27  29
ENDBRANCH  26  27
ENDBRANCH  20  21
BRANCH  20  31
ATOM     31  C   UNL     1       3.134   4.162  17.602  0.00  0.00    +0.000 C 
BRANCH  31  33
ATOM     32  C   UNL     1       1.274   2.653  18.518  0.00  0.00    +0.000 C 
ATOM     33  C   UNL     1       1.633   3.885  17.704  0.00  0.00    +0.000 C 
ENDBRANCH  31  33
ENDBRANCH  20  31
ENDBRANCH  19  20
ENDBRANCH   1  19
TORSDOF 9
ENDMDL
MODEL 5
REMARK VINA RESULT:      -8.1      1.014      1.559
REMARK  Name = 
REMARK  10 active torsions:
REMARK  status: ('A' for Active; 'I' for Inactive)
REMARK    1  A    between atoms: C_1  and  C_2
REMARK    2  A    between atoms: C_2  and  C_3
REMARK    3  A    between atoms: C_3  and  N_4
REMARK    4  A    between atoms: N_4  and  C_5
REMARK    5  A    between atoms: N_4  and  C_23
REMARK    6  A    between atoms: C_5  and  C_6
REMARK    7  A    between atoms: C_9  and  C_10
REMARK    8  A    between atoms: C_15  and  C_16
REMARK    9  A    between atoms: C_28  and  C_29
REMARK   10  A    between atoms: C_29  and  O_31
REMARK                            x       y       z     vdW  Elec       q    Type
REMARK                         _______ _______ _______ _____ _____    ______ ____
ROOT
ATOM      1  C   UNL     1       1.053   9.351  19.491  0.00  0.00    +0.000 A 
ATOM      2  C   UNL     1       1.429   9.328  18.148  0.00  0.00    +0.000 A 
ATOM      3  C   UNL     1       2.186   8.259  17.638  0.00  0.00    +0.000 A 
ATOM      4  C   UNL     1       2.649   7.206  18.456  0.00  0.00    +0.000 A 
ATOM      5  C   UNL     1       2.323   7.293  19.815  0.00  0.00    +0.000 A 
ATOM      6  C   UNL     1       1.508   8.313  20.315  0.00  0.00    +0.000 A 
ENDROOT
BRANCH   4   7
ATOM      7  C   UNL     1       3.471   6.087  17.901  0.00  0.00    +0.000 A 
ATOM      8  C   UNL     1       4.477   6.398  16.953  0.00  0.00    +0.000 A 
ATOM      9  C   UNL     1       5.292   5.422  16.371  0.00  0.00    +0.000 A 
ATOM     10  C   UNL     1       5.151   4.094  16.740  0.00  0.00    +0.000 A 
ATOM     11  C   UNL     1       4.193   3.748  17.689  0.00  0.00    +0.000 A 
ATOM     12  C   UNL     1       3.341   4.718  18.265  0.00  0.00    +0.000 A 
BRANCH  12  13
ATOM     13  C   UNL     1       2.374   4.211  19.234  0.00  0.00    +0.000 A 
ATOM     14  N   UNL     1       2.718   3.979  20.549  0.00  0.00    +0.000 NA
ATOM     15  N   UNL     1       1.614   3.595  21.173  0.00  0.00    +0.000 NA
ATOM     16  N   UNL     1       0.674   3.602  20.223  0.00  0.00    +0.000 N 
ATOM     17  N   UNL     1       1.084   3.927  18.988  0.00  0.00    +0.000 NA
ATOM     18  H   UNL     1      -0.298   3.391  20.432  0.00  0.00    +0.000 HD
ENDBRANCH  12  13
ENDBRANCH   4   7
BRANCH   1  19
ATOM     19  C   UNL     1       0.351  10.512  20.154  0.00  0.00    +0.000 C 
BRANCH  19  20
ATOM     20  N   UNL     1      -0.097  11.667  19.325  0.00  0.00    +0.000 N 
BRANCH  20  21
ATOM     21  C   UNL     1      -1.482  11.964  19.528  0.00  0.00    +0.000 A 
ATOM     22  N   UNL     1      -1.851  12.663  20.625  0.00  0.00    +0.000 NA
ATOM     23  N   UNL     1      -3.161  12.973  20.869  0.00  0.00    +0.000 NA
ATOM     24  C   UNL     1      -4.109  12.583  20.001  0.00  0.00    +0.000 A 
ATOM     25  C   UNL     1      -3.799  11.886  18.858  0.00  0.00    +0.000 A 
ATOM     26  C   UNL     1      -2.460  11.585  18.603  0.00  0.00    +0.000 A 
BRANCH  26  27
ATOM     27  C   UNL     1      -2.178  10.903  17.317  0.00  0.00    +0.000 C 
ATOM     28  O   UNL     1      -2.063   9.690  17.236  0.00  0.00    +0.000 OA
BRANCH  27  29
ATOM     29  O   UNL     1      -2.106  11.715  16.242  0.00  0.00    +0.000 OA
ATOM     30  H   UNL     1      -1.798  11.251  15.429  0.00  0.00    +0.000 HD
ENDBRANCH  27  29
ENDBRANCH  26  27
ENDBRANCH  20  21
BRANCH  20  31
ATOM     31  C   UNL     1       0.727  12.893  19.296  0.00  0.00    +0.000 C 
BRANCH  31  33
ATOM     32  C   UNL     1       2.769  14.139  20.220  0.00  0.00    +0.000 C 
ATOM     33  C   UNL     1       1.820  12.960  20.364  0.00  0.00    +0.000 C 
ENDBRANCH  31  33
ENDBRANCH  20  31
ENDBRANCH  19  20
ENDBRANCH   1  19
TORSDOF 9
ENDMDL
MODEL 6
REMARK VINA RESULT:      -8.1      3.261      8.904
REMARK  Name = 
REMARK  10 active torsions:
REMARK  status: ('A' for Active; 'I' for Inactive)
REMARK    1  A    between atoms: C_1  and  C_2
REMARK    2  A    between atoms: C_2  and  C_3
REMARK    3  A    between atoms: C_3  and  N_4
REMARK    4  A    between atoms: N_4  and  C_5
REMARK    5  A    between atoms: N_4  and  C_23
REMARK    6  A    between atoms: C_5  and  C_6
REMARK    7  A    between atoms: C_9  and  C_10
REMARK    8  A    between atoms: C_15  and  C_16
REMARK    9  A    between atoms: C_28  and  C_29
REMARK   10  A    between atoms: C_29  and  O_31
REMARK                            x       y       z     vdW  Elec       q    Type
REMARK                         _______ _______ _______ _____ _____    ______ ____
ROOT
ATOM      1  C   UNL     1       2.473   7.824  18.364  0.00  0.00    +0.000 A 
ATOM      2  C   UNL     1       2.227   7.467  19.690  0.00  0.00    +0.000 A 
ATOM      3  C   UNL     1       1.361   8.237  20.486  0.00  0.00    +0.000 A 
ATOM      4  C   UNL     1       0.760   9.423  20.015  0.00  0.00    +0.000 A 
ATOM      5  C   UNL     1       1.085   9.801  18.706  0.00  0.00    +0.000 A 
ATOM      6  C   UNL     1       1.884   9.001  17.884  0.00  0.00    +0.000 A 
ENDROOT
BRANCH   4   7
ATOM      7  C   UNL     1      -0.142  10.242  20.882  0.00  0.00    +0.000 A 
ATOM      8  C   UNL     1      -0.049  10.083  22.287  0.00  0.00    +0.000 A 
ATOM      9  C   UNL     1      -0.853  10.796  23.182  0.00  0.00    +0.000 A 
ATOM     10  C   UNL     1      -1.765  11.723  22.703  0.00  0.00    +0.000 A 
ATOM     11  C   UNL     1      -1.870  11.931  21.331  0.00  0.00    +0.000 A 
ATOM     12  C   UNL     1      -1.085  11.197  20.411  0.00  0.00    +0.000 A 
BRANCH  12  13
ATOM     13  C   UNL     1      -1.310  11.507  19.003  0.00  0.00    +0.000 A 
ATOM     14  N   UNL     1      -2.109  10.716  18.204  0.00  0.00    +0.000 NA
ATOM     15  N   UNL     1      -2.162  11.299  17.016  0.00  0.00    +0.000 NA
ATOM     16  N   UNL     1      -1.400  12.389  17.145  0.00  0.00    +0.000 N 
ATOM     17  N   UNL     1      -0.802  12.556  18.333  0.00  0.00    +0.000 NA
ATOM     18  H   UNL     1      -1.297  13.061  16.389  0.00  0.00    +0.000 HD
ENDBRANCH  12  13
ENDBRANCH   4   7
BRANCH   1  19
ATOM     19  C   UNL     1       3.479   7.133  17.474  0.00  0.00    +0.000 C 
BRANCH  19  20
ATOM     20  N   UNL     1       3.774   5.688  17.687  0.00  0.00    +0.000 N 
BRANCH  20  21
ATOM     21  C   UNL     1       5.144   5.468  18.035  0.00  0.00    +0.000 A 
ATOM     22  N   UNL     1       5.510   5.524  19.336  0.00  0.00    +0.000 NA
ATOM     23  N   UNL     1       6.806   5.324  19.724  0.00  0.00    +0.000 NA
ATOM     24  C   UNL     1       7.743   5.059  18.799  0.00  0.00    +0.000 A 
ATOM     25  C   UNL     1       7.435   4.970  17.463  0.00  0.00    +0.000 A 
ATOM     26  C   UNL     1       6.108   5.158  17.071  0.00  0.00    +0.000 A 
BRANCH  26  27
ATOM     27  C   UNL     1       5.822   4.971  15.628  0.00  0.00    +0.000 C 
ATOM     28  O   UNL     1       5.635   3.868  15.141  0.00  0.00    +0.000 OA
BRANCH  27  29
ATOM     29  O   UNL     1       5.738   6.109  14.909  0.00  0.00    +0.000 OA
ATOM     30  H   UNL     1       6.343   6.816  15.234  0.00  0.00    +0.000 HD
ENDBRANCH  27  29
ENDBRANCH  26  27
ENDBRANCH  20  21
BRANCH  20  31
ATOM     31  C   UNL     1       2.861   4.884  18.527  0.00  0.00    +0.000 C 
BRANCH  31  33
ATOM     32  C   UNL     1       1.126   2.996  18.522  0.00  0.00    +0.000 C 
ATOM     33  C   UNL     1       1.763   4.146  17.759  0.00  0.00    +0.000 C 
ENDBRANCH  31  33
ENDBRANCH  20  31
ENDBRANCH  19  20
ENDBRANCH   1  19
TORSDOF 9
ENDMDL
MODEL 7
REMARK VINA RESULT:      -8.1      2.046      3.024
REMARK  Name = 
REMARK  10 active torsions:
REMARK  status: ('A' for Active; 'I' for Inactive)
REMARK    1  A    between atoms: C_1  and  C_2
REMARK    2  A    between atoms: C_2  and  C_3
REMARK    3  A    between atoms: C_3  and  N_4
REMARK    4  A    between atoms: N_4  and  C_5
REMARK    5  A    between atoms: N_4  and  C_23
REMARK    6  A    between atoms: C_5  and  C_6
REMARK    7  A    between atoms: C_9  and  C_10
REMARK    8  A    between atoms: C_15  and  C_16
REMARK    9  A    between atoms: C_28  and  C_29
REMARK   10  A    between atoms: C_29  and  O_31
REMARK                            x       y       z     vdW  Elec       q    Type
REMARK                         _______ _______ _______ _____ _____    ______ ____
ROOT
ATOM      1  C   UNL     1       1.409   9.304  19.251  0.00  0.00    +0.000 A 
ATOM      2  C   UNL     1       1.886   9.274  17.941  0.00  0.00    +0.000 A 
ATOM      3  C   UNL     1       2.566   8.143  17.455  0.00  0.00    +0.000 A 
ATOM      4  C   UNL     1       2.851   7.028  18.272  0.00  0.00    +0.000 A 
ATOM      5  C   UNL     1       2.428   7.116  19.605  0.00  0.00    +0.000 A 
ATOM      6  C   UNL     1       1.686   8.204  20.073  0.00  0.00    +0.000 A 
ENDROOT
BRANCH   4   7
ATOM      7  C   UNL     1       3.593   5.841  17.746  0.00  0.00    +0.000 A 
ATOM      8  C   UNL     1       4.603   6.058  16.776  0.00  0.00    +0.000 A 
ATOM      9  C   UNL     1       5.348   5.014  16.217  0.00  0.00    +0.000 A 
ATOM     10  C   UNL     1       5.130   3.710  16.632  0.00  0.00    +0.000 A 
ATOM     11  C   UNL     1       4.166   3.456  17.604  0.00  0.00    +0.000 A 
ATOM     12  C   UNL     1       3.384   4.496  18.158  0.00  0.00    +0.000 A 
BRANCH  12  13
ATOM     13  C   UNL     1       2.401   4.083  19.154  0.00  0.00    +0.000 A 
ATOM     14  N   UNL     1       2.743   3.895  20.476  0.00  0.00    +0.000 NA
ATOM     15  N   UNL     1       1.627   3.595  21.124  0.00  0.00    +0.000 NA
ATOM     16  N   UNL     1       0.681   3.605  20.180  0.00  0.00    +0.000 N 
ATOM     17  N   UNL     1       1.096   3.853  18.930  0.00  0.00    +0.000 NA
ATOM     18  H   UNL     1      -0.299   3.454  20.405  0.00  0.00    +0.000 HD
ENDBRANCH  12  13
ENDBRANCH   4   7
BRANCH   1  19
ATOM     19  C   UNL     1       0.780  10.517  19.896  0.00  0.00    +0.000 C 
BRANCH  19  20
ATOM     20  N   UNL     1      -0.703  10.658  19.898  0.00  0.00    +0.000 N 
BRANCH  20  21
ATOM     21  C   UNL     1      -1.163  11.442  21.003  0.00  0.00    +0.000 A 
ATOM     22  N   UNL     1      -1.775  12.623  20.762  0.00  0.00    +0.000 NA
ATOM     23  N   UNL     1      -2.233  13.413  21.781  0.00  0.00    +0.000 NA
ATOM     24  C   UNL     1      -2.081  13.011  23.053  0.00  0.00    +0.000 A 
ATOM     25  C   UNL     1      -1.484  11.814  23.365  0.00  0.00    +0.000 A 
ATOM     26  C   UNL     1      -1.033  11.001  22.324  0.00  0.00    +0.000 A 
BRANCH  26  27
ATOM     27  C   UNL     1      -0.471   9.687  22.718  0.00  0.00    +0.000 C 
ATOM     28  O   UNL     1      -0.964   8.633  22.349  0.00  0.00    +0.000 OA
BRANCH  27  29
ATOM     29  O   UNL     1       0.646   9.744  23.472  0.00  0.00    +0.000 OA
ATOM     30  H   UNL     1       0.528  10.273  24.295  0.00  0.00    +0.000 HD
ENDBRANCH  27  29
ENDBRANCH  26  27
ENDBRANCH  20  21
BRANCH  20  31
ATOM     31  C   UNL     1      -1.393  11.024  18.643  0.00  0.00    +0.000 C 
BRANCH  31  33
ATOM     32  C   UNL     1      -3.218   9.956  17.193  0.00  0.00    +0.000 C 
ATOM     33  C   UNL     1      -1.818   9.840  17.773  0.00  0.00    +0.000 C 
ENDBRANCH  31  33
ENDBRANCH  20  31
ENDBRANCH  19  20
ENDBRANCH   1  19
TORSDOF 9
ENDMDL
MODEL 8
REMARK VINA RESULT:      -8.1      2.154      2.947
REMARK  Name = 
REMARK  10 active torsions:
REMARK  status: ('A' for Active; 'I' for Inactive)
REMARK    1  A    between atoms: C_1  and  C_2
REMARK    2  A    between atoms: C_2  and  C_3
REMARK    3  A    between atoms: C_3  and  N_4
REMARK    4  A    between atoms: N_4  and  C_5
REMARK    5  A    between atoms: N_4  and  C_23
REMARK    6  A    between atoms: C_5  and  C_6
REMARK    7  A    between atoms: C_9  and  C_10
REMARK    8  A    between atoms: C_15  and  C_16
REMARK    9  A    between atoms: C_28  and  C_29
REMARK   10  A    between atoms: C_29  and  O_31
REMARK                            x       y       z     vdW  Elec       q    Type
REMARK                         _______ _______ _______ _____ _____    ______ ____
ROOT
ATOM      1  C   UNL     1       1.481   9.306  19.188  0.00  0.00    +0.000 A 
ATOM      2  C   UNL     1       1.699   8.210  20.023  0.00  0.00    +0.000 A 
ATOM      3  C   UNL     1       2.409   7.089  19.558  0.00  0.00    +0.000 A 
ATOM      4  C   UNL     1       2.871   6.989  18.229  0.00  0.00    +0.000 A 
ATOM      5  C   UNL     1       2.571   8.069  17.389  0.00  0.00    +0.000 A 
ATOM      6  C   UNL     1       1.934   9.218  17.865  0.00  0.00    +0.000 A 
ENDROOT
BRANCH   4   7
ATOM      7  C   UNL     1       3.605   5.780  17.743  0.00  0.00    +0.000 A 
ATOM      8  C   UNL     1       4.629   5.960  16.779  0.00  0.00    +0.000 A 
ATOM      9  C   UNL     1       5.368   4.893  16.257  0.00  0.00    +0.000 A 
ATOM     10  C   UNL     1       5.131   3.604  16.705  0.00  0.00    +0.000 A 
ATOM     11  C   UNL     1       4.153   3.386  17.672  0.00  0.00    +0.000 A 
ATOM     12  C   UNL     1       3.377   4.449  18.188  0.00  0.00    +0.000 A 
BRANCH  12  13
ATOM     13  C   UNL     1       2.378   4.074  19.184  0.00  0.00    +0.000 A 
ATOM     14  N   UNL     1       2.702   3.927  20.517  0.00  0.00    +0.000 NA
ATOM     15  N   UNL     1       1.576   3.654  21.159  0.00  0.00    +0.000 NA
ATOM     16  N   UNL     1       0.643   3.638  20.202  0.00  0.00    +0.000 N 
ATOM     17  N   UNL     1       1.075   3.842  18.950  0.00  0.00    +0.000 NA
ATOM     18  H   UNL     1      -0.341   3.498  20.418  0.00  0.00    +0.000 HD
ENDBRANCH  12  13
ENDBRANCH   4   7
BRANCH   1  19
ATOM     19  C   UNL     1       0.628  10.496  19.557  0.00  0.00    +0.000 C 
BRANCH  19  20
ATOM     20  N   UNL     1      -0.780  10.279  19.996  0.00  0.00    +0.000 N 
BRANCH  20  21
ATOM     21  C   UNL     1      -1.177  11.220  20.999  0.00  0.00    +0.000 A 
ATOM     22  N   UNL     1      -1.848  12.333  20.627  0.00  0.00    +0.000 NA
ATOM     23  N   UNL     1      -2.251  13.266  21.543  0.00  0.00    +0.000 NA
ATOM     24  C   UNL     1      -1.983  13.076  22.846  0.00  0.00    +0.000 A 
ATOM     25  C   UNL     1      -1.321  11.957  23.291  0.00  0.00    +0.000 A 
ATOM     26  C   UNL     1      -0.926  10.999  22.356  0.00  0.00    +0.000 A 
BRANCH  26  27
ATOM     27  C   UNL     1      -0.289   9.777  22.904  0.00  0.00    +0.000 C 
ATOM     28  O   UNL     1       0.852   9.778  23.338  0.00  0.00    +0.000 OA
BRANCH  27  29
ATOM     29  O   UNL     1      -1.077   8.682  22.928  0.00  0.00    +0.000 OA
ATOM     30  H   UNL     1      -0.571   7.847  23.056  0.00  0.00    +0.000 HD
ENDBRANCH  27  29
ENDBRANCH  26  27
ENDBRANCH  20  21
BRANCH  20  31
ATOM     31  C   UNL     1      -1.831  10.093  18.973  0.00  0.00    +0.000 C 
BRANCH  31  33
ATOM     32  C   UNL     1      -2.353  10.005  16.464  0.00  0.00    +0.000 C 
ATOM     33  C   UNL     1      -1.437  10.526  17.560  0.00  0.00    +0.000 C 
ENDBRANCH  31  33
ENDBRANCH  20  31
ENDBRANCH  19  20
ENDBRANCH   1  19
TORSDOF 9
ENDMDL
MODEL 9
REMARK VINA RESULT:      -8.0      2.856      3.840
REMARK  Name = 
REMARK  10 active torsions:
REMARK  status: ('A' for Active; 'I' for Inactive)
REMARK    1  A    between atoms: C_1  and  C_2
REMARK    2  A    between atoms: C_2  and  C_3
REMARK    3  A    between atoms: C_3  and  N_4
REMARK    4  A    between atoms: N_4  and  C_5
REMARK    5  A    between atoms: N_4  and  C_23
REMARK    6  A    between atoms: C_5  and  C_6
REMARK    7  A    between atoms: C_9  and  C_10
REMARK    8  A    between atoms: C_15  and  C_16
REMARK    9  A    between atoms: C_28  and  C_29
REMARK   10  A    between atoms: C_29  and  O_31
REMARK                            x       y       z     vdW  Elec       q    Type
REMARK                         _______ _______ _______ _____ _____    ______ ____
ROOT
ATOM      1  C   UNL     1       1.618   9.025  19.424  0.00  0.00    +0.000 A 
ATOM      2  C   UNL     1       1.778   7.953  20.302  0.00  0.00    +0.000 A 
ATOM      3  C   UNL     1       2.241   6.711  19.833  0.00  0.00    +0.000 A 
ATOM      4  C   UNL     1       2.500   6.470  18.467  0.00  0.00    +0.000 A 
ATOM      5  C   UNL     1       2.257   7.541  17.596  0.00  0.00    +0.000 A 
ATOM      6  C   UNL     1       1.871   8.800  18.064  0.00  0.00    +0.000 A 
ENDROOT
BRANCH   4   7
ATOM      7  C   UNL     1       2.971   5.137  17.981  0.00  0.00    +0.000 A 
ATOM      8  C   UNL     1       2.057   4.055  18.000  0.00  0.00    +0.000 A 
ATOM      9  C   UNL     1       2.403   2.768  17.575  0.00  0.00    +0.000 A 
ATOM     10  C   UNL     1       3.675   2.522  17.083  0.00  0.00    +0.000 A 
ATOM     11  C   UNL     1       4.596   3.564  17.020  0.00  0.00    +0.000 A 
ATOM     12  C   UNL     1       4.272   4.863  17.474  0.00  0.00    +0.000 A 
BRANCH  12  13
ATOM     13  C   UNL     1       5.338   5.854  17.363  0.00  0.00    +0.000 A 
ATOM     14  N   UNL     1       6.303   5.992  18.338  0.00  0.00    +0.000 NA
ATOM     15  N   UNL     1       7.151   6.916  17.911  0.00  0.00    +0.000 NA
ATOM     16  N   UNL     1       6.663   7.294  16.726  0.00  0.00    +0.000 N 
ATOM     17  N   UNL     1       5.517   6.713  16.345  0.00  0.00    +0.000 NA
ATOM     18  H   UNL     1       7.147   7.970  16.140  0.00  0.00    +0.000 HD
ENDBRANCH  12  13
ENDBRANCH   4   7
BRANCH   1  19
ATOM     19  C   UNL     1       1.012  10.353  19.811  0.00  0.00    +0.000 C 
BRANCH  19  20
ATOM     20  N   UNL     1      -0.467  10.527  19.756  0.00  0.00    +0.000 N 
BRANCH  20  21
ATOM     21  C   UNL     1      -0.945  11.375  20.804  0.00  0.00    +0.000 A 
ATOM     22  N   UNL     1      -1.494  12.569  20.486  0.00  0.00    +0.000 NA
ATOM     23  N   UNL     1      -1.965  13.420  21.448  0.00  0.00    +0.000 NA
ATOM     24  C   UNL     1      -1.890  13.066  22.742  0.00  0.00    +0.000 A 
ATOM     25  C   UNL     1      -1.360  11.860  23.131  0.00  0.00    +0.000 A 
ATOM     26  C   UNL     1      -0.895  10.986  22.147  0.00  0.00    +0.000 A 
BRANCH  26  27
ATOM     27  C   UNL     1      -0.409   9.668  22.621  0.00  0.00    +0.000 C 
ATOM     28  O   UNL     1      -0.922   8.620  22.263  0.00  0.00    +0.000 OA
BRANCH  27  29
ATOM     29  O   UNL     1       0.665   9.713  23.435  0.00  0.00    +0.000 OA
ATOM     30  H   UNL     1       1.506   9.897  22.954  0.00  0.00    +0.000 HD
ENDBRANCH  27  29
ENDBRANCH  26  27
ENDBRANCH  20  21
BRANCH  20  31
ATOM     31  C   UNL     1      -1.105  10.845  18.461  0.00  0.00    +0.000 C 
BRANCH  31  33
ATOM     32  C   UNL     1      -2.600   9.993  16.560  0.00  0.00    +0.000 C 
ATOM     33  C   UNL     1      -2.185   9.857  18.016  0.00  0.00    +0.000 C 
ENDBRANCH  31  33
ENDBRANCH  20  31
ENDBRANCH  19  20
ENDBRANCH   1  19
TORSDOF 9
ENDMDL
