MODEL 1
REMARK VINA RESULT:      -8.1      0.000      0.000
REMARK  Name = 
REMARK  4 active torsions:
REMARK  status: ('A' for Active; 'I' for Inactive)
REMARK    1  A    between atoms: C_2  and  C_3
REMARK    2  A    between atoms: C_9  and  C_10
REMARK    3  A    between atoms: C_22  and  N_23
REMARK    4  A    between atoms: C_27  and  C_28
REMARK                            x       y       z     vdW  Elec       q    Type
REMARK                         _______ _______ _______ _____ _____    ______ ____
ROOT
ATOM      1  O   UNL     1       1.015  11.724  19.908  0.00  0.00    +0.000 OA
ATOM      2  C   UNL     1       0.159  10.842  19.919  0.00  0.00    +0.000 C 
ATOM      3  N   UNL     1       0.308   9.678  20.650  0.00  0.00    +0.000 N 
ATOM      4  C   UNL     1       1.486   9.387  21.447  0.00  0.00    +0.000 C 
ATOM      5  C   UNL     1       0.986   9.731  22.866  0.00  0.00    +0.000 C 
ATOM      6  C   UNL     1      -0.520   9.390  22.779  0.00  0.00    +0.000 C 
ATOM      7  C   UNL     1      -0.654   8.841  21.343  0.00  0.00    +0.000 C 
ATOM      8  C   UNL     1       0.036   7.468  21.295  0.00  0.00    +0.000 C 
ATOM      9  C   UNL     1       1.544   7.836  21.327  0.00  0.00    +0.000 C 
ENDROOT
BRANCH   9  10
ATOM     10  N   UNL     1       2.226   7.425  20.101  0.00  0.00    +0.000 N 
ATOM     11  C   UNL     1       2.341   6.088  19.768  0.00  0.00    +0.000 A 
ATOM     12  C   UNL     1       2.420   5.051  20.700  0.00  0.00    +0.000 A 
ATOM     13  N   UNL     1       2.501   3.736  20.375  0.00  0.00    +0.000 NA
ATOM     14  C   UNL     1       2.543   3.459  19.044  0.00  0.00    +0.000 A 
ATOM     15  C   UNL     1       2.513   4.489  18.112  0.00  0.00    +0.000 A 
ATOM     16  N   UNL     1       2.404   5.800  18.453  0.00  0.00    +0.000 NA
ATOM     17  H   UNL     1       1.989   7.967  19.266  0.00  0.00    +0.000 HD
BRANCH  14  18
ATOM     18  C   UNL     1       2.596   2.030  18.551  0.00  0.00    +0.000 C 
ATOM     19  F   UNL     1       3.779   1.398  18.793  0.00  0.00    +0.000 F 
ATOM     20  F   UNL     1       1.637   1.247  19.126  0.00  0.00    +0.000 F 
ATOM     21  F   UNL     1       2.390   1.928  17.206  0.00  0.00    +0.000 F 
ENDBRANCH  14  18
ENDBRANCH   9  10
BRANCH   2  22
ATOM     22  C   UNL     1      -1.071  11.029  19.100  0.00  0.00    +0.000 A 
ATOM     23  C   UNL     1      -1.209  10.238  17.946  0.00  0.00    +0.000 A 
ATOM     24  C   UNL     1      -2.338  10.349  17.151  0.00  0.00    +0.000 A 
ATOM     25  F   UNL     1      -2.421   9.628  16.027  0.00  0.00    +0.000 F 
ATOM     26  C   UNL     1      -3.380  11.186  17.508  0.00  0.00    +0.000 A 
ATOM     27  C   UNL     1      -3.281  11.929  18.687  0.00  0.00    +0.000 A 
ATOM     28  C   UNL     1      -2.128  11.881  19.511  0.00  0.00    +0.000 A 
BRANCH  28  29
ATOM     29  C   UNL     1      -2.108  12.686  20.753  0.00  0.00    +0.000 A 
ATOM     30  N   UNL     1      -1.601  13.934  20.670  0.00  0.00    +0.000 NA
ATOM     31  C   UNL     1      -1.677  14.692  21.783  0.00  0.00    +0.000 A 
ATOM     32  C   UNL     1      -2.238  14.254  22.955  0.00  0.00    +0.000 A 
ATOM     33  C   UNL     1      -2.682  12.952  22.950  0.00  0.00    +0.000 A 
ATOM     34  N   UNL     1      -2.583  12.139  21.882  0.00  0.00    +0.000 NA
ENDBRANCH  28  29
ENDBRANCH   2  22
TORSDOF 4
ENDMDL
MODEL 2
REMARK VINA RESULT:      -8.1      0.275      1.079
REMARK  Name = 
REMARK  4 active torsions:
REMARK  status: ('A' for Active; 'I' for Inactive)
REMARK    1  A    between atoms: C_2  and  C_3
REMARK    2  A    between atoms: C_9  and  C_10
REMARK    3  A    between atoms: C_22  and  N_23
REMARK    4  A    between atoms: C_27  and  C_28
REMARK                            x       y       z     vdW  Elec       q    Type
REMARK                         _______ _______ _______ _____ _____    ______ ____
ROOT
ATOM      1  O   UNL     1       1.137  11.753  19.966  0.00  0.00    +0.000 OA
ATOM      2  C   UNL     1       0.249  10.904  19.985  0.00  0.00    +0.000 C 
ATOM      3  N   UNL     1       0.374   9.719  20.686  0.00  0.00    +0.000 N 
ATOM      4  C   UNL     1       1.563   9.367  21.440  0.00  0.00    +0.000 C 
ATOM      5  C   UNL     1       1.120   9.697  22.881  0.00  0.00    +0.000 C 
ATOM      6  C   UNL     1      -0.401   9.414  22.833  0.00  0.00    +0.000 C 
ATOM      7  C   UNL     1      -0.597   8.903  21.390  0.00  0.00    +0.000 C 
ATOM      8  C   UNL     1       0.038   7.507  21.292  0.00  0.00    +0.000 C 
ATOM      9  C   UNL     1       1.559   7.817  21.287  0.00  0.00    +0.000 C 
ENDROOT
BRANCH   9  10
ATOM     10  N   UNL     1       2.189   7.408  20.031  0.00  0.00    +0.000 N 
ATOM     11  C   UNL     1       2.325   6.070  19.711  0.00  0.00    +0.000 A 
ATOM     12  C   UNL     1       2.483   5.050  20.650  0.00  0.00    +0.000 A 
ATOM     13  N   UNL     1       2.586   3.733  20.338  0.00  0.00    +0.000 NA
ATOM     14  C   UNL     1       2.567   3.438  19.010  0.00  0.00    +0.000 A 
ATOM     15  C   UNL     1       2.459   4.453  18.068  0.00  0.00    +0.000 A 
ATOM     16  N   UNL     1       2.329   5.766  18.397  0.00  0.00    +0.000 NA
ATOM     17  H   UNL     1       1.893   7.931  19.203  0.00  0.00    +0.000 HD
BRANCH  14  18
ATOM     18  C   UNL     1       2.637   2.005  18.534  0.00  0.00    +0.000 C 
ATOM     19  F   UNL     1       2.473   1.852  17.190  0.00  0.00    +0.000 F 
ATOM     20  F   UNL     1       3.834   1.418  18.826  0.00  0.00    +0.000 F 
ATOM     21  F   UNL     1       1.691   1.210  19.115  0.00  0.00    +0.000 F 
ENDBRANCH  14  18
ENDBRANCH   9  10
BRANCH   2  22
ATOM     22  C   UNL     1      -0.998  11.154  19.207  0.00  0.00    +0.000 A 
ATOM     23  C   UNL     1      -1.156  10.462  17.994  0.00  0.00    +0.000 A 
ATOM     24  C   UNL     1      -2.300  10.635  17.233  0.00  0.00    +0.000 A 
ATOM     25  F   UNL     1      -2.404  10.009  16.054  0.00  0.00    +0.000 F 
ATOM     26  C   UNL     1      -3.337  11.436  17.677  0.00  0.00    +0.000 A 
ATOM     27  C   UNL     1      -3.216  12.079  18.912  0.00  0.00    +0.000 A 
ATOM     28  C   UNL     1      -2.047  11.966  19.707  0.00  0.00    +0.000 A 
BRANCH  28  29
ATOM     29  C   UNL     1      -2.005  12.666  21.011  0.00  0.00    +0.000 A 
ATOM     30  N   UNL     1      -2.622  12.067  22.052  0.00  0.00    +0.000 NA
ATOM     31  C   UNL     1      -2.495  12.665  23.254  0.00  0.00    +0.000 A 
ATOM     32  C   UNL     1      -1.780  13.819  23.449  0.00  0.00    +0.000 A 
ATOM     33  C   UNL     1      -1.230  14.375  22.317  0.00  0.00    +0.000 A 
ATOM     34  N   UNL     1      -1.370  13.845  21.087  0.00  0.00    +0.000 NA
ENDBRANCH  28  29
ENDBRANCH   2  22
TORSDOF 4
ENDMDL
MODEL 3
REMARK VINA RESULT:      -7.7      0.652      1.018
REMARK  Name = 
REMARK  4 active torsions:
REMARK  status: ('A' for Active; 'I' for Inactive)
REMARK    1  A    between atoms: C_2  and  C_3
REMARK    2  A    between atoms: C_9  and  C_10
REMARK    3  A    between atoms: C_22  and  N_23
REMARK    4  A    between atoms: C_27  and  C_28
REMARK                            x       y       z     vdW  Elec       q    Type
REMARK                         _______ _______ _______ _____ _____    ______ ____
ROOT
ATOM      1  O   UNL     1       0.723  11.846  18.985  0.00  0.00    +0.000 OA
ATOM      2  C   UNL     1      -0.084  10.938  19.167  0.00  0.00    +0.000 C 
ATOM      3  N   UNL     1       0.169   9.887  20.029  0.00  0.00    +0.000 N 
ATOM      4  C   UNL     1       1.406   9.755  20.777  0.00  0.00    +0.000 C 
ATOM      5  C   UNL     1       0.976  10.261  22.170  0.00  0.00    +0.000 C 
ATOM      6  C   UNL     1      -0.513   9.846  22.229  0.00  0.00    +0.000 C 
ATOM      7  C   UNL     1      -0.705   9.108  20.887  0.00  0.00    +0.000 C 
ATOM      8  C   UNL     1       0.051   7.772  20.970  0.00  0.00    +0.000 C 
ATOM      9  C   UNL     1       1.537   8.206  20.854  0.00  0.00    +0.000 C 
ENDROOT
BRANCH   9  10
ATOM     10  N   UNL     1       2.164   7.667  19.648  0.00  0.00    +0.000 N 
ATOM     11  C   UNL     1       2.290   6.302  19.464  0.00  0.00    +0.000 A 
ATOM     12  C   UNL     1       2.438   5.381  20.503  0.00  0.00    +0.000 A 
ATOM     13  N   UNL     1       2.531   4.038  20.325  0.00  0.00    +0.000 NA
ATOM     14  C   UNL     1       2.511   3.611  19.034  0.00  0.00    +0.000 A 
ATOM     15  C   UNL     1       2.411   4.526  17.994  0.00  0.00    +0.000 A 
ATOM     16  N   UNL     1       2.293   5.867  18.188  0.00  0.00    +0.000 NA
ATOM     17  H   UNL     1       1.873   8.106  18.771  0.00  0.00    +0.000 HD
BRANCH  14  18
ATOM     18  C   UNL     1       2.569   2.136  18.706  0.00  0.00    +0.000 C 
ATOM     19  F   UNL     1       3.739   1.530  19.054  0.00  0.00    +0.000 F 
ATOM     20  F   UNL     1       1.587   1.425  19.334  0.00  0.00    +0.000 F 
ATOM     21  F   UNL     1       2.403   1.886  17.374  0.00  0.00    +0.000 F 
ENDBRANCH  14  18
ENDBRANCH   9  10
BRANCH   2  22
ATOM     22  C   UNL     1      -1.370  10.962  18.414  0.00  0.00    +0.000 A 
ATOM     23  C   UNL     1      -1.487  10.109  17.303  0.00  0.00    +0.000 A 
ATOM     24  C   UNL     1      -2.662  10.069  16.571  0.00  0.00    +0.000 A 
ATOM     25  F   UNL     1      -2.731   9.292  15.483  0.00  0.00    +0.000 F 
ATOM     26  C   UNL     1      -3.765  10.811  16.954  0.00  0.00    +0.000 A 
ATOM     27  C   UNL     1      -3.680  11.613  18.095  0.00  0.00    +0.000 A 
ATOM     28  C   UNL     1      -2.485  11.719  18.851  0.00  0.00    +0.000 A 
BRANCH  28  29
ATOM     29  C   UNL     1      -2.482  12.579  20.057  0.00  0.00    +0.000 A 
ATOM     30  N   UNL     1      -3.385  12.294  21.019  0.00  0.00    +0.000 NA
ATOM     31  C   UNL     1      -3.310  13.022  22.153  0.00  0.00    +0.000 A 
ATOM     32  C   UNL     1      -2.374  14.003  22.355  0.00  0.00    +0.000 A 
ATOM     33  C   UNL     1      -1.531  14.248  21.297  0.00  0.00    +0.000 A 
ATOM     34  N   UNL     1      -1.598  13.586  20.126  0.00  0.00    +0.000 NA
ENDBRANCH  28  29
ENDBRANCH   2  22
TORSDOF 4
ENDMDL
MODEL 4
REMARK VINA RESULT:      -7.4      4.623      6.056
REMARK  Name = 
REMARK  4 active torsions:
REMARK  status: ('A' for Active; 'I' for Inactive)
REMARK    1  A    between atoms: C_2  and  C_3
REMARK    2  A    between atoms: C_9  and  C_10
REMARK    3  A    between atoms: C_22  and  N_23
REMARK    4  A    between atoms: C_27  and  C_28
REMARK                            x       y       z     vdW  Elec       q    Type
REMARK                         _______ _______ _______ _____ _____    ______ ____
ROOT
ATOM      1  O   UNL     1       2.039  15.261  20.431  0.00  0.00    +0.000 OA
ATOM      2  C   UNL     1       1.164  15.175  19.572  0.00  0.00    +0.000 C 
ATOM      3  N   UNL     1       0.332  14.075  19.473  0.00  0.00    +0.000 N 
ATOM      4  C   UNL     1       0.429  12.926  20.355  0.00  0.00    +0.000 C 
ATOM      5  C   UNL     1      -0.726  13.200  21.341  0.00  0.00    +0.000 C 
ATOM      6  C   UNL     1      -1.747  13.952  20.454  0.00  0.00    +0.000 C 
ATOM      7  C   UNL     1      -1.057  13.946  19.074  0.00  0.00    +0.000 C 
ATOM      8  C   UNL     1      -1.093  12.507  18.534  0.00  0.00    +0.000 C 
ATOM      9  C   UNL     1      -0.025  11.785  19.398  0.00  0.00    +0.000 C 
ENDROOT
BRANCH   9  10
ATOM     10  N   UNL     1       1.091  11.302  18.584  0.00  0.00    +0.000 N 
ATOM     11  C   UNL     1       1.523   9.992  18.682  0.00  0.00    +0.000 A 
ATOM     12  C   UNL     1       1.443   9.223  19.844  0.00  0.00    +0.000 A 
ATOM     13  N   UNL     1       1.838   7.928  19.932  0.00  0.00    +0.000 NA
ATOM     14  C   UNL     1       2.374   7.396  18.800  0.00  0.00    +0.000 A 
ATOM     15  C   UNL     1       2.501   8.170  17.654  0.00  0.00    +0.000 A 
ATOM     16  N   UNL     1       2.076   9.459  17.573  0.00  0.00    +0.000 NA
ATOM     17  H   UNL     1       1.070  11.585  17.602  0.00  0.00    +0.000 HD
BRANCH  14  18
ATOM     18  C   UNL     1       2.818   5.952  18.758  0.00  0.00    +0.000 C 
ATOM     19  F   UNL     1       1.843   5.056  19.084  0.00  0.00    +0.000 F 
ATOM     20  F   UNL     1       3.259   5.580  17.521  0.00  0.00    +0.000 F 
ATOM     21  F   UNL     1       3.856   5.694  19.606  0.00  0.00    +0.000 F 
ENDBRANCH  14  18
ENDBRANCH   9  10
BRANCH   2  22
ATOM     22  C   UNL     1       1.011  16.288  18.593  0.00  0.00    +0.000 A 
ATOM     23  C   UNL     1      -0.266  16.860  18.456  0.00  0.00    +0.000 A 
ATOM     24  C   UNL     1      -0.472  17.911  17.578  0.00  0.00    +0.000 A 
ATOM     25  F   UNL     1      -1.707  18.402  17.421  0.00  0.00    +0.000 F 
ATOM     26  C   UNL     1       0.580  18.463  16.868  0.00  0.00    +0.000 A 
ATOM     27  C   UNL     1       1.865  17.943  17.045  0.00  0.00    +0.000 A 
ATOM     28  C   UNL     1       2.118  16.841  17.901  0.00  0.00    +0.000 A 
BRANCH  28  29
ATOM     29  C   UNL     1       3.510  16.360  18.046  0.00  0.00    +0.000 A 
ATOM     30  N   UNL     1       4.375  17.163  18.700  0.00  0.00    +0.000 NA
ATOM     31  C   UNL     1       5.614  16.673  18.910  0.00  0.00    +0.000 A 
ATOM     32  C   UNL     1       6.009  15.426  18.500  0.00  0.00    +0.000 A 
ATOM     33  C   UNL     1       5.070  14.706  17.800  0.00  0.00    +0.000 A 
ATOM     34  N   UNL     1       3.837  15.169  17.520  0.00  0.00    +0.000 NA
ENDBRANCH  28  29
ENDBRANCH   2  22
TORSDOF 4
ENDMDL
MODEL 5
REMARK VINA RESULT:      -7.4      3.001      3.874
REMARK  Name = 
REMARK  4 active torsions:
REMARK  status: ('A' for Active; 'I' for Inactive)
REMARK    1  A    between atoms: C_2  and  C_3
REMARK    2  A    between atoms: C_9  and  C_10
REMARK    3  A    between atoms: C_22  and  N_23
REMARK    4  A    between atoms: C_27  and  C_28
REMARK                            x       y       z     vdW  Elec       q    Type
REMARK                         _______ _______ _______ _____ _____    ______ ____
ROOT
ATOM      1  O   UNL     1       2.355  12.778  21.339  0.00  0.00    +0.000 OA
ATOM      2  C   UNL     1       1.698  12.942  20.314  0.00  0.00    +0.000 C 
ATOM      3  N   UNL     1       0.897  11.948  19.783  0.00  0.00    +0.000 N 
ATOM      4  C   UNL     1       0.777  10.627  20.374  0.00  0.00    +0.000 C 
ATOM      5  C   UNL     1      -0.569  10.748  21.119  0.00  0.00    +0.000 C 
ATOM      6  C   UNL     1      -1.353  11.743  20.230  0.00  0.00    +0.000 C 
ATOM      7  C   UNL     1      -0.366  12.000  19.071  0.00  0.00    +0.000 C 
ATOM      8  C   UNL     1      -0.296  10.723  18.218  0.00  0.00    +0.000 C 
ATOM      9  C   UNL     1       0.539   9.759  19.104  0.00  0.00    +0.000 C 
ENDROOT
BRANCH   9  10
ATOM     10  N   UNL     1       1.805   9.399  18.465  0.00  0.00    +0.000 N 
ATOM     11  C   UNL     1       2.337   8.131  18.613  0.00  0.00    +0.000 A 
ATOM     12  C   UNL     1       2.154   7.330  19.742  0.00  0.00    +0.000 A 
ATOM     13  N   UNL     1       2.650   6.074  19.876  0.00  0.00    +0.000 NA
ATOM     14  C   UNL     1       3.398   5.621  18.833  0.00  0.00    +0.000 A 
ATOM     15  C   UNL     1       3.624   6.431  17.728  0.00  0.00    +0.000 A 
ATOM     16  N   UNL     1       3.098   7.678  17.597  0.00  0.00    +0.000 NA
ATOM     17  H   UNL     1       1.906   9.703  17.494  0.00  0.00    +0.000 HD
BRANCH  14  18
ATOM     18  C   UNL     1       3.975   4.224  18.844  0.00  0.00    +0.000 C 
ATOM     19  F   UNL     1       5.182   4.121  19.470  0.00  0.00    +0.000 F 
ATOM     20  F   UNL     1       3.159   3.329  19.474  0.00  0.00    +0.000 F 
ATOM     21  F   UNL     1       4.165   3.721  17.589  0.00  0.00    +0.000 F 
ENDBRANCH  14  18
ENDBRANCH   9  10
BRANCH   2  22
ATOM     22  C   UNL     1       1.785  14.252  19.610  0.00  0.00    +0.000 A 
ATOM     23  C   UNL     1       2.683  14.351  18.533  0.00  0.00    +0.000 A 
ATOM     24  C   UNL     1       2.799  15.536  17.824  0.00  0.00    +0.000 A 
ATOM     25  F   UNL     1       3.701  15.625  16.839  0.00  0.00    +0.000 F 
ATOM     26  C   UNL     1       1.990  16.621  18.113  0.00  0.00    +0.000 A 
ATOM     27  C   UNL     1       1.049  16.511  19.140  0.00  0.00    +0.000 A 
ATOM     28  C   UNL     1       0.924  15.334  19.921  0.00  0.00    +0.000 A 
BRANCH  28  29
ATOM     29  C   UNL     1      -0.109  15.293  20.981  0.00  0.00    +0.000 A 
ATOM     30  N   UNL     1      -1.398  15.243  20.584  0.00  0.00    +0.000 NA
ATOM     31  C   UNL     1      -2.325  15.108  21.555  0.00  0.00    +0.000 A 
ATOM     32  C   UNL     1      -2.011  15.018  22.886  0.00  0.00    +0.000 A 
ATOM     33  C   UNL     1      -0.674  15.127  23.191  0.00  0.00    +0.000 A 
ATOM     34  N   UNL     1       0.285  15.313  22.264  0.00  0.00    +0.000 NA
ENDBRANCH  28  29
ENDBRANCH   2  22
TORSDOF 4
ENDMDL
MODEL 6
REMARK VINA RESULT:      -7.3      3.010      3.931
REMARK  Name = 
REMARK  4 active torsions:
REMARK  status: ('A' for Active; 'I' for Inactive)
REMARK    1  A    between atoms: C_2  and  C_3
REMARK    2  A    between atoms: C_9  and  C_10
REMARK    3  A    between atoms: C_22  and  N_23
REMARK    4  A    between atoms: C_27  and  C_28
REMARK                            x       y       z     vdW  Elec       q    Type
REMARK                         _______ _______ _______ _____ _____    ______ ____
ROOT
ATOM      1  O   UNL     1       2.361  12.744  21.331  0.00  0.00    +0.000 OA
ATOM      2  C   UNL     1       1.706  12.914  20.305  0.00  0.00    +0.000 C 
ATOM      3  N   UNL     1       0.914  11.920  19.761  0.00  0.00    +0.000 N 
ATOM      4  C   UNL     1       0.800  10.593  20.337  0.00  0.00    +0.000 C 
ATOM      5  C   UNL     1      -0.550  10.697  21.078  0.00  0.00    +0.000 C 
ATOM      6  C   UNL     1      -1.336  11.696  20.196  0.00  0.00    +0.000 C 
ATOM      7  C   UNL     1      -0.347  11.972  19.044  0.00  0.00    +0.000 C 
ATOM      8  C   UNL     1      -0.265  10.705  18.178  0.00  0.00    +0.000 C 
ATOM      9  C   UNL     1       0.573   9.737  19.056  0.00  0.00    +0.000 C 
ENDROOT
BRANCH   9  10
ATOM     10  N   UNL     1       1.843   9.392  18.419  0.00  0.00    +0.000 N 
ATOM     11  C   UNL     1       2.383   8.127  18.557  0.00  0.00    +0.000 A 
ATOM     12  C   UNL     1       2.202   7.314  19.678  0.00  0.00    +0.000 A 
ATOM     13  N   UNL     1       2.707   6.060  19.802  0.00  0.00    +0.000 NA
ATOM     14  C   UNL     1       3.462   5.622  18.758  0.00  0.00    +0.000 A 
ATOM     15  C   UNL     1       3.686   6.443  17.661  0.00  0.00    +0.000 A 
ATOM     16  N   UNL     1       3.151   7.688  17.540  0.00  0.00    +0.000 NA
ATOM     17  H   UNL     1       1.945   9.705  17.450  0.00  0.00    +0.000 HD
BRANCH  14  18
ATOM     18  C   UNL     1       4.049   4.229  18.759  0.00  0.00    +0.000 C 
ATOM     19  F   UNL     1       4.398   3.767  17.524  0.00  0.00    +0.000 F 
ATOM     20  F   UNL     1       5.182   4.143  19.515  0.00  0.00    +0.000 F 
ATOM     21  F   UNL     1       3.196   3.297  19.275  0.00  0.00    +0.000 F 
ENDBRANCH  14  18
ENDBRANCH   9  10
BRANCH   2  22
ATOM     22  C   UNL     1       1.788  14.232  19.615  0.00  0.00    +0.000 A 
ATOM     23  C   UNL     1       2.676  14.343  18.531  0.00  0.00    +0.000 A 
ATOM     24  C   UNL     1       2.786  15.536  17.835  0.00  0.00    +0.000 A 
ATOM     25  F   UNL     1       3.680  15.636  16.843  0.00  0.00    +0.000 F 
ATOM     26  C   UNL     1       1.980  16.618  18.144  0.00  0.00    +0.000 A 
ATOM     27  C   UNL     1       1.049  16.497  19.178  0.00  0.00    +0.000 A 
ATOM     28  C   UNL     1       0.929  15.311  19.946  0.00  0.00    +0.000 A 
BRANCH  28  29
ATOM     29  C   UNL     1      -0.094  15.257  21.015  0.00  0.00    +0.000 A 
ATOM     30  N   UNL     1       0.343  15.303  22.290  0.00  0.00    +0.000 NA
ATOM     31  C   UNL     1      -0.602  15.351  23.252  0.00  0.00    +0.000 A 
ATOM     32  C   UNL     1      -1.946  15.360  22.985  0.00  0.00    +0.000 A 
ATOM     33  C   UNL     1      -2.289  15.262  21.656  0.00  0.00    +0.000 A 
ATOM     34  N   UNL     1      -1.386  15.160  20.663  0.00  0.00    +0.000 NA
ENDBRANCH  28  29
ENDBRANCH   2  22
TORSDOF 4
ENDMDL
MODEL 7
REMARK VINA RESULT:      -7.1      2.870      4.409
REMARK  Name = 
REMARK  4 active torsions:
REMARK  status: ('A' for Active; 'I' for Inactive)
REMARK    1  A    between atoms: C_2  and  C_3
REMARK    2  A    between atoms: C_9  and  C_10
REMARK    3  A    between atoms: C_22  and  N_23
REMARK    4  A    between atoms: C_27  and  C_28
REMARK                            x       y       z     vdW  Elec       q    Type
REMARK                         _______ _______ _______ _____ _____    ______ ____
ROOT
ATOM      1  O   UNL     1       1.045  14.249  22.146  0.00  0.00    +0.000 OA
ATOM      2  C   UNL     1       0.051  14.176  21.427  0.00  0.00    +0.000 C 
ATOM      3  N   UNL     1      -0.579  12.976  21.156  0.00  0.00    +0.000 N 
ATOM      4  C   UNL     1      -0.115  11.703  21.677  0.00  0.00    +0.000 C 
ATOM      5  C   UNL     1      -1.090  11.480  22.853  0.00  0.00    +0.000 C 
ATOM      6  C   UNL     1      -2.378  12.177  22.351  0.00  0.00    +0.000 C 
ATOM      7  C   UNL     1      -1.974  12.642  20.936  0.00  0.00    +0.000 C 
ATOM      8  C   UNL     1      -1.860  11.397  20.043  0.00  0.00    +0.000 C 
ATOM      9  C   UNL     1      -0.536  10.744  20.524  0.00  0.00    +0.000 C 
ENDROOT
BRANCH   9  10
ATOM     10  N   UNL     1       0.471  10.719  19.464  0.00  0.00    +0.000 N 
ATOM     11  C   UNL     1       1.177   9.564  19.186  0.00  0.00    +0.000 A 
ATOM     12  C   UNL     1       1.494   8.590  20.134  0.00  0.00    +0.000 A 
ATOM     13  N   UNL     1       2.161   7.441  19.856  0.00  0.00    +0.000 NA
ATOM     14  C   UNL     1       2.559   7.288  18.564  0.00  0.00    +0.000 A 
ATOM     15  C   UNL     1       2.290   8.275  17.626  0.00  0.00    +0.000 A 
ATOM     16  N   UNL     1       1.597   9.409  17.913  0.00  0.00    +0.000 NA
ATOM     17  H   UNL     1       0.195  11.172  18.589  0.00  0.00    +0.000 HD
BRANCH  14  18
ATOM     18  C   UNL     1       3.278   6.034  18.119  0.00  0.00    +0.000 C 
ATOM     19  F   UNL     1       4.149   5.531  19.039  0.00  0.00    +0.000 F 
ATOM     20  F   UNL     1       2.416   5.015  17.835  0.00  0.00    +0.000 F 
ATOM     21  F   UNL     1       4.008   6.221  16.981  0.00  0.00    +0.000 F 
ENDBRANCH  14  18
ENDBRANCH   9  10
BRANCH   2  22
ATOM     22  C   UNL     1      -0.480  15.425  20.811  0.00  0.00    +0.000 A 
ATOM     23  C   UNL     1      -0.119  15.696  19.480  0.00  0.00    +0.000 A 
ATOM     24  C   UNL     1      -0.594  16.830  18.842  0.00  0.00    +0.000 A 
ATOM     25  F   UNL     1      -0.192  17.097  17.593  0.00  0.00    +0.000 F 
ATOM     26  C   UNL     1      -1.482  17.683  19.474  0.00  0.00    +0.000 A 
ATOM     27  C   UNL     1      -1.896  17.389  20.775  0.00  0.00    +0.000 A 
ATOM     28  C   UNL     1      -1.405  16.263  21.483  0.00  0.00    +0.000 A 
BRANCH  28  29
ATOM     29  C   UNL     1      -1.907  16.012  22.854  0.00  0.00    +0.000 A 
ATOM     30  N   UNL     1      -3.182  15.587  22.975  0.00  0.00    +0.000 NA
ATOM     31  C   UNL     1      -3.597  15.270  24.219  0.00  0.00    +0.000 A 
ATOM     32  C   UNL     1      -2.792  15.357  25.325  0.00  0.00    +0.000 A 
ATOM     33  C   UNL     1      -1.526  15.846  25.102  0.00  0.00    +0.000 A 
ATOM     34  N   UNL     1      -1.080  16.224  23.889  0.00  0.00    +0.000 NA
ENDBRANCH  28  29
ENDBRANCH   2  22
TORSDOF 4
ENDMDL
MODEL 8
REMARK VINA RESULT:      -7.0      3.137      4.136
REMARK  Name = 
REMARK  4 active torsions:
REMARK  status: ('A' for Active; 'I' for Inactive)
REMARK    1  A    between atoms: C_2  and  C_3
REMARK    2  A    between atoms: C_9  and  C_10
REMARK    3  A    between atoms: C_22  and  N_23
REMARK    4  A    between atoms: C_27  and  C_28
REMARK                            x       y       z     vdW  Elec       q    Type
REMARK                         _______ _______ _______ _____ _____    ______ ____
ROOT
ATOM      1  O   UNL     1       2.155  13.245  21.509  0.00  0.00    +0.000 OA
ATOM      2  C   UNL     1       1.593  13.344  20.421  0.00  0.00    +0.000 C 
ATOM      3  N   UNL     1       0.728  12.377  19.946  0.00  0.00    +0.000 N 
ATOM      4  C   UNL     1       0.422  11.160  20.675  0.00  0.00    +0.000 C 
ATOM      5  C   UNL     1      -0.952  11.506  21.287  0.00  0.00    +0.000 C 
ATOM      6  C   UNL     1      -1.557  12.455  20.225  0.00  0.00    +0.000 C 
ATOM      7  C   UNL     1      -0.469  12.465  19.130  0.00  0.00    +0.000 C 
ATOM      8  C   UNL     1      -0.480  11.091  18.441  0.00  0.00    +0.000 C 
ATOM      9  C   UNL     1       0.181  10.167  19.499  0.00  0.00    +0.000 C 
ENDROOT
BRANCH   9  10
ATOM     10  N   UNL     1       1.441   9.605  19.014  0.00  0.00    +0.000 N 
ATOM     11  C   UNL     1       1.787   8.297  19.296  0.00  0.00    +0.000 A 
ATOM     12  C   UNL     1       1.400   7.614  20.451  0.00  0.00    +0.000 A 
ATOM     13  N   UNL     1       1.715   6.320  20.714  0.00  0.00    +0.000 NA
ATOM     14  C   UNL     1       2.488   5.699  19.783  0.00  0.00    +0.000 A 
ATOM     15  C   UNL     1       2.916   6.387  18.655  0.00  0.00    +0.000 A 
ATOM     16  N   UNL     1       2.571   7.676  18.392  0.00  0.00    +0.000 NA
ATOM     17  H   UNL     1       1.668   9.818  18.040  0.00  0.00    +0.000 HD
BRANCH  14  18
ATOM     18  C   UNL     1       2.874   4.246  19.942  0.00  0.00    +0.000 C 
ATOM     19  F   UNL     1       4.123   3.945  19.486  0.00  0.00    +0.000 F 
ATOM     20  F   UNL     1       2.854   3.843  21.246  0.00  0.00    +0.000 F 
ATOM     21  F   UNL     1       2.027   3.400  19.287  0.00  0.00    +0.000 F 
ENDBRANCH  14  18
ENDBRANCH   9  10
BRANCH   2  22
ATOM     22  C   UNL     1       1.872  14.541  19.578  0.00  0.00    +0.000 A 
ATOM     23  C   UNL     1       2.876  14.426  18.601  0.00  0.00    +0.000 A 
ATOM     24  C   UNL     1       3.172  15.495  17.771  0.00  0.00    +0.000 A 
ATOM     25  F   UNL     1       4.171  15.382  16.887  0.00  0.00    +0.000 F 
ATOM     26  C   UNL     1       2.445  16.671  17.838  0.00  0.00    +0.000 A 
ATOM     27  C   UNL     1       1.403  16.773  18.763  0.00  0.00    +0.000 A 
ATOM     28  C   UNL     1       1.091  15.721  19.662  0.00  0.00    +0.000 A 
BRANCH  28  29
ATOM     29  C   UNL     1      -0.040  15.901  20.600  0.00  0.00    +0.000 A 
ATOM     30  N   UNL     1      -1.282  15.919  20.072  0.00  0.00    +0.000 NA
ATOM     31  C   UNL     1      -2.309  15.987  20.945  0.00  0.00    +0.000 A 
ATOM     32  C   UNL     1      -2.138  16.032  22.304  0.00  0.00    +0.000 A 
ATOM     33  C   UNL     1      -0.833  16.058  22.739  0.00  0.00    +0.000 A 
ATOM     34  N   UNL     1       0.226  16.043  21.907  0.00  0.00    +0.000 NA
ENDBRANCH  28  29
ENDBRANCH   2  22
TORSDOF 4
ENDMDL
MODEL 9
REMARK VINA RESULT:      -7.0      4.096      5.515
REMARK  Name = 
REMARK  4 active torsions:
REMARK  status: ('A' for Active; 'I' for Inactive)
REMARK    1  A    between atoms: C_2  and  C_3
REMARK    2  A    between atoms: C_9  and  C_10
REMARK    3  A    between atoms: C_22  and  N_23
REMARK    4  A    between atoms: C_27  and  C_28
REMARK                            x       y       z     vdW  Elec       q    Type
REMARK                         _______ _______ _______ _____ _____    ______ ____
ROOT
ATOM      1  O   UNL     1       1.438  14.382  20.968  0.00  0.00    +0.000 OA
ATOM      2  C   UNL     1       0.664  14.406  20.014  0.00  0.00    +0.000 C 
ATOM      3  N   UNL     1      -0.100  13.311  19.655  0.00  0.00    +0.000 N 
ATOM      4  C   UNL     1      -0.044  12.041  20.356  0.00  0.00    +0.000 C 
ATOM      5  C   UNL     1      -1.310  12.123  21.236  0.00  0.00    +0.000 C 
ATOM      6  C   UNL     1      -2.265  12.974  20.365  0.00  0.00    +0.000 C 
ATOM      7  C   UNL     1      -1.431  13.205  19.087  0.00  0.00    +0.000 C 
ATOM      8  C   UNL     1      -1.343  11.868  18.333  0.00  0.00    +0.000 C 
ATOM      9  C   UNL     1      -0.340  11.051  19.191  0.00  0.00    +0.000 C 
ENDROOT
BRANCH   9  10
ATOM     10  N   UNL     1       0.878  10.735  18.444  0.00  0.00    +0.000 N 
ATOM     11  C   UNL     1       1.501   9.510  18.594  0.00  0.00    +0.000 A 
ATOM     12  C   UNL     1       1.482   8.757  19.769  0.00  0.00    +0.000 A 
ATOM     13  N   UNL     1       2.068   7.541  19.907  0.00  0.00    +0.000 NA
ATOM     14  C   UNL     1       2.737   7.081  18.815  0.00  0.00    +0.000 A 
ATOM     15  C   UNL     1       2.801   7.846  17.658  0.00  0.00    +0.000 A 
ATOM     16  N   UNL     1       2.186   9.052  17.526  0.00  0.00    +0.000 NA
ATOM     17  H   UNL     1       0.863  10.995  17.455  0.00  0.00    +0.000 HD
BRANCH  14  18
ATOM     18  C   UNL     1       3.401   5.723  18.829  0.00  0.00    +0.000 C 
ATOM     19  F   UNL     1       4.375   5.584  19.773  0.00  0.00    +0.000 F 
ATOM     20  F   UNL     1       2.513   4.714  19.069  0.00  0.00    +0.000 F 
ATOM     21  F   UNL     1       3.992   5.412  17.639  0.00  0.00    +0.000 F 
ENDBRANCH  14  18
ENDBRANCH   9  10
BRANCH   2  22
ATOM     22  C   UNL     1       0.564  15.653  19.204  0.00  0.00    +0.000 A 
ATOM     23  C   UNL     1      -0.701  16.256  19.095  0.00  0.00    +0.000 A 
ATOM     24  C   UNL     1      -0.859  17.428  18.374  0.00  0.00    +0.000 A 
ATOM     25  F   UNL     1      -2.082  17.953  18.236  0.00  0.00    +0.000 F 
ATOM     26  C   UNL     1       0.229  18.065  17.804  0.00  0.00    +0.000 A 
ATOM     27  C   UNL     1       1.501  17.508  17.961  0.00  0.00    +0.000 A 
ATOM     28  C   UNL     1       1.706  16.288  18.655  0.00  0.00    +0.000 A 
BRANCH  28  29
ATOM     29  C   UNL     1       3.087  15.773  18.791  0.00  0.00    +0.000 A 
ATOM     30  N   UNL     1       3.511  14.891  17.861  0.00  0.00    +0.000 NA
ATOM     31  C   UNL     1       4.800  14.502  17.939  0.00  0.00    +0.000 A 
ATOM     32  C   UNL     1       5.667  14.963  18.896  0.00  0.00    +0.000 A 
ATOM     33  C   UNL     1       5.126  15.820  19.825  0.00  0.00    +0.000 A 
ATOM     34  N   UNL     1       3.834  16.199  19.821  0.00  0.00    +0.000 NA
ENDBRANCH  28  29
ENDBRANCH   2  22
TORSDOF 4
ENDMDL
