MODEL 1
REMARK VINA RESULT:      -8.1      0.000      0.000
REMARK  Name = 
REMARK  6 active torsions:
REMARK  status: ('A' for Active; 'I' for Inactive)
REMARK    1  A    between atoms: C_1  and  N_2
REMARK    2  A    between atoms: C_3  and  C_5
REMARK    3  A    between atoms: C_9  and  O_10
REMARK    4  A    between atoms: O_10  and  C_11
REMARK    5  A    between atoms: N_18  and  C_19
REMARK    6  A    between atoms: C_19  and  C_20
REMARK                            x       y       z     vdW  Elec       q    Type
REMARK                         _______ _______ _______ _____ _____    ______ ____
ROOT
ATOM      1  C   UNL     1       6.773   4.357  16.282  0.00  0.00    +0.000 C 
ATOM      2  C   UNL     1       5.226   4.280  16.367  0.00  0.00    +0.000 C 
ATOM      3  C   UNL     1       4.548   5.100  17.488  0.00  0.00    +0.000 C 
ATOM      4  C   UNL     1       4.819   6.603  17.384  0.00  0.00    +0.000 C 
ATOM      5  C   UNL     1       6.175   6.798  18.083  0.00  0.00    +0.000 C 
ATOM      6  C   UNL     1       6.515   5.417  18.657  0.00  0.00    +0.000 C 
ATOM      7  C   UNL     1       7.385   4.593  17.681  0.00  0.00    +0.000 C 
ATOM      8  N   UNL     1       5.157   4.919  18.790  0.00  0.00    +0.000 NA
ENDROOT
BRANCH   1   9
ATOM      9  O   UNL     1       7.186   5.351  15.295  0.00  0.00    +0.000 OA
BRANCH   9  14
ATOM     10  C   UNL     1       6.488   3.444  12.184  0.00  0.00    +0.000 A 
ATOM     11  C   UNL     1       7.176   4.214  11.238  0.00  0.00    +0.000 A 
ATOM     12  C   UNL     1       7.887   5.353  11.629  0.00  0.00    +0.000 A 
ATOM     13  C   UNL     1       7.921   5.748  12.977  0.00  0.00    +0.000 A 
ATOM     14  C   UNL     1       7.248   5.012  13.953  0.00  0.00    +0.000 A 
ATOM     15  C   UNL     1       6.527   3.857  13.539  0.00  0.00    +0.000 A 
BRANCH  10  18
ATOM     16  C   UNL     1       5.813  -0.135  10.971  0.00  0.00    +0.000 C 
ATOM     17  N   UNL     1       6.433   1.029  11.566  0.00  0.00    +0.000 N 
ATOM     18  C   UNL     1       5.762   2.238  11.638  0.00  0.00    +0.000 C 
ATOM     19  O   UNL     1       4.597   2.344  11.252  0.00  0.00    +0.000 OA
ATOM     20  H   UNL     1       7.410   0.984  11.794  0.00  0.00    +0.000 HD
ENDBRANCH  10  18
ENDBRANCH   9  14
ENDBRANCH   1   9
BRANCH   8  21
ATOM     21  C   UNL     1       4.820   3.790  19.627  0.00  0.00    +0.000 C 
BRANCH  21  22
ATOM     22  C   UNL     1       3.321   3.510  19.638  0.00  0.00    +0.000 A 
ATOM     23  C   UNL     1       2.775   2.435  18.907  0.00  0.00    +0.000 A 
ATOM     24  C   UNL     1       1.397   2.195  18.902  0.00  0.00    +0.000 A 
ATOM     25  C   UNL     1       0.544   3.013  19.637  0.00  0.00    +0.000 A 
ATOM     26  C   UNL     1       1.073   4.065  20.385  0.00  0.00    +0.000 A 
ATOM     27  C   UNL     1       2.449   4.311  20.388  0.00  0.00    +0.000 A 
ENDBRANCH  21  22
ENDBRANCH   8  21
TORSDOF 5
ENDMDL
MODEL 2
REMARK VINA RESULT:      -8.1      1.499      2.082
REMARK  Name = 
REMARK  6 active torsions:
REMARK  status: ('A' for Active; 'I' for Inactive)
REMARK    1  A    between atoms: C_1  and  N_2
REMARK    2  A    between atoms: C_3  and  C_5
REMARK    3  A    between atoms: C_9  and  O_10
REMARK    4  A    between atoms: O_10  and  C_11
REMARK    5  A    between atoms: N_18  and  C_19
REMARK    6  A    between atoms: C_19  and  C_20
REMARK                            x       y       z     vdW  Elec       q    Type
REMARK                         _______ _______ _______ _____ _____    ______ ____
ROOT
ATOM      1  C   UNL     1       4.943   4.068  16.892  0.00  0.00    +0.000 C 
ATOM      2  C   UNL     1       4.498   5.502  16.499  0.00  0.00    +0.000 C 
ATOM      3  C   UNL     1       4.745   6.617  17.540  0.00  0.00    +0.000 C 
ATOM      4  C   UNL     1       6.223   6.794  17.896  0.00  0.00    +0.000 C 
ATOM      5  C   UNL     1       6.484   5.741  18.986  0.00  0.00    +0.000 C 
ATOM      6  C   UNL     1       5.106   5.133  19.273  0.00  0.00    +0.000 C 
ATOM      7  C   UNL     1       4.852   3.869  18.421  0.00  0.00    +0.000 C 
ATOM      8  N   UNL     1       4.300   6.274  18.876  0.00  0.00    +0.000 NA
ENDROOT
BRANCH   1   9
ATOM      9  O   UNL     1       6.266   3.772  16.347  0.00  0.00    +0.000 OA
BRANCH   9  14
ATOM     10  C   UNL     1       5.850   3.578  12.661  0.00  0.00    +0.000 A 
ATOM     11  C   UNL     1       6.863   4.445  12.231  0.00  0.00    +0.000 A 
ATOM     12  C   UNL     1       7.697   5.080  13.158  0.00  0.00    +0.000 A 
ATOM     13  C   UNL     1       7.531   4.863  14.536  0.00  0.00    +0.000 A 
ATOM     14  C   UNL     1       6.533   4.009  15.009  0.00  0.00    +0.000 A 
ATOM     15  C   UNL     1       5.692   3.372  14.054  0.00  0.00    +0.000 A 
BRANCH  10  18
ATOM     16  C   UNL     1       3.084   3.083  10.046  0.00  0.00    +0.000 C 
ATOM     17  N   UNL     1       3.961   3.669  11.036  0.00  0.00    +0.000 N 
ATOM     18  C   UNL     1       5.021   2.952  11.564  0.00  0.00    +0.000 C 
ATOM     19  O   UNL     1       5.285   1.817  11.166  0.00  0.00    +0.000 OA
ATOM     20  H   UNL     1       3.702   4.552  11.439  0.00  0.00    +0.000 HD
ENDBRANCH  10  18
ENDBRANCH   9  14
ENDBRANCH   1   9
BRANCH   8  21
ATOM     21  C   UNL     1       2.919   6.428  19.270  0.00  0.00    +0.000 C 
BRANCH  21  22
ATOM     22  C   UNL     1       2.265   5.092  19.609  0.00  0.00    +0.000 A 
ATOM     23  C   UNL     1       2.239   4.609  20.932  0.00  0.00    +0.000 A 
ATOM     24  C   UNL     1       1.659   3.372  21.236  0.00  0.00    +0.000 A 
ATOM     25  C   UNL     1       1.081   2.608  20.226  0.00  0.00    +0.000 A 
ATOM     26  C   UNL     1       1.077   3.086  18.915  0.00  0.00    +0.000 A 
ATOM     27  C   UNL     1       1.662   4.318  18.609  0.00  0.00    +0.000 A 
ENDBRANCH  21  22
ENDBRANCH   8  21
TORSDOF 5
ENDMDL
MODEL 3
REMARK VINA RESULT:      -7.8      5.006      9.353
REMARK  Name = 
REMARK  6 active torsions:
REMARK  status: ('A' for Active; 'I' for Inactive)
REMARK    1  A    between atoms: C_1  and  N_2
REMARK    2  A    between atoms: C_3  and  C_5
REMARK    3  A    between atoms: C_9  and  O_10
REMARK    4  A    between atoms: O_10  and  C_11
REMARK    5  A    between atoms: N_18  and  C_19
REMARK    6  A    between atoms: C_19  and  C_20
REMARK                            x       y       z     vdW  Elec       q    Type
REMARK                         _______ _______ _______ _____ _____    ______ ____
ROOT
ATOM      1  C   UNL     1       2.837   6.393  19.178  0.00  0.00    +0.000 C 
ATOM      2  C   UNL     1       2.034   5.677  18.060  0.00  0.00    +0.000 C 
ATOM      3  C   UNL     1       1.912   4.140  18.166  0.00  0.00    +0.000 C 
ATOM      4  C   UNL     1       1.216   3.677  19.448  0.00  0.00    +0.000 C 
ATOM      5  C   UNL     1       2.335   3.645  20.502  0.00  0.00    +0.000 C 
ATOM      6  C   UNL     1       3.614   3.956  19.716  0.00  0.00    +0.000 C 
ATOM      7  C   UNL     1       3.941   5.467  19.736  0.00  0.00    +0.000 C 
ATOM      8  N   UNL     1       3.172   3.472  18.420  0.00  0.00    +0.000 NA
ENDROOT
BRANCH   1   9
ATOM      9  O   UNL     1       1.938   6.907  20.209  0.00  0.00    +0.000 OA
BRANCH   9  14
ATOM     10  C   UNL     1       0.220  10.028  21.261  0.00  0.00    +0.000 A 
ATOM     11  C   UNL     1       0.405  10.830  20.128  0.00  0.00    +0.000 A 
ATOM     12  C   UNL     1       1.080  10.334  19.007  0.00  0.00    +0.000 A 
ATOM     13  C   UNL     1       1.588   9.025  18.999  0.00  0.00    +0.000 A 
ATOM     14  C   UNL     1       1.430   8.192  20.108  0.00  0.00    +0.000 A 
ATOM     15  C   UNL     1       0.743   8.711  21.240  0.00  0.00    +0.000 A 
BRANCH  10  18
ATOM     16  C   UNL     1      -2.161  12.352  23.175  0.00  0.00    +0.000 C 
ATOM     17  N   UNL     1      -1.480  11.639  22.116  0.00  0.00    +0.000 N 
ATOM     18  C   UNL     1      -0.527  10.677  22.402  0.00  0.00    +0.000 C 
ATOM     19  O   UNL     1      -0.272  10.356  23.564  0.00  0.00    +0.000 OA
ATOM     20  H   UNL     1      -1.605  11.956  21.171  0.00  0.00    +0.000 HD
ENDBRANCH  10  18
ENDBRANCH   9  14
ENDBRANCH   1   9
BRANCH   8  21
ATOM     21  C   UNL     1       4.091   3.168  17.347  0.00  0.00    +0.000 C 
BRANCH  21  22
ATOM     22  C   UNL     1       5.145   4.256  17.166  0.00  0.00    +0.000 A 
ATOM     23  C   UNL     1       4.905   5.372  16.340  0.00  0.00    +0.000 A 
ATOM     24  C   UNL     1       5.882   6.357  16.159  0.00  0.00    +0.000 A 
ATOM     25  C   UNL     1       7.106   6.252  16.813  0.00  0.00    +0.000 A 
ATOM     26  C   UNL     1       7.348   5.166  17.654  0.00  0.00    +0.000 A 
ATOM     27  C   UNL     1       6.375   4.177  17.832  0.00  0.00    +0.000 A 
ENDBRANCH  21  22
ENDBRANCH   8  21
TORSDOF 5
ENDMDL
MODEL 4
REMARK VINA RESULT:      -7.7      5.071      9.338
REMARK  Name = 
REMARK  6 active torsions:
REMARK  status: ('A' for Active; 'I' for Inactive)
REMARK    1  A    between atoms: C_1  and  N_2
REMARK    2  A    between atoms: C_3  and  C_5
REMARK    3  A    between atoms: C_9  and  O_10
REMARK    4  A    between atoms: O_10  and  C_11
REMARK    5  A    between atoms: N_18  and  C_19
REMARK    6  A    between atoms: C_19  and  C_20
REMARK                            x       y       z     vdW  Elec       q    Type
REMARK                         _______ _______ _______ _____ _____    ______ ____
ROOT
ATOM      1  C   UNL     1       2.762   6.431  19.146  0.00  0.00    +0.000 C 
ATOM      2  C   UNL     1       1.912   5.618  18.136  0.00  0.00    +0.000 C 
ATOM      3  C   UNL     1       1.815   4.093  18.375  0.00  0.00    +0.000 C 
ATOM      4  C   UNL     1       1.193   3.732  19.726  0.00  0.00    +0.000 C 
ATOM      5  C   UNL     1       2.366   3.798  20.718  0.00  0.00    +0.000 C 
ATOM      6  C   UNL     1       3.598   4.054  19.841  0.00  0.00    +0.000 C 
ATOM      7  C   UNL     1       3.906   5.563  19.718  0.00  0.00    +0.000 C 
ATOM      8  N   UNL     1       3.095   3.460  18.615  0.00  0.00    +0.000 NA
ENDROOT
BRANCH   1   9
ATOM      9  O   UNL     1       1.912   7.021  20.177  0.00  0.00    +0.000 OA
BRANCH   9  14
ATOM     10  C   UNL     1       0.320  10.241  21.123  0.00  0.00    +0.000 A 
ATOM     11  C   UNL     1       0.478  10.975  19.941  0.00  0.00    +0.000 A 
ATOM     12  C   UNL     1       1.093  10.401  18.823  0.00  0.00    +0.000 A 
ATOM     13  C   UNL     1       1.567   9.079  18.868  0.00  0.00    +0.000 A 
ATOM     14  C   UNL     1       1.433   8.312  20.026  0.00  0.00    +0.000 A 
ATOM     15  C   UNL     1       0.807   8.911  21.154  0.00  0.00    +0.000 A 
BRANCH  10  18
ATOM     16  C   UNL     1      -1.279  13.070  23.167  0.00  0.00    +0.000 C 
ATOM     17  N   UNL     1      -0.704  12.302  22.084  0.00  0.00    +0.000 N 
ATOM     18  C   UNL     1      -0.362  10.971  22.256  0.00  0.00    +0.000 C 
ATOM     19  O   UNL     1      -0.591  10.385  23.314  0.00  0.00    +0.000 OA
ATOM     20  H   UNL     1      -0.422  12.788  21.252  0.00  0.00    +0.000 HD
ENDBRANCH  10  18
ENDBRANCH   9  14
ENDBRANCH   1   9
BRANCH   8  21
ATOM     21  C   UNL     1       3.961   3.076  17.524  0.00  0.00    +0.000 C 
BRANCH  21  22
ATOM     22  C   UNL     1       5.013   4.138  17.222  0.00  0.00    +0.000 A 
ATOM     23  C   UNL     1       6.247   4.154  17.902  0.00  0.00    +0.000 A 
ATOM     24  C   UNL     1       7.201   5.143  17.638  0.00  0.00    +0.000 A 
ATOM     25  C   UNL     1       6.944   6.121  16.682  0.00  0.00    +0.000 A 
ATOM     26  C   UNL     1       5.737   6.103  15.983  0.00  0.00    +0.000 A 
ATOM     27  C   UNL     1       4.780   5.119  16.249  0.00  0.00    +0.000 A 
ENDBRANCH  21  22
ENDBRANCH   8  21
TORSDOF 5
ENDMDL
MODEL 5
REMARK VINA RESULT:      -7.7      4.167      8.886
REMARK  Name = 
REMARK  6 active torsions:
REMARK  status: ('A' for Active; 'I' for Inactive)
REMARK    1  A    between atoms: C_1  and  N_2
REMARK    2  A    between atoms: C_3  and  C_5
REMARK    3  A    between atoms: C_9  and  O_10
REMARK    4  A    between atoms: O_10  and  C_11
REMARK    5  A    between atoms: N_18  and  C_19
REMARK    6  A    between atoms: C_19  and  C_20
REMARK                            x       y       z     vdW  Elec       q    Type
REMARK                         _______ _______ _______ _____ _____    ______ ____
ROOT
ATOM      1  C   UNL     1       4.416   6.618  18.308  0.00  0.00    +0.000 C 
ATOM      2  C   UNL     1       4.280   6.287  16.798  0.00  0.00    +0.000 C 
ATOM      3  C   UNL     1       4.583   4.832  16.374  0.00  0.00    +0.000 C 
ATOM      4  C   UNL     1       3.666   3.805  17.042  0.00  0.00    +0.000 C 
ATOM      5  C   UNL     1       4.325   3.529  18.404  0.00  0.00    +0.000 C 
ATOM      6  C   UNL     1       5.644   4.311  18.359  0.00  0.00    +0.000 C 
ATOM      7  C   UNL     1       5.489   5.723  18.968  0.00  0.00    +0.000 C 
ATOM      8  N   UNL     1       5.823   4.315  16.918  0.00  0.00    +0.000 NA
ENDROOT
BRANCH   1   9
ATOM      9  O   UNL     1       3.116   6.546  18.970  0.00  0.00    +0.000 OA
BRANCH   9  14
ATOM     10  C   UNL     1       0.936   9.173  20.435  0.00  0.00    +0.000 A 
ATOM     11  C   UNL     1       0.674   9.963  19.308  0.00  0.00    +0.000 A 
ATOM     12  C   UNL     1       1.202   9.618  18.059  0.00  0.00    +0.000 A 
ATOM     13  C   UNL     1       2.006   8.476  17.913  0.00  0.00    +0.000 A 
ATOM     14  C   UNL     1       2.295   7.661  19.009  0.00  0.00    +0.000 A 
ATOM     15  C   UNL     1       1.753   8.027  20.273  0.00  0.00    +0.000 A 
BRANCH  10  18
ATOM     16  C   UNL     1      -1.141  11.262  22.896  0.00  0.00    +0.000 C 
ATOM     17  N   UNL     1      -0.578  10.712  21.682  0.00  0.00    +0.000 N 
ATOM     18  C   UNL     1       0.307   9.649  21.723  0.00  0.00    +0.000 C 
ATOM     19  O   UNL     1       0.597   9.101  22.787  0.00  0.00    +0.000 OA
ATOM     20  H   UNL     1      -0.728  11.208  20.820  0.00  0.00    +0.000 HD
ENDBRANCH  10  18
ENDBRANCH   9  14
ENDBRANCH   1   9
BRANCH   8  21
ATOM     21  C   UNL     1       7.094   4.597  16.291  0.00  0.00    +0.000 C 
BRANCH  21  22
ATOM     22  C   UNL     1       7.022   4.492  14.771  0.00  0.00    +0.000 A 
ATOM     23  C   UNL     1       6.172   3.559  14.145  0.00  0.00    +0.000 A 
ATOM     24  C   UNL     1       6.124   3.450  12.751  0.00  0.00    +0.000 A 
ATOM     25  C   UNL     1       6.912   4.282  11.961  0.00  0.00    +0.000 A 
ATOM     26  C   UNL     1       7.740   5.228  12.566  0.00  0.00    +0.000 A 
ATOM     27  C   UNL     1       7.793   5.334  13.959  0.00  0.00    +0.000 A 
ENDBRANCH  21  22
ENDBRANCH   8  21
TORSDOF 5
ENDMDL
MODEL 6
REMARK VINA RESULT:      -7.6      4.125      8.859
REMARK  Name = 
REMARK  6 active torsions:
REMARK  status: ('A' for Active; 'I' for Inactive)
REMARK    1  A    between atoms: C_1  and  N_2
REMARK    2  A    between atoms: C_3  and  C_5
REMARK    3  A    between atoms: C_9  and  O_10
REMARK    4  A    between atoms: O_10  and  C_11
REMARK    5  A    between atoms: N_18  and  C_19
REMARK    6  A    between atoms: C_19  and  C_20
REMARK                            x       y       z     vdW  Elec       q    Type
REMARK                         _______ _______ _______ _____ _____    ______ ____
ROOT
ATOM      1  C   UNL     1       3.383   5.262  18.572  0.00  0.00    +0.000 C 
ATOM      2  C   UNL     1       4.534   4.269  18.882  0.00  0.00    +0.000 C 
ATOM      3  C   UNL     1       5.884   4.524  18.172  0.00  0.00    +0.000 C 
ATOM      4  C   UNL     1       6.495   5.886  18.509  0.00  0.00    +0.000 C 
ATOM      5  C   UNL     1       5.816   6.863  17.535  0.00  0.00    +0.000 C 
ATOM      6  C   UNL     1       4.970   5.970  16.620  0.00  0.00    +0.000 C 
ATOM      7  C   UNL     1       3.522   5.829  17.141  0.00  0.00    +0.000 C 
ATOM      8  N   UNL     1       5.756   4.756  16.747  0.00  0.00    +0.000 NA
ENDROOT
BRANCH   1   9
ATOM      9  O   UNL     1       3.305   6.297  19.600  0.00  0.00    +0.000 OA
BRANCH   9  14
ATOM     10  C   UNL     1       0.818   8.914  20.473  0.00  0.00    +0.000 A 
ATOM     11  C   UNL     1       0.779   9.653  19.284  0.00  0.00    +0.000 A 
ATOM     12  C   UNL     1       1.560   9.276  18.185  0.00  0.00    +0.000 A 
ATOM     13  C   UNL     1       2.400   8.153  18.257  0.00  0.00    +0.000 A 
ATOM     14  C   UNL     1       2.472   7.389  19.422  0.00  0.00    +0.000 A 
ATOM     15  C   UNL     1       1.674   7.785  20.531  0.00  0.00    +0.000 A 
BRANCH  10  18
ATOM     16  C   UNL     1      -1.099  11.323  22.765  0.00  0.00    +0.000 C 
ATOM     17  N   UNL     1      -0.324  10.778  21.672  0.00  0.00    +0.000 N 
ATOM     18  C   UNL     1      -0.073   9.419  21.583  0.00  0.00    +0.000 C 
ATOM     19  O   UNL     1      -0.550   8.628  22.397  0.00  0.00    +0.000 OA
ATOM     20  H   UNL     1       0.150  11.417  21.059  0.00  0.00    +0.000 HD
ENDBRANCH  10  18
ENDBRANCH   9  14
ENDBRANCH   1   9
BRANCH   8  21
ATOM     21  C   UNL     1       5.651   3.658  15.814  0.00  0.00    +0.000 C 
BRANCH  21  22
ATOM     22  C   UNL     1       6.252   4.000  14.454  0.00  0.00    +0.000 A 
ATOM     23  C   UNL     1       5.802   3.366  13.279  0.00  0.00    +0.000 A 
ATOM     24  C   UNL     1       6.370   3.667  12.036  0.00  0.00    +0.000 A 
ATOM     25  C   UNL     1       7.384   4.616  11.945  0.00  0.00    +0.000 A 
ATOM     26  C   UNL     1       7.822   5.270  13.097  0.00  0.00    +0.000 A 
ATOM     27  C   UNL     1       7.260   4.966  14.341  0.00  0.00    +0.000 A 
ENDBRANCH  21  22
ENDBRANCH   8  21
TORSDOF 5
ENDMDL
MODEL 7
REMARK VINA RESULT:      -7.6      0.965      1.061
REMARK  Name = 
REMARK  6 active torsions:
REMARK  status: ('A' for Active; 'I' for Inactive)
REMARK    1  A    between atoms: C_1  and  N_2
REMARK    2  A    between atoms: C_3  and  C_5
REMARK    3  A    between atoms: C_9  and  O_10
REMARK    4  A    between atoms: O_10  and  C_11
REMARK    5  A    between atoms: N_18  and  C_19
REMARK    6  A    between atoms: C_19  and  C_20
REMARK                            x       y       z     vdW  Elec       q    Type
REMARK                         _______ _______ _______ _____ _____    ______ ____
ROOT
ATOM      1  C   UNL     1       6.865   4.364  16.385  0.00  0.00    +0.000 C 
ATOM      2  C   UNL     1       5.318   4.252  16.391  0.00  0.00    +0.000 C 
ATOM      3  C   UNL     1       4.566   5.048  17.483  0.00  0.00    +0.000 C 
ATOM      4  C   UNL     1       4.808   6.557  17.403  0.00  0.00    +0.000 C 
ATOM      5  C   UNL     1       6.122   6.776  18.171  0.00  0.00    +0.000 C 
ATOM      6  C   UNL     1       6.464   5.398  18.752  0.00  0.00    +0.000 C 
ATOM      7  C   UNL     1       7.400   4.601  17.815  0.00  0.00    +0.000 C 
ATOM      8  N   UNL     1       5.112   4.869  18.812  0.00  0.00    +0.000 NA
ENDROOT
BRANCH   1   9
ATOM      9  O   UNL     1       7.305   5.375  15.427  0.00  0.00    +0.000 OA
BRANCH   9  14
ATOM     10  C   UNL     1       6.241   3.844  12.215  0.00  0.00    +0.000 A 
ATOM     11  C   UNL     1       7.136   4.445  11.322  0.00  0.00    +0.000 A 
ATOM     12  C   UNL     1       8.106   5.343  11.782  0.00  0.00    +0.000 A 
ATOM     13  C   UNL     1       8.195   5.660  13.148  0.00  0.00    +0.000 A 
ATOM     14  C   UNL     1       7.322   5.086  14.073  0.00  0.00    +0.000 A 
ATOM     15  C   UNL     1       6.341   4.177  13.589  0.00  0.00    +0.000 A 
BRANCH  10  18
ATOM     16  C   UNL     1       2.996   2.497  10.667  0.00  0.00    +0.000 C 
ATOM     17  N   UNL     1       4.016   3.381  11.187  0.00  0.00    +0.000 N 
ATOM     18  C   UNL     1       5.245   2.892  11.595  0.00  0.00    +0.000 C 
ATOM     19  O   UNL     1       5.529   1.699  11.474  0.00  0.00    +0.000 OA
ATOM     20  H   UNL     1       3.767   4.335  11.382  0.00  0.00    +0.000 HD
ENDBRANCH  10  18
ENDBRANCH   9  14
ENDBRANCH   1   9
BRANCH   8  21
ATOM     21  C   UNL     1       4.759   3.726  19.623  0.00  0.00    +0.000 C 
BRANCH  21  22
ATOM     22  C   UNL     1       3.256   3.468  19.627  0.00  0.00    +0.000 A 
ATOM     23  C   UNL     1       2.697   2.405  18.890  0.00  0.00    +0.000 A 
ATOM     24  C   UNL     1       1.315   2.184  18.878  0.00  0.00    +0.000 A 
ATOM     25  C   UNL     1       0.473   3.010  19.616  0.00  0.00    +0.000 A 
ATOM     26  C   UNL     1       1.013   4.051  20.371  0.00  0.00    +0.000 A 
ATOM     27  C   UNL     1       2.393   4.277  20.379  0.00  0.00    +0.000 A 
ENDBRANCH  21  22
ENDBRANCH   8  21
TORSDOF 5
ENDMDL
MODEL 8
REMARK VINA RESULT:      -7.6      4.476      8.933
REMARK  Name = 
REMARK  6 active torsions:
REMARK  status: ('A' for Active; 'I' for Inactive)
REMARK    1  A    between atoms: C_1  and  N_2
REMARK    2  A    between atoms: C_3  and  C_5
REMARK    3  A    between atoms: C_9  and  O_10
REMARK    4  A    between atoms: O_10  and  C_11
REMARK    5  A    between atoms: N_18  and  C_19
REMARK    6  A    between atoms: C_19  and  C_20
REMARK                            x       y       z     vdW  Elec       q    Type
REMARK                         _______ _______ _______ _____ _____    ______ ____
ROOT
ATOM      1  C   UNL     1       2.643   6.416  19.427  0.00  0.00    +0.000 C 
ATOM      2  C   UNL     1       1.952   5.940  18.122  0.00  0.00    +0.000 C 
ATOM      3  C   UNL     1       1.989   4.422  17.829  0.00  0.00    +0.000 C 
ATOM      4  C   UNL     1       1.311   3.580  18.912  0.00  0.00    +0.000 C 
ATOM      5  C   UNL     1       2.397   3.384  19.982  0.00  0.00    +0.000 C 
ATOM      6  C   UNL     1       3.658   4.008  19.370  0.00  0.00    +0.000 C 
ATOM      7  C   UNL     1       3.823   5.486  19.789  0.00  0.00    +0.000 C 
ATOM      8  N   UNL     1       3.305   3.835  17.972  0.00  0.00    +0.000 NA
ENDROOT
BRANCH   1   9
ATOM      9  O   UNL     1       1.667   6.559  20.504  0.00  0.00    +0.000 OA
BRANCH   9  14
ATOM     10  C   UNL     1       0.914  10.171  20.074  0.00  0.00    +0.000 A 
ATOM     11  C   UNL     1       0.032  10.390  21.140  0.00  0.00    +0.000 A 
ATOM     12  C   UNL     1      -0.300   9.348  22.014  0.00  0.00    +0.000 A 
ATOM     13  C   UNL     1       0.242   8.065  21.836  0.00  0.00    +0.000 A 
ATOM     14  C   UNL     1       1.123   7.802  20.785  0.00  0.00    +0.000 A 
ATOM     15  C   UNL     1       1.449   8.870  19.905  0.00  0.00    +0.000 A 
BRANCH  10  18
ATOM     16  C   UNL     1       0.755  13.739  18.668  0.00  0.00    +0.000 C 
ATOM     17  N   UNL     1       0.588  12.580  19.517  0.00  0.00    +0.000 N 
ATOM     18  C   UNL     1       1.195  11.375  19.206  0.00  0.00    +0.000 C 
ATOM     19  O   UNL     1       1.941  11.268  18.232  0.00  0.00    +0.000 OA
ATOM     20  H   UNL     1      -0.091  12.623  20.255  0.00  0.00    +0.000 HD
ENDBRANCH  10  18
ENDBRANCH   9  14
ENDBRANCH   1   9
BRANCH   8  21
ATOM     21  C   UNL     1       4.281   3.906  16.908  0.00  0.00    +0.000 C 
BRANCH  21  22
ATOM     22  C   UNL     1       5.397   4.899  17.216  0.00  0.00    +0.000 A 
ATOM     23  C   UNL     1       6.561   4.497  17.900  0.00  0.00    +0.000 A 
ATOM     24  C   UNL     1       7.573   5.415  18.201  0.00  0.00    +0.000 A 
ATOM     25  C   UNL     1       7.445   6.744  17.808  0.00  0.00    +0.000 A 
ATOM     26  C   UNL     1       6.309   7.151  17.108  0.00  0.00    +0.000 A 
ATOM     27  C   UNL     1       5.294   6.237  16.812  0.00  0.00    +0.000 A 
ENDBRANCH  21  22
ENDBRANCH   8  21
TORSDOF 5
ENDMDL
MODEL 9
REMARK VINA RESULT:      -7.6      1.417      1.904
REMARK  Name = 
REMARK  6 active torsions:
REMARK  status: ('A' for Active; 'I' for Inactive)
REMARK    1  A    between atoms: C_1  and  N_2
REMARK    2  A    between atoms: C_3  and  C_5
REMARK    3  A    between atoms: C_9  and  O_10
REMARK    4  A    between atoms: O_10  and  C_11
REMARK    5  A    between atoms: N_18  and  C_19
REMARK    6  A    between atoms: C_19  and  C_20
REMARK                            x       y       z     vdW  Elec       q    Type
REMARK                         _______ _______ _______ _____ _____    ______ ____
ROOT
ATOM      1  C   UNL     1       5.146   5.012  16.237  0.00  0.00    +0.000 C 
ATOM      2  C   UNL     1       5.003   6.478  16.721  0.00  0.00    +0.000 C 
ATOM      3  C   UNL     1       5.174   6.731  18.237  0.00  0.00    +0.000 C 
ATOM      4  C   UNL     1       6.551   6.321  18.765  0.00  0.00    +0.000 C 
ATOM      5  C   UNL     1       6.419   4.815  19.047  0.00  0.00    +0.000 C 
ATOM      6  C   UNL     1       4.940   4.502  18.792  0.00  0.00    +0.000 C 
ATOM      7  C   UNL     1       4.700   4.027  17.342  0.00  0.00    +0.000 C 
ATOM      8  N   UNL     1       4.408   5.825  19.068  0.00  0.00    +0.000 NA
ENDROOT
BRANCH   1   9
ATOM      9  O   UNL     1       6.499   4.760  15.749  0.00  0.00    +0.000 OA
BRANCH   9  14
ATOM     10  C   UNL     1       5.903   3.656  12.253  0.00  0.00    +0.000 A 
ATOM     11  C   UNL     1       6.978   4.265  11.593  0.00  0.00    +0.000 A 
ATOM     12  C   UNL     1       7.913   5.025  12.306  0.00  0.00    +0.000 A 
ATOM     13  C   UNL     1       7.787   5.194  13.694  0.00  0.00    +0.000 A 
ATOM     14  C   UNL     1       6.730   4.608  14.392  0.00  0.00    +0.000 A 
ATOM     15  C   UNL     1       5.787   3.840  13.653  0.00  0.00    +0.000 A 
BRANCH  10  18
ATOM     16  C   UNL     1       2.881   2.752  10.066  0.00  0.00    +0.000 C 
ATOM     17  N   UNL     1       3.855   3.489  10.841  0.00  0.00    +0.000 N 
ATOM     18  C   UNL     1       4.967   2.861  11.374  0.00  0.00    +0.000 C 
ATOM     19  O   UNL     1       5.194   1.670  11.155  0.00  0.00    +0.000 OA
ATOM     20  H   UNL     1       3.635   4.432  11.109  0.00  0.00    +0.000 HD
ENDBRANCH  10  18
ENDBRANCH   9  14
ENDBRANCH   1   9
BRANCH   8  21
ATOM     21  C   UNL     1       3.010   6.061  19.346  0.00  0.00    +0.000 C 
BRANCH  21  22
ATOM     22  C   UNL     1       2.316   4.820  19.898  0.00  0.00    +0.000 A 
ATOM     23  C   UNL     1       1.438   4.060  19.100  0.00  0.00    +0.000 A 
ATOM     24  C   UNL     1       0.787   2.934  19.618  0.00  0.00    +0.000 A 
ATOM     25  C   UNL     1       1.015   2.542  20.933  0.00  0.00    +0.000 A 
ATOM     26  C   UNL     1       1.900   3.270  21.727  0.00  0.00    +0.000 A 
ATOM     27  C   UNL     1       2.548   4.398  21.215  0.00  0.00    +0.000 A 
ENDBRANCH  21  22
ENDBRANCH   8  21
TORSDOF 5
ENDMDL
