MODEL 1
REMARK VINA RESULT:      -6.1      0.000      0.000
REMARK  Name = 
REMARK  7 active torsions:
REMARK  status: ('A' for Active; 'I' for Inactive)
REMARK    1  A    between atoms: N_5  and  C_6
REMARK    2  A    between atoms: C_6  and  C_7
REMARK    3  A    between atoms: C_7  and  O_8
REMARK    4  A    between atoms: O_8  and  C_9
REMARK    5  A    between atoms: C_9  and  P_10
REMARK    6  A    between atoms: P_10  and  O_12
REMARK    7  A    between atoms: P_10  and  O_13
REMARK                            x       y       z     vdW  Elec       q    Type
REMARK                         _______ _______ _______ _____ _____    ______ ____
ROOT
ATOM      1  C   UNL     1       2.967   5.051  17.683  0.00  0.00    +0.000 C 
ENDROOT
BRANCH   1   6
ATOM      2  O   UNL     1       1.729   2.342  22.237  0.00  0.00    +0.000 OA
ATOM      3  C   UNL     1       2.086   2.948  21.230  0.00  0.00    +0.000 A 
ATOM      4  C   UNL     1       1.174   3.948  20.603  0.00  0.00    +0.000 A 
ATOM      5  N   UNL     1       1.464   4.585  19.516  0.00  0.00    +0.000 NA
ATOM      6  N   UNL     1       2.698   4.340  18.939  0.00  0.00    +0.000 N 
ATOM      7  C   UNL     1       3.627   3.426  19.445  0.00  0.00    +0.000 A 
ATOM      8  O   UNL     1       4.707   3.167  18.913  0.00  0.00    +0.000 OA
ATOM      9  N   UNL     1       3.274   2.773  20.595  0.00  0.00    +0.000 N 
ATOM     10  H   UNL     1       3.924   2.098  20.960  0.00  0.00    +0.000 HD
ENDBRANCH   1   6
BRANCH   1  11
ATOM     11  C   UNL     1       3.859   6.289  17.857  0.00  0.00    +0.000 C 
BRANCH  11  12
ATOM     12  O   UNL     1       4.917   6.208  16.910  0.00  0.00    +0.000 OA
BRANCH  12  13
ATOM     13  C   UNL     1       6.224   6.056  17.478  0.00  0.00    +0.000 C 
BRANCH  13  14
ATOM     14  P   UNL     1       6.970   4.810  16.420  0.00  0.00    +0.000 P 
ATOM     15  O   UNL     1       7.548   5.273  15.118  0.00  0.00    +0.000 OA
BRANCH  14  16
ATOM     16  O   UNL     1       8.098   4.134  17.348  0.00  0.00    +0.000 OA
ATOM     17  H   UNL     1       8.812   4.781  17.525  0.00  0.00    +0.000 HD
ENDBRANCH  14  16
BRANCH  14  18
ATOM     18  O   UNL     1       5.971   3.576  16.235  0.00  0.00    +0.000 OA
ATOM     19  H   UNL     1       6.486   2.740  16.333  0.00  0.00    +0.000 HD
ENDBRANCH  14  18
ENDBRANCH  13  14
ENDBRANCH  12  13
ENDBRANCH  11  12
ENDBRANCH   1  11
TORSDOF 7
ENDMDL
MODEL 2
REMARK VINA RESULT:      -6.1      3.124      5.858
REMARK  Name = 
REMARK  7 active torsions:
REMARK  status: ('A' for Active; 'I' for Inactive)
REMARK    1  A    between atoms: N_5  and  C_6
REMARK    2  A    between atoms: C_6  and  C_7
REMARK    3  A    between atoms: C_7  and  O_8
REMARK    4  A    between atoms: O_8  and  C_9
REMARK    5  A    between atoms: C_9  and  P_10
REMARK    6  A    between atoms: P_10  and  O_12
REMARK    7  A    between atoms: P_10  and  O_13
REMARK                            x       y       z     vdW  Elec       q    Type
REMARK                         _______ _______ _______ _____ _____    ______ ____
ROOT
ATOM      1  C   UNL     1       5.355   5.316  19.123  0.00  0.00    +0.000 C 
ENDROOT
BRANCH   1   6
ATOM      2  O   UNL     1       7.187   5.155  14.002  0.00  0.00    +0.000 OA
ATOM      3  C   UNL     1       6.823   5.130  15.175  0.00  0.00    +0.000 A 
ATOM      4  C   UNL     1       5.443   5.568  15.534  0.00  0.00    +0.000 A 
ATOM      5  N   UNL     1       5.011   5.615  16.751  0.00  0.00    +0.000 NA
ATOM      6  N   UNL     1       5.872   5.204  17.754  0.00  0.00    +0.000 N 
ATOM      7  C   UNL     1       7.182   4.774  17.527  0.00  0.00    +0.000 A 
ATOM      8  O   UNL     1       7.971   4.452  18.417  0.00  0.00    +0.000 OA
ATOM      9  N   UNL     1       7.597   4.745  16.224  0.00  0.00    +0.000 N 
ATOM     10  H   UNL     1       8.545   4.457  16.047  0.00  0.00    +0.000 HD
ENDBRANCH   1   6
BRANCH   1  11
ATOM     11  C   UNL     1       3.853   5.628  19.189  0.00  0.00    +0.000 C 
BRANCH  11  12
ATOM     12  O   UNL     1       3.234   4.648  20.013  0.00  0.00    +0.000 OA
BRANCH  12  13
ATOM     13  C   UNL     1       3.261   3.315  19.489  0.00  0.00    +0.000 C 
BRANCH  13  14
ATOM     14  P   UNL     1       1.596   3.111  18.844  0.00  0.00    +0.000 P 
ATOM     15  O   UNL     1       1.224   3.915  17.638  0.00  0.00    +0.000 OA
BRANCH  14  16
ATOM     16  O   UNL     1       1.482   1.533  18.548  0.00  0.00    +0.000 OA
ATOM     17  H   UNL     1       1.117   1.075  19.333  0.00  0.00    +0.000 HD
ENDBRANCH  14  16
BRANCH  14  18
ATOM     18  O   UNL     1       0.528   3.260  20.025  0.00  0.00    +0.000 OA
ATOM     19  H   UNL     1       0.996   3.590  20.829  0.00  0.00    +0.000 HD
ENDBRANCH  14  18
ENDBRANCH  13  14
ENDBRANCH  12  13
ENDBRANCH  11  12
ENDBRANCH   1  11
TORSDOF 7
ENDMDL
MODEL 3
REMARK VINA RESULT:      -6.0      3.073      5.745
REMARK  Name = 
REMARK  7 active torsions:
REMARK  status: ('A' for Active; 'I' for Inactive)
REMARK    1  A    between atoms: N_5  and  C_6
REMARK    2  A    between atoms: C_6  and  C_7
REMARK    3  A    between atoms: C_7  and  O_8
REMARK    4  A    between atoms: O_8  and  C_9
REMARK    5  A    between atoms: C_9  and  P_10
REMARK    6  A    between atoms: P_10  and  O_12
REMARK    7  A    between atoms: P_10  and  O_13
REMARK                            x       y       z     vdW  Elec       q    Type
REMARK                         _______ _______ _______ _____ _____    ______ ____
ROOT
ATOM      1  C   UNL     1       5.395   4.915  19.287  0.00  0.00    +0.000 C 
ENDROOT
BRANCH   1   6
ATOM      2  O   UNL     1       7.068   5.118  14.113  0.00  0.00    +0.000 OA
ATOM      3  C   UNL     1       6.750   5.019  15.296  0.00  0.00    +0.000 A 
ATOM      4  C   UNL     1       5.328   5.218  15.701  0.00  0.00    +0.000 A 
ATOM      5  N   UNL     1       4.932   5.179  16.930  0.00  0.00    +0.000 NA
ATOM      6  N   UNL     1       5.880   4.905  17.901  0.00  0.00    +0.000 N 
ATOM      7  C   UNL     1       7.236   4.701  17.630  0.00  0.00    +0.000 A 
ATOM      8  O   UNL     1       8.094   4.504  18.491  0.00  0.00    +0.000 OA
ATOM      9  N   UNL     1       7.609   4.756  16.315  0.00  0.00    +0.000 N 
ATOM     10  H   UNL     1       8.585   4.631  16.107  0.00  0.00    +0.000 HD
ENDBRANCH   1   6
BRANCH   1  11
ATOM     11  C   UNL     1       3.944   5.400  19.426  0.00  0.00    +0.000 C 
BRANCH  11  12
ATOM     12  O   UNL     1       3.173   4.339  19.973  0.00  0.00    +0.000 OA
BRANCH  12  13
ATOM     13  C   UNL     1       1.792   4.336  19.588  0.00  0.00    +0.000 C 
BRANCH  13  14
ATOM     14  P   UNL     1       1.680   2.887  18.531  0.00  0.00    +0.000 P 
ATOM     15  O   UNL     1       0.358   2.190  18.462  0.00  0.00    +0.000 OA
BRANCH  14  16
ATOM     16  O   UNL     1       2.131   3.424  17.083  0.00  0.00    +0.000 OA
ATOM     17  H   UNL     1       1.525   4.138  16.792  0.00  0.00    +0.000 HD
ENDBRANCH  14  16
BRANCH  14  18
ATOM     18  O   UNL     1       2.880   1.881  18.851  0.00  0.00    +0.000 OA
ATOM     19  H   UNL     1       2.538   0.957  18.790  0.00  0.00    +0.000 HD
ENDBRANCH  14  18
ENDBRANCH  13  14
ENDBRANCH  12  13
ENDBRANCH  11  12
ENDBRANCH   1  11
TORSDOF 7
ENDMDL
MODEL 4
REMARK VINA RESULT:      -5.9      1.575      1.897
REMARK  Name = 
REMARK  7 active torsions:
REMARK  status: ('A' for Active; 'I' for Inactive)
REMARK    1  A    between atoms: N_5  and  C_6
REMARK    2  A    between atoms: C_6  and  C_7
REMARK    3  A    between atoms: C_7  and  O_8
REMARK    4  A    between atoms: O_8  and  C_9
REMARK    5  A    between atoms: C_9  and  P_10
REMARK    6  A    between atoms: P_10  and  O_12
REMARK    7  A    between atoms: P_10  and  O_13
REMARK                            x       y       z     vdW  Elec       q    Type
REMARK                         _______ _______ _______ _____ _____    ______ ____
ROOT
ATOM      1  C   UNL     1       3.980   3.411  17.462  0.00  0.00    +0.000 C 
ENDROOT
BRANCH   1   6
ATOM      2  O   UNL     1       1.239   2.523  22.079  0.00  0.00    +0.000 OA
ATOM      3  C   UNL     1       1.921   2.748  21.081  0.00  0.00    +0.000 A 
ATOM      4  C   UNL     1       1.260   3.147  19.805  0.00  0.00    +0.000 A 
ATOM      5  N   UNL     1       1.910   3.350  18.706  0.00  0.00    +0.000 NA
ATOM      6  N   UNL     1       3.287   3.217  18.742  0.00  0.00    +0.000 N 
ATOM      7  C   UNL     1       4.004   2.849  19.884  0.00  0.00    +0.000 A 
ATOM      8  O   UNL     1       5.225   2.682  19.913  0.00  0.00    +0.000 OA
ATOM      9  N   UNL     1       3.273   2.641  21.021  0.00  0.00    +0.000 N 
ATOM     10  H   UNL     1       3.775   2.356  21.846  0.00  0.00    +0.000 HD
ENDBRANCH   1   6
BRANCH   1  11
ATOM     11  C   UNL     1       4.117   4.886  17.056  0.00  0.00    +0.000 C 
BRANCH  11  12
ATOM     12  O   UNL     1       5.497   5.165  16.861  0.00  0.00    +0.000 OA
BRANCH  12  13
ATOM     13  C   UNL     1       5.992   6.297  17.586  0.00  0.00    +0.000 C 
BRANCH  13  14
ATOM     14  P   UNL     1       7.344   5.595  18.539  0.00  0.00    +0.000 P 
ATOM     15  O   UNL     1       8.117   4.477  17.911  0.00  0.00    +0.000 OA
BRANCH  14  16
ATOM     16  O   UNL     1       8.296   6.853  18.854  0.00  0.00    +0.000 OA
ATOM     17  H   UNL     1       7.784   7.685  18.768  0.00  0.00    +0.000 HD
ENDBRANCH  14  16
BRANCH  14  18
ATOM     18  O   UNL     1       6.846   5.234  20.015  0.00  0.00    +0.000 OA
ATOM     19  H   UNL     1       7.313   5.822  20.654  0.00  0.00    +0.000 HD
ENDBRANCH  14  18
ENDBRANCH  13  14
ENDBRANCH  12  13
ENDBRANCH  11  12
ENDBRANCH   1  11
TORSDOF 7
ENDMDL
MODEL 5
REMARK VINA RESULT:      -5.9      3.173      6.346
REMARK  Name = 
REMARK  7 active torsions:
REMARK  status: ('A' for Active; 'I' for Inactive)
REMARK    1  A    between atoms: N_5  and  C_6
REMARK    2  A    between atoms: C_6  and  C_7
REMARK    3  A    between atoms: C_7  and  O_8
REMARK    4  A    between atoms: O_8  and  C_9
REMARK    5  A    between atoms: C_9  and  P_10
REMARK    6  A    between atoms: P_10  and  O_12
REMARK    7  A    between atoms: P_10  and  O_13
REMARK                            x       y       z     vdW  Elec       q    Type
REMARK                         _______ _______ _______ _____ _____    ______ ____
ROOT
ATOM      1  C   UNL     1       4.558   3.764  17.858  0.00  0.00    +0.000 C 
ENDROOT
BRANCH   1   6
ATOM      2  O   UNL     1       7.896   5.436  13.900  0.00  0.00    +0.000 OA
ATOM      3  C   UNL     1       7.207   5.028  14.832  0.00  0.00    +0.000 A 
ATOM      4  C   UNL     1       5.785   4.646  14.592  0.00  0.00    +0.000 A 
ATOM      5  N   UNL     1       4.990   4.257  15.533  0.00  0.00    +0.000 NA
ATOM      6  N   UNL     1       5.508   4.166  16.814  0.00  0.00    +0.000 N 
ATOM      7  C   UNL     1       6.824   4.498  17.147  0.00  0.00    +0.000 A 
ATOM      8  O   UNL     1       7.280   4.465  18.291  0.00  0.00    +0.000 OA
ATOM      9  N   UNL     1       7.627   4.908  16.118  0.00  0.00    +0.000 N 
ATOM     10  H   UNL     1       8.572   5.169  16.347  0.00  0.00    +0.000 HD
ENDBRANCH   1   6
BRANCH   1  11
ATOM     11  C   UNL     1       3.178   3.366  17.314  0.00  0.00    +0.000 C 
BRANCH  11  12
ATOM     12  O   UNL     1       2.305   3.172  18.419  0.00  0.00    +0.000 OA
BRANCH  12  13
ATOM     13  C   UNL     1       2.930   2.648  19.597  0.00  0.00    +0.000 C 
BRANCH  13  14
ATOM     14  P   UNL     1       2.062   3.503  20.917  0.00  0.00    +0.000 P 
ATOM     15  O   UNL     1       2.205   4.992  20.980  0.00  0.00    +0.000 OA
BRANCH  14  16
ATOM     16  O   UNL     1       0.523   3.076  20.714  0.00  0.00    +0.000 OA
ATOM     17  H   UNL     1       0.393   2.731  19.807  0.00  0.00    +0.000 HD
ENDBRANCH  14  16
BRANCH  14  18
ATOM     18  O   UNL     1       2.371   2.804  22.321  0.00  0.00    +0.000 OA
ATOM     19  H   UNL     1       1.515   2.622  22.775  0.00  0.00    +0.000 HD
ENDBRANCH  14  18
ENDBRANCH  13  14
ENDBRANCH  12  13
ENDBRANCH  11  12
ENDBRANCH   1  11
TORSDOF 7
ENDMDL
MODEL 6
REMARK VINA RESULT:      -5.9      0.967      1.488
REMARK  Name = 
REMARK  7 active torsions:
REMARK  status: ('A' for Active; 'I' for Inactive)
REMARK    1  A    between atoms: N_5  and  C_6
REMARK    2  A    between atoms: C_6  and  C_7
REMARK    3  A    between atoms: C_7  and  O_8
REMARK    4  A    between atoms: O_8  and  C_9
REMARK    5  A    between atoms: C_9  and  P_10
REMARK    6  A    between atoms: P_10  and  O_12
REMARK    7  A    between atoms: P_10  and  O_13
REMARK                            x       y       z     vdW  Elec       q    Type
REMARK                         _______ _______ _______ _____ _____    ______ ____
ROOT
ATOM      1  C   UNL     1       3.288   4.051  17.638  0.00  0.00    +0.000 C 
ENDROOT
BRANCH   1   6
ATOM      2  O   UNL     1       1.288   2.330  22.397  0.00  0.00    +0.000 OA
ATOM      3  C   UNL     1       1.809   2.735  21.361  0.00  0.00    +0.000 A 
ATOM      4  C   UNL     1       0.965   3.352  20.297  0.00  0.00    +0.000 A 
ATOM      5  N   UNL     1       1.438   3.752  19.163  0.00  0.00    +0.000 NA
ATOM      6  N   UNL     1       2.801   3.626  18.956  0.00  0.00    +0.000 N 
ATOM      7  C   UNL     1       3.681   3.064  19.886  0.00  0.00    +0.000 A 
ATOM      8  O   UNL     1       4.887   2.904  19.692  0.00  0.00    +0.000 OA
ATOM      9  N   UNL     1       3.133   2.651  21.070  0.00  0.00    +0.000 N 
ATOM     10  H   UNL     1       3.752   2.227  21.741  0.00  0.00    +0.000 HD
ENDBRANCH   1   6
BRANCH   1  11
ATOM     11  C   UNL     1       3.610   5.550  17.557  0.00  0.00    +0.000 C 
BRANCH  11  12
ATOM     12  O   UNL     1       4.991   5.691  17.248  0.00  0.00    +0.000 OA
BRANCH  12  13
ATOM     13  C   UNL     1       5.449   4.885  16.156  0.00  0.00    +0.000 C 
BRANCH  13  14
ATOM     14  P   UNL     1       7.223   5.171  16.173  0.00  0.00    +0.000 P 
ATOM     15  O   UNL     1       8.066   4.204  16.945  0.00  0.00    +0.000 OA
BRANCH  14  16
ATOM     16  O   UNL     1       7.632   5.184  14.616  0.00  0.00    +0.000 OA
ATOM     17  H   UNL     1       7.517   6.086  14.252  0.00  0.00    +0.000 HD
ENDBRANCH  14  16
BRANCH  14  18
ATOM     18  O   UNL     1       7.531   6.690  16.563  0.00  0.00    +0.000 OA
ATOM     19  H   UNL     1       7.807   7.173  15.748  0.00  0.00    +0.000 HD
ENDBRANCH  14  18
ENDBRANCH  13  14
ENDBRANCH  12  13
ENDBRANCH  11  12
ENDBRANCH   1  11
TORSDOF 7
ENDMDL
MODEL 7
REMARK VINA RESULT:      -5.9      3.202      6.056
REMARK  Name = 
REMARK  7 active torsions:
REMARK  status: ('A' for Active; 'I' for Inactive)
REMARK    1  A    between atoms: N_5  and  C_6
REMARK    2  A    between atoms: C_6  and  C_7
REMARK    3  A    between atoms: C_7  and  O_8
REMARK    4  A    between atoms: O_8  and  C_9
REMARK    5  A    between atoms: C_9  and  P_10
REMARK    6  A    between atoms: P_10  and  O_12
REMARK    7  A    between atoms: P_10  and  O_13
REMARK                            x       y       z     vdW  Elec       q    Type
REMARK                         _______ _______ _______ _____ _____    ______ ____
ROOT
ATOM      1  C   UNL     1       5.140   5.038  18.766  0.00  0.00    +0.000 C 
ENDROOT
BRANCH   1   6
ATOM      2  O   UNL     1       7.469   5.203  13.851  0.00  0.00    +0.000 OA
ATOM      3  C   UNL     1       6.996   5.107  14.981  0.00  0.00    +0.000 A 
ATOM      4  C   UNL     1       5.556   5.424  15.212  0.00  0.00    +0.000 A 
ATOM      5  N   UNL     1       5.005   5.393  16.380  0.00  0.00    +0.000 NA
ATOM      6  N   UNL     1       5.795   5.015  17.452  0.00  0.00    +0.000 N 
ATOM      7  C   UNL     1       7.152   4.698  17.346  0.00  0.00    +0.000 A 
ATOM      8  O   UNL     1       7.874   4.406  18.301  0.00  0.00    +0.000 OA
ATOM      9  N   UNL     1       7.692   4.748  16.090  0.00  0.00    +0.000 N 
ATOM     10  H   UNL     1       8.673   4.540  16.002  0.00  0.00    +0.000 HD
ENDBRANCH   1   6
BRANCH   1  11
ATOM     11  C   UNL     1       4.758   3.645  19.287  0.00  0.00    +0.000 C 
BRANCH  11  12
ATOM     12  O   UNL     1       3.894   3.038  18.335  0.00  0.00    +0.000 OA
BRANCH  12  13
ATOM     13  C   UNL     1       2.954   2.105  18.882  0.00  0.00    +0.000 C 
BRANCH  13  14
ATOM     14  P   UNL     1       1.380   2.928  18.614  0.00  0.00    +0.000 P 
ATOM     15  O   UNL     1       0.164   2.062  18.498  0.00  0.00    +0.000 OA
BRANCH  14  16
ATOM     16  O   UNL     1       1.253   3.943  19.856  0.00  0.00    +0.000 OA
ATOM     17  H   UNL     1       0.327   4.256  19.934  0.00  0.00    +0.000 HD
ENDBRANCH  14  16
BRANCH  14  18
ATOM     18  O   UNL     1       1.502   3.966  17.405  0.00  0.00    +0.000 OA
ATOM     19  H   UNL     1       0.695   4.533  17.397  0.00  0.00    +0.000 HD
ENDBRANCH  14  18
ENDBRANCH  13  14
ENDBRANCH  12  13
ENDBRANCH  11  12
ENDBRANCH   1  11
TORSDOF 7
ENDMDL
MODEL 8
REMARK VINA RESULT:      -5.9      2.965      6.281
REMARK  Name = 
REMARK  7 active torsions:
REMARK  status: ('A' for Active; 'I' for Inactive)
REMARK    1  A    between atoms: N_5  and  C_6
REMARK    2  A    between atoms: C_6  and  C_7
REMARK    3  A    between atoms: C_7  and  O_8
REMARK    4  A    between atoms: O_8  and  C_9
REMARK    5  A    between atoms: C_9  and  P_10
REMARK    6  A    between atoms: P_10  and  O_12
REMARK    7  A    between atoms: P_10  and  O_13
REMARK                            x       y       z     vdW  Elec       q    Type
REMARK                         _______ _______ _______ _____ _____    ______ ____
ROOT
ATOM      1  C   UNL     1       3.271   4.481  17.575  0.00  0.00    +0.000 C 
ENDROOT
BRANCH   1   6
ATOM      2  O   UNL     1       7.714   5.393  14.570  0.00  0.00    +0.000 OA
ATOM      3  C   UNL     1       6.727   5.255  15.289  0.00  0.00    +0.000 A 
ATOM      4  C   UNL     1       6.218   3.887  15.595  0.00  0.00    +0.000 A 
ATOM      5  N   UNL     1       5.157   3.670  16.302  0.00  0.00    +0.000 NA
ATOM      6  N   UNL     1       4.494   4.771  16.818  0.00  0.00    +0.000 N 
ATOM      7  C   UNL     1       4.887   6.093  16.592  0.00  0.00    +0.000 A 
ATOM      8  O   UNL     1       4.277   7.079  17.008  0.00  0.00    +0.000 OA
ATOM      9  N   UNL     1       6.013   6.273  15.836  0.00  0.00    +0.000 N 
ATOM     10  H   UNL     1       6.297   7.220  15.650  0.00  0.00    +0.000 HD
ENDBRANCH   1   6
BRANCH   1  11
ATOM     11  C   UNL     1       2.766   3.041  17.397  0.00  0.00    +0.000 C 
BRANCH  11  12
ATOM     12  O   UNL     1       2.120   2.647  18.601  0.00  0.00    +0.000 OA
BRANCH  12  13
ATOM     13  C   UNL     1       2.949   2.684  19.770  0.00  0.00    +0.000 C 
BRANCH  13  14
ATOM     14  P   UNL     1       1.827   3.308  21.028  0.00  0.00    +0.000 P 
ATOM     15  O   UNL     1       1.665   2.488  22.269  0.00  0.00    +0.000 OA
BRANCH  14  16
ATOM     16  O   UNL     1       2.400   4.773  21.370  0.00  0.00    +0.000 OA
ATOM     17  H   UNL     1       3.281   4.693  21.792  0.00  0.00    +0.000 HD
ENDBRANCH  14  16
BRANCH  14  18
ATOM     18  O   UNL     1       0.424   3.695  20.369  0.00  0.00    +0.000 OA
ATOM     19  H   UNL     1       0.591   4.053  19.464  0.00  0.00    +0.000 HD
ENDBRANCH  14  18
ENDBRANCH  13  14
ENDBRANCH  12  13
ENDBRANCH  11  12
ENDBRANCH   1  11
TORSDOF 7
ENDMDL
MODEL 9
REMARK VINA RESULT:      -5.9      1.723      2.141
REMARK  Name = 
REMARK  7 active torsions:
REMARK  status: ('A' for Active; 'I' for Inactive)
REMARK    1  A    between atoms: N_5  and  C_6
REMARK    2  A    between atoms: C_6  and  C_7
REMARK    3  A    between atoms: C_7  and  O_8
REMARK    4  A    between atoms: O_8  and  C_9
REMARK    5  A    between atoms: C_9  and  P_10
REMARK    6  A    between atoms: P_10  and  O_12
REMARK    7  A    between atoms: P_10  and  O_13
REMARK                            x       y       z     vdW  Elec       q    Type
REMARK                         _______ _______ _______ _____ _____    ______ ____
ROOT
ATOM      1  C   UNL     1       4.946   4.969  18.643  0.00  0.00    +0.000 C 
ENDROOT
BRANCH   1   6
ATOM      2  O   UNL     1       0.354   2.049  18.703  0.00  0.00    +0.000 OA
ATOM      3  C   UNL     1       1.410   2.675  18.761  0.00  0.00    +0.000 A 
ATOM      4  C   UNL     1       1.522   4.005  18.094  0.00  0.00    +0.000 A 
ATOM      5  N   UNL     1       2.614   4.695  18.072  0.00  0.00    +0.000 NA
ATOM      6  N   UNL     1       3.714   4.174  18.732  0.00  0.00    +0.000 N 
ATOM      7  C   UNL     1       3.717   2.941  19.388  0.00  0.00    +0.000 A 
ATOM      8  O   UNL     1       4.704   2.448  19.937  0.00  0.00    +0.000 OA
ATOM      9  N   UNL     1       2.539   2.245  19.381  0.00  0.00    +0.000 N 
ATOM     10  H   UNL     1       2.532   1.346  19.833  0.00  0.00    +0.000 HD
ENDBRANCH   1   6
BRANCH   1  11
ATOM     11  C   UNL     1       4.764   6.303  17.904  0.00  0.00    +0.000 C 
BRANCH  11  12
ATOM     12  O   UNL     1       5.729   6.367  16.862  0.00  0.00    +0.000 OA
BRANCH  12  13
ATOM     13  C   UNL     1       5.379   5.649  15.672  0.00  0.00    +0.000 C 
BRANCH  13  14
ATOM     14  P   UNL     1       6.891   4.754  15.294  0.00  0.00    +0.000 P 
ATOM     15  O   UNL     1       7.758   4.355  16.447  0.00  0.00    +0.000 OA
BRANCH  14  16
ATOM     16  O   UNL     1       6.387   3.464  14.474  0.00  0.00    +0.000 OA
ATOM     17  H   UNL     1       6.920   2.682  14.728  0.00  0.00    +0.000 HD
ENDBRANCH  14  16
BRANCH  14  18
ATOM     18  O   UNL     1       7.711   5.517  14.154  0.00  0.00    +0.000 OA
ATOM     19  H   UNL     1       8.674   5.417  14.342  0.00  0.00    +0.000 HD
ENDBRANCH  14  18
ENDBRANCH  13  14
ENDBRANCH  12  13
ENDBRANCH  11  12
ENDBRANCH   1  11
TORSDOF 7
ENDMDL
