MODEL 1
REMARK VINA RESULT:      -6.5      0.000      0.000
REMARK  Name = 
REMARK  7 active torsions:
REMARK  status: ('A' for Active; 'I' for Inactive)
REMARK    1  A    between atoms: C_1  and  C_2
REMARK    2  A    between atoms: C_4  and  C_5
REMARK    3  A    between atoms: N_16  and  C_17
REMARK    4  A    between atoms: C_17  and  C_18
REMARK    5  A    between atoms: C_18  and  O_19
REMARK    6  A    between atoms: C_20  and  C_21
REMARK    7  A    between atoms: C_25  and  O_26
REMARK                            x       y       z     vdW  Elec       q    Type
REMARK                         _______ _______ _______ _____ _____    ______ ____
ROOT
ATOM      1  C   UNL     1       2.209   4.554  20.934  0.00  0.00    +0.000 C 
ATOM      2  C   UNL     1       2.018   5.961  20.446  0.00  0.00    +0.000 A 
ATOM      3  C   UNL     1       2.560   6.369  19.220  0.00  0.00    +0.000 A 
ATOM      4  C   UNL     1       2.380   7.677  18.737  0.00  0.00    +0.000 A 
ATOM      5  C   UNL     1       3.006   8.051  17.422  0.00  0.00    +0.000 C 
ATOM      6  C   UNL     1       1.630   8.585  19.511  0.00  0.00    +0.000 A 
ATOM      7  C   UNL     1       1.359   9.977  19.056  0.00  0.00    +0.000 A 
ATOM      8  O   UNL     1       1.611  10.390  17.934  0.00  0.00    +0.000 OA
ATOM      9  C   UNL     1       0.712  10.842  20.033  0.00  0.00    +0.000 A 
ATOM     10  C   UNL     1       0.267  10.317  21.169  0.00  0.00    +0.000 A 
ATOM     11  O   UNL     1       0.370   9.018  21.577  0.00  0.00    +0.000 OA
ATOM     12  C   UNL     1       1.101   8.182  20.752  0.00  0.00    +0.000 A 
ATOM     13  C   UNL     1       1.293   6.879  21.214  0.00  0.00    +0.000 A 
ATOM     14  C   UNL     1      -0.417  11.406  21.891  0.00  0.00    +0.000 C 
ATOM     15  O   UNL     1      -1.012  11.286  22.945  0.00  0.00    +0.000 OA
ATOM     16  N   UNL     1      -0.244  12.563  21.136  0.00  0.00    +0.000 N 
ATOM     17  C   UNL     1       0.454  12.292  19.886  0.00  0.00    +0.000 C 
ENDROOT
BRANCH  17  18
ATOM     18  C   UNL     1       1.724  13.102  19.722  0.00  0.00    +0.000 A 
ATOM     19  C   UNL     1       2.519  13.383  20.845  0.00  0.00    +0.000 A 
ATOM     20  C   UNL     1       3.656  14.188  20.732  0.00  0.00    +0.000 A 
ATOM     21  C   UNL     1       4.014  14.723  19.497  0.00  0.00    +0.000 A 
ATOM     22  C   UNL     1       3.229  14.452  18.383  0.00  0.00    +0.000 A 
ATOM     23  C   UNL     1       2.095  13.653  18.485  0.00  0.00    +0.000 A 
BRANCH  22  24
ATOM     24  O   UNL     1       3.525  14.969  17.157  0.00  0.00    +0.000 OA
ATOM     25  H   UNL     1       3.106  15.840  17.079  0.00  0.00    +0.000 HD
ENDBRANCH  22  24
ENDBRANCH  17  18
BRANCH  16  26
ATOM     26  C   UNL     1      -0.940  13.833  21.339  0.00  0.00    +0.000 C 
BRANCH  26  27
ATOM     27  C   UNL     1      -0.411  14.711  22.476  0.00  0.00    +0.000 C 
BRANCH  27  28
ATOM     28  O   UNL     1      -0.854  14.229  23.740  0.00  0.00    +0.000 OA
ATOM     29  H   UNL     1      -0.296  14.677  24.402  0.00  0.00    +0.000 HD
ENDBRANCH  27  28
ENDBRANCH  26  27
ENDBRANCH  16  26
TORSDOF 5
ENDMDL
MODEL 2
REMARK VINA RESULT:      -6.4      2.667      5.527
REMARK  Name = 
REMARK  7 active torsions:
REMARK  status: ('A' for Active; 'I' for Inactive)
REMARK    1  A    between atoms: C_1  and  C_2
REMARK    2  A    between atoms: C_4  and  C_5
REMARK    3  A    between atoms: N_16  and  C_17
REMARK    4  A    between atoms: C_17  and  C_18
REMARK    5  A    between atoms: C_18  and  O_19
REMARK    6  A    between atoms: C_20  and  C_21
REMARK    7  A    between atoms: C_25  and  O_26
REMARK                            x       y       z     vdW  Elec       q    Type
REMARK                         _______ _______ _______ _____ _____    ______ ____
ROOT
ATOM      1  C   UNL     1       2.460   8.083  17.684  0.00  0.00    +0.000 C 
ATOM      2  C   UNL     1       1.788   8.966  18.695  0.00  0.00    +0.000 A 
ATOM      3  C   UNL     1       1.473   8.476  19.970  0.00  0.00    +0.000 A 
ATOM      4  C   UNL     1       0.858   9.289  20.938  0.00  0.00    +0.000 A 
ATOM      5  C   UNL     1       0.532   8.690  22.279  0.00  0.00    +0.000 C 
ATOM      6  C   UNL     1       0.563  10.627  20.607  0.00  0.00    +0.000 A 
ATOM      7  C   UNL     1      -0.051  11.567  21.586  0.00  0.00    +0.000 A 
ATOM      8  O   UNL     1      -0.196  11.318  22.773  0.00  0.00    +0.000 OA
ATOM      9  C   UNL     1      -0.444  12.862  21.049  0.00  0.00    +0.000 A 
ATOM     10  C   UNL     1      -0.094  13.183  19.809  0.00  0.00    +0.000 A 
ATOM     11  O   UNL     1       0.589  12.409  18.915  0.00  0.00    +0.000 OA
ATOM     12  C   UNL     1       0.862  11.116  19.321  0.00  0.00    +0.000 A 
ATOM     13  C   UNL     1       1.471  10.290  18.374  0.00  0.00    +0.000 A 
ATOM     14  C   UNL     1      -0.540  14.572  19.596  0.00  0.00    +0.000 C 
ATOM     15  O   UNL     1      -0.334  15.232  18.595  0.00  0.00    +0.000 OA
ATOM     16  N   UNL     1      -1.226  14.957  20.745  0.00  0.00    +0.000 N 
ATOM     17  C   UNL     1      -1.191  13.920  21.767  0.00  0.00    +0.000 C 
ENDROOT
BRANCH  17  18
ATOM     18  C   UNL     1      -2.567  13.468  22.211  0.00  0.00    +0.000 A 
ATOM     19  C   UNL     1      -3.577  13.274  21.254  0.00  0.00    +0.000 A 
ATOM     20  C   UNL     1      -4.873  12.929  21.644  0.00  0.00    +0.000 A 
ATOM     21  C   UNL     1      -5.180  12.774  22.994  0.00  0.00    +0.000 A 
ATOM     22  C   UNL     1      -4.186  12.969  23.945  0.00  0.00    +0.000 A 
ATOM     23  C   UNL     1      -2.893  13.314  23.568  0.00  0.00    +0.000 A 
BRANCH  22  24
ATOM     24  O   UNL     1      -4.441  12.850  25.279  0.00  0.00    +0.000 OA
ATOM     25  H   UNL     1      -4.737  13.710  25.616  0.00  0.00    +0.000 HD
ENDBRANCH  22  24
ENDBRANCH  17  18
BRANCH  16  26
ATOM     26  C   UNL     1      -1.644  16.318  21.081  0.00  0.00    +0.000 C 
BRANCH  26  27
ATOM     27  C   UNL     1      -2.903  16.824  20.372  0.00  0.00    +0.000 C 
BRANCH  27  28
ATOM     28  O   UNL     1      -2.588  17.348  19.087  0.00  0.00    +0.000 OA
ATOM     29  H   UNL     1      -3.163  16.870  18.461  0.00  0.00    +0.000 HD
ENDBRANCH  27  28
ENDBRANCH  26  27
ENDBRANCH  16  26
TORSDOF 5
ENDMDL
MODEL 3
REMARK VINA RESULT:      -6.4      0.899      1.100
REMARK  Name = 
REMARK  7 active torsions:
REMARK  status: ('A' for Active; 'I' for Inactive)
REMARK    1  A    between atoms: C_1  and  C_2
REMARK    2  A    between atoms: C_4  and  C_5
REMARK    3  A    between atoms: N_16  and  C_17
REMARK    4  A    between atoms: C_17  and  C_18
REMARK    5  A    between atoms: C_18  and  O_19
REMARK    6  A    between atoms: C_20  and  C_21
REMARK    7  A    between atoms: C_25  and  O_26
REMARK                            x       y       z     vdW  Elec       q    Type
REMARK                         _______ _______ _______ _____ _____    ______ ____
ROOT
ATOM      1  C   UNL     1       2.185   4.552  20.998  0.00  0.00    +0.000 C 
ATOM      2  C   UNL     1       2.004   5.945  20.469  0.00  0.00    +0.000 A 
ATOM      3  C   UNL     1       2.607   6.334  19.266  0.00  0.00    +0.000 A 
ATOM      4  C   UNL     1       2.438   7.629  18.744  0.00  0.00    +0.000 A 
ATOM      5  C   UNL     1       3.131   7.982  17.457  0.00  0.00    +0.000 C 
ATOM      6  C   UNL     1       1.636   8.543  19.456  0.00  0.00    +0.000 A 
ATOM      7  C   UNL     1       1.373   9.921  18.955  0.00  0.00    +0.000 A 
ATOM      8  O   UNL     1       1.682  10.313  17.839  0.00  0.00    +0.000 OA
ATOM      9  C   UNL     1       0.664  10.799  19.875  0.00  0.00    +0.000 A 
ATOM     10  C   UNL     1       0.163  10.293  20.996  0.00  0.00    +0.000 A 
ATOM     11  O   UNL     1       0.259   9.004  21.439  0.00  0.00    +0.000 OA
ATOM     12  C   UNL     1       1.044   8.161  20.675  0.00  0.00    +0.000 A 
ATOM     13  C   UNL     1       1.227   6.870  21.176  0.00  0.00    +0.000 A 
ATOM     14  C   UNL     1      -0.573  11.387  21.655  0.00  0.00    +0.000 C 
ATOM     15  O   UNL     1      -1.224  11.283  22.678  0.00  0.00    +0.000 OA
ATOM     16  N   UNL     1      -0.372  12.530  20.885  0.00  0.00    +0.000 N 
ATOM     17  C   UNL     1       0.396  12.242  19.682  0.00  0.00    +0.000 C 
ENDROOT
BRANCH  17  18
ATOM     18  C   UNL     1       1.664  13.064  19.569  0.00  0.00    +0.000 A 
ATOM     19  C   UNL     1       2.419  13.339  20.721  0.00  0.00    +0.000 A 
ATOM     20  C   UNL     1       3.551  14.155  20.655  0.00  0.00    +0.000 A 
ATOM     21  C   UNL     1       3.945  14.708  19.439  0.00  0.00    +0.000 A 
ATOM     22  C   UNL     1       3.199  14.443  18.297  0.00  0.00    +0.000 A 
ATOM     23  C   UNL     1       2.070  13.633  18.352  0.00  0.00    +0.000 A 
BRANCH  22  24
ATOM     24  O   UNL     1       3.531  14.978  17.087  0.00  0.00    +0.000 OA
ATOM     25  H   UNL     1       2.956  14.590  16.409  0.00  0.00    +0.000 HD
ENDBRANCH  22  24
ENDBRANCH  17  18
BRANCH  16  26
ATOM     26  C   UNL     1      -1.094  13.795  21.021  0.00  0.00    +0.000 C 
BRANCH  26  27
ATOM     27  C   UNL     1      -2.594  13.744  20.726  0.00  0.00    +0.000 C 
BRANCH  27  28
ATOM     28  O   UNL     1      -2.855  13.003  19.538  0.00  0.00    +0.000 OA
ATOM     29  H   UNL     1      -2.617  13.597  18.802  0.00  0.00    +0.000 HD
ENDBRANCH  27  28
ENDBRANCH  26  27
ENDBRANCH  16  26
TORSDOF 5
ENDMDL
MODEL 4
REMARK VINA RESULT:      -6.4      0.955      1.324
REMARK  Name = 
REMARK  7 active torsions:
REMARK  status: ('A' for Active; 'I' for Inactive)
REMARK    1  A    between atoms: C_1  and  C_2
REMARK    2  A    between atoms: C_4  and  C_5
REMARK    3  A    between atoms: N_16  and  C_17
REMARK    4  A    between atoms: C_17  and  C_18
REMARK    5  A    between atoms: C_18  and  O_19
REMARK    6  A    between atoms: C_20  and  C_21
REMARK    7  A    between atoms: C_25  and  O_26
REMARK                            x       y       z     vdW  Elec       q    Type
REMARK                         _______ _______ _______ _____ _____    ______ ____
ROOT
ATOM      1  C   UNL     1       2.279   4.714  20.918  0.00  0.00    +0.000 C 
ATOM      2  C   UNL     1       2.001   6.121  20.477  0.00  0.00    +0.000 A 
ATOM      3  C   UNL     1       2.445   6.577  19.228  0.00  0.00    +0.000 A 
ATOM      4  C   UNL     1       2.183   7.887  18.789  0.00  0.00    +0.000 A 
ATOM      5  C   UNL     1       2.707   8.313  17.445  0.00  0.00    +0.000 C 
ATOM      6  C   UNL     1       1.450   8.747  19.631  0.00  0.00    +0.000 A 
ATOM      7  C   UNL     1       1.095  10.136  19.226  0.00  0.00    +0.000 A 
ATOM      8  O   UNL     1       1.257  10.582  18.101  0.00  0.00    +0.000 OA
ATOM      9  C   UNL     1       0.480  10.953  20.263  0.00  0.00    +0.000 A 
ATOM     10  C   UNL     1       0.130  10.387  21.412  0.00  0.00    +0.000 A 
ATOM     11  O   UNL     1       0.311   9.085  21.782  0.00  0.00    +0.000 OA
ATOM     12  C   UNL     1       1.019   8.297  20.893  0.00  0.00    +0.000 A 
ATOM     13  C   UNL     1       1.292   6.993  21.311  0.00  0.00    +0.000 A 
ATOM     14  C   UNL     1      -0.548  11.431  22.202  0.00  0.00    +0.000 C 
ATOM     15  O   UNL     1      -1.068  11.265  23.289  0.00  0.00    +0.000 OA
ATOM     16  N   UNL     1      -0.470  12.610  21.465  0.00  0.00    +0.000 N 
ATOM     17  C   UNL     1       0.155  12.394  20.167  0.00  0.00    +0.000 C 
ENDROOT
BRANCH  17  18
ATOM     18  C   UNL     1       1.379  13.258  19.941  0.00  0.00    +0.000 A 
ATOM     19  C   UNL     1       1.558  13.899  18.704  0.00  0.00    +0.000 A 
ATOM     20  C   UNL     1       2.713  14.641  18.445  0.00  0.00    +0.000 A 
ATOM     21  C   UNL     1       3.706  14.753  19.416  0.00  0.00    +0.000 A 
ATOM     22  C   UNL     1       3.536  14.117  20.639  0.00  0.00    +0.000 A 
ATOM     23  C   UNL     1       2.391  13.375  20.907  0.00  0.00    +0.000 A 
BRANCH  22  24
ATOM     24  O   UNL     1       4.488  14.178  21.614  0.00  0.00    +0.000 OA
ATOM     25  H   UNL     1       4.751  13.275  21.847  0.00  0.00    +0.000 HD
ENDBRANCH  22  24
ENDBRANCH  17  18
BRANCH  16  26
ATOM     26  C   UNL     1      -1.201  13.846  21.742  0.00  0.00    +0.000 C 
BRANCH  26  27
ATOM     27  C   UNL     1      -0.599  14.751  22.820  0.00  0.00    +0.000 C 
BRANCH  27  28
ATOM     28  O   UNL     1      -0.838  14.223  24.120  0.00  0.00    +0.000 OA
ATOM     29  H   UNL     1      -1.632  14.685  24.448  0.00  0.00    +0.000 HD
ENDBRANCH  27  28
ENDBRANCH  26  27
ENDBRANCH  16  26
TORSDOF 5
ENDMDL
MODEL 5
REMARK VINA RESULT:      -6.3      8.038      9.765
REMARK  Name = 
REMARK  7 active torsions:
REMARK  status: ('A' for Active; 'I' for Inactive)
REMARK    1  A    between atoms: C_1  and  C_2
REMARK    2  A    between atoms: C_4  and  C_5
REMARK    3  A    between atoms: N_16  and  C_17
REMARK    4  A    between atoms: C_17  and  C_18
REMARK    5  A    between atoms: C_18  and  O_19
REMARK    6  A    between atoms: C_20  and  C_21
REMARK    7  A    between atoms: C_25  and  O_26
REMARK                            x       y       z     vdW  Elec       q    Type
REMARK                         _______ _______ _______ _____ _____    ______ ____
ROOT
ATOM      1  C   UNL     1       6.741  11.630  26.623  0.00  0.00    +0.000 C 
ATOM      2  C   UNL     1       7.472  12.235  25.460  0.00  0.00    +0.000 A 
ATOM      3  C   UNL     1       7.904  13.567  25.506  0.00  0.00    +0.000 A 
ATOM      4  C   UNL     1       8.604  14.149  24.434  0.00  0.00    +0.000 A 
ATOM      5  C   UNL     1       9.020  15.590  24.545  0.00  0.00    +0.000 C 
ATOM      6  C   UNL     1       8.875  13.362  23.298  0.00  0.00    +0.000 A 
ATOM      7  C   UNL     1       9.644  13.888  22.136  0.00  0.00    +0.000 A 
ATOM      8  O   UNL     1      10.232  14.959  22.134  0.00  0.00    +0.000 OA
ATOM      9  C   UNL     1       9.702  13.012  20.974  0.00  0.00    +0.000 A 
ATOM     10  C   UNL     1       9.230  11.774  21.071  0.00  0.00    +0.000 A 
ATOM     11  O   UNL     1       8.637  11.197  22.157  0.00  0.00    +0.000 OA
ATOM     12  C   UNL     1       8.426  12.028  23.242  0.00  0.00    +0.000 A 
ATOM     13  C   UNL     1       7.730  11.470  24.317  0.00  0.00    +0.000 A 
ATOM     14  C   UNL     1       9.521  11.115  19.785  0.00  0.00    +0.000 C 
ATOM     15  O   UNL     1       9.294   9.949  19.524  0.00  0.00    +0.000 OA
ATOM     16  N   UNL     1      10.091  12.079  18.956  0.00  0.00    +0.000 N 
ATOM     17  C   UNL     1      10.282  13.344  19.653  0.00  0.00    +0.000 C 
ENDROOT
BRANCH  17  18
ATOM     18  C   UNL     1       9.584  14.509  18.982  0.00  0.00    +0.000 A 
ATOM     19  C   UNL     1       8.234  14.391  18.611  0.00  0.00    +0.000 A 
ATOM     20  C   UNL     1       7.589  15.423  17.926  0.00  0.00    +0.000 A 
ATOM     21  C   UNL     1       8.282  16.588  17.601  0.00  0.00    +0.000 A 
ATOM     22  C   UNL     1       9.618  16.708  17.961  0.00  0.00    +0.000 A 
ATOM     23  C   UNL     1      10.270  15.686  18.642  0.00  0.00    +0.000 A 
BRANCH  22  24
ATOM     24  O   UNL     1      10.345  17.818  17.648  0.00  0.00    +0.000 OA
ATOM     25  H   UNL     1      10.833  18.102  18.436  0.00  0.00    +0.000 HD
ENDBRANCH  22  24
ENDBRANCH  17  18
BRANCH  16  26
ATOM     26  C   UNL     1      10.748  11.829  17.674  0.00  0.00    +0.000 C 
BRANCH  26  27
ATOM     27  C   UNL     1      11.914  12.759  17.329  0.00  0.00    +0.000 C 
BRANCH  27  28
ATOM     28  O   UNL     1      11.823  13.211  15.982  0.00  0.00    +0.000 OA
ATOM     29  H   UNL     1      12.522  12.733  15.497  0.00  0.00    +0.000 HD
ENDBRANCH  27  28
ENDBRANCH  26  27
ENDBRANCH  16  26
TORSDOF 5
ENDMDL
MODEL 6
REMARK VINA RESULT:      -6.3      2.787      5.445
REMARK  Name = 
REMARK  7 active torsions:
REMARK  status: ('A' for Active; 'I' for Inactive)
REMARK    1  A    between atoms: C_1  and  C_2
REMARK    2  A    between atoms: C_4  and  C_5
REMARK    3  A    between atoms: N_16  and  C_17
REMARK    4  A    between atoms: C_17  and  C_18
REMARK    5  A    between atoms: C_18  and  O_19
REMARK    6  A    between atoms: C_20  and  C_21
REMARK    7  A    between atoms: C_25  and  O_26
REMARK                            x       y       z     vdW  Elec       q    Type
REMARK                         _______ _______ _______ _____ _____    ______ ____
ROOT
ATOM      1  C   UNL     1       2.291   8.156  17.846  0.00  0.00    +0.000 C 
ATOM      2  C   UNL     1       1.631   9.073  18.834  0.00  0.00    +0.000 A 
ATOM      3  C   UNL     1       1.295   8.617  20.116  0.00  0.00    +0.000 A 
ATOM      4  C   UNL     1       0.690   9.463  21.062  0.00  0.00    +0.000 A 
ATOM      5  C   UNL     1       0.341   8.899  22.412  0.00  0.00    +0.000 C 
ATOM      6  C   UNL     1       0.427  10.799  20.701  0.00  0.00    +0.000 A 
ATOM      7  C   UNL     1      -0.175  11.772  21.655  0.00  0.00    +0.000 A 
ATOM      8  O   UNL     1      -0.334  11.551  22.846  0.00  0.00    +0.000 OA
ATOM      9  C   UNL     1      -0.535  13.064  21.089  0.00  0.00    +0.000 A 
ATOM     10  C   UNL     1      -0.169  13.352  19.846  0.00  0.00    +0.000 A 
ATOM     11  O   UNL     1       0.504  12.545  18.973  0.00  0.00    +0.000 OA
ATOM     12  C   UNL     1       0.746  11.255  19.408  0.00  0.00    +0.000 A 
ATOM     13  C   UNL     1       1.345  10.397  18.483  0.00  0.00    +0.000 A 
ATOM     14  C   UNL     1      -0.583  14.746  19.601  0.00  0.00    +0.000 C 
ATOM     15  O   UNL     1      -0.355  15.381  18.589  0.00  0.00    +0.000 OA
ATOM     16  N   UNL     1      -1.270  15.168  20.737  0.00  0.00    +0.000 N 
ATOM     17  C   UNL     1      -1.264  14.152  21.780  0.00  0.00    +0.000 C 
ENDROOT
BRANCH  17  18
ATOM     18  C   UNL     1      -2.654  13.739  22.221  0.00  0.00    +0.000 A 
ATOM     19  C   UNL     1      -3.002  13.814  23.580  0.00  0.00    +0.000 A 
ATOM     20  C   UNL     1      -4.251  13.372  24.023  0.00  0.00    +0.000 A 
ATOM     21  C   UNL     1      -5.169  12.848  23.116  0.00  0.00    +0.000 A 
ATOM     22  C   UNL     1      -4.829  12.767  21.771  0.00  0.00    +0.000 A 
ATOM     23  C   UNL     1      -3.588  13.204  21.320  0.00  0.00    +0.000 A 
BRANCH  22  24
ATOM     24  O   UNL     1      -5.684  12.243  20.848  0.00  0.00    +0.000 OA
ATOM     25  H   UNL     1      -6.463  11.895  21.309  0.00  0.00    +0.000 HD
ENDBRANCH  22  24
ENDBRANCH  17  18
BRANCH  16  26
ATOM     26  C   UNL     1      -1.661  16.545  21.041  0.00  0.00    +0.000 C 
BRANCH  26  27
ATOM     27  C   UNL     1      -2.929  17.048  20.347  0.00  0.00    +0.000 C 
BRANCH  27  28
ATOM     28  O   UNL     1      -2.653  17.447  19.009  0.00  0.00    +0.000 OA
ATOM     29  H   UNL     1      -1.708  17.684  18.996  0.00  0.00    +0.000 HD
ENDBRANCH  27  28
ENDBRANCH  26  27
ENDBRANCH  16  26
TORSDOF 5
ENDMDL
MODEL 7
REMARK VINA RESULT:      -6.2      2.946      6.248
REMARK  Name = 
REMARK  7 active torsions:
REMARK  status: ('A' for Active; 'I' for Inactive)
REMARK    1  A    between atoms: C_1  and  C_2
REMARK    2  A    between atoms: C_4  and  C_5
REMARK    3  A    between atoms: N_16  and  C_17
REMARK    4  A    between atoms: C_17  and  C_18
REMARK    5  A    between atoms: C_18  and  O_19
REMARK    6  A    between atoms: C_20  and  C_21
REMARK    7  A    between atoms: C_25  and  O_26
REMARK                            x       y       z     vdW  Elec       q    Type
REMARK                         _______ _______ _______ _____ _____    ______ ____
ROOT
ATOM      1  C   UNL     1      -7.042  12.868  21.127  0.00  0.00    +0.000 C 
ATOM      2  C   UNL     1      -5.707  12.617  20.490  0.00  0.00    +0.000 A 
ATOM      3  C   UNL     1      -5.603  11.817  19.344  0.00  0.00    +0.000 A 
ATOM      4  C   UNL     1      -4.365  11.581  18.722  0.00  0.00    +0.000 A 
ATOM      5  C   UNL     1      -4.327  10.696  17.507  0.00  0.00    +0.000 C 
ATOM      6  C   UNL     1      -3.211  12.175  19.271  0.00  0.00    +0.000 A 
ATOM      7  C   UNL     1      -1.865  12.009  18.652  0.00  0.00    +0.000 A 
ATOM      8  O   UNL     1      -1.675  11.499  17.558  0.00  0.00    +0.000 OA
ATOM      9  C   UNL     1      -0.751  12.544  19.422  0.00  0.00    +0.000 A 
ATOM     10  C   UNL     1      -1.001  13.270  20.506  0.00  0.00    +0.000 A 
ATOM     11  O   UNL     1      -2.222  13.566  21.040  0.00  0.00    +0.000 OA
ATOM     12  C   UNL     1      -3.309  12.964  20.433  0.00  0.00    +0.000 A 
ATOM     13  C   UNL     1      -4.549  13.183  21.036  0.00  0.00    +0.000 A 
ATOM     14  C   UNL     1       0.304  13.747  20.998  0.00  0.00    +0.000 C 
ATOM     15  O   UNL     1       0.469  14.498  21.941  0.00  0.00    +0.000 OA
ATOM     16  N   UNL     1       1.278  13.173  20.184  0.00  0.00    +0.000 N 
ATOM     17  C   UNL     1       0.687  12.396  19.103  0.00  0.00    +0.000 C 
ENDROOT
BRANCH  17  18
ATOM     18  C   UNL     1       1.139  10.950  19.089  0.00  0.00    +0.000 A 
ATOM     19  C   UNL     1       1.765  10.428  17.944  0.00  0.00    +0.000 A 
ATOM     20  C   UNL     1       2.125   9.080  17.879  0.00  0.00    +0.000 A 
ATOM     21  C   UNL     1       1.864   8.233  18.954  0.00  0.00    +0.000 A 
ATOM     22  C   UNL     1       1.242   8.742  20.087  0.00  0.00    +0.000 A 
ATOM     23  C   UNL     1       0.878  10.083  20.162  0.00  0.00    +0.000 A 
BRANCH  22  24
ATOM     24  O   UNL     1       0.946   7.950  21.156  0.00  0.00    +0.000 OA
ATOM     25  H   UNL     1       0.057   8.174  21.471  0.00  0.00    +0.000 HD
ENDBRANCH  22  24
ENDBRANCH  17  18
BRANCH  16  26
ATOM     26  C   UNL     1       2.693  13.539  20.149  0.00  0.00    +0.000 C 
BRANCH  26  27
ATOM     27  C   UNL     1       3.128  14.418  18.974  0.00  0.00    +0.000 C 
BRANCH  27  28
ATOM     28  O   UNL     1       3.685  13.629  17.928  0.00  0.00    +0.000 OA
ATOM     29  H   UNL     1       4.475  14.115  17.626  0.00  0.00    +0.000 HD
ENDBRANCH  27  28
ENDBRANCH  26  27
ENDBRANCH  16  26
TORSDOF 5
ENDMDL
MODEL 8
REMARK VINA RESULT:      -6.2      5.335      7.853
REMARK  Name = 
REMARK  7 active torsions:
REMARK  status: ('A' for Active; 'I' for Inactive)
REMARK    1  A    between atoms: C_1  and  C_2
REMARK    2  A    between atoms: C_4  and  C_5
REMARK    3  A    between atoms: N_16  and  C_17
REMARK    4  A    between atoms: C_17  and  C_18
REMARK    5  A    between atoms: C_18  and  O_19
REMARK    6  A    between atoms: C_20  and  C_21
REMARK    7  A    between atoms: C_25  and  O_26
REMARK                            x       y       z     vdW  Elec       q    Type
REMARK                         _______ _______ _______ _____ _____    ______ ____
ROOT
ATOM      1  C   UNL     1       1.178   9.232  18.801  0.00  0.00    +0.000 C 
ATOM      2  C   UNL     1       0.044  10.097  19.266  0.00  0.00    +0.000 A 
ATOM      3  C   UNL     1       0.072  10.687  20.537  0.00  0.00    +0.000 A 
ATOM      4  C   UNL     1      -0.973  11.513  20.987  0.00  0.00    +0.000 A 
ATOM      5  C   UNL     1      -0.884  12.096  22.371  0.00  0.00    +0.000 C 
ATOM      6  C   UNL     1      -2.064  11.750  20.127  0.00  0.00    +0.000 A 
ATOM      7  C   UNL     1      -3.193  12.643  20.510  0.00  0.00    +0.000 A 
ATOM      8  O   UNL     1      -3.194  13.357  21.501  0.00  0.00    +0.000 OA
ATOM      9  C   UNL     1      -4.320  12.659  19.587  0.00  0.00    +0.000 A 
ATOM     10  C   UNL     1      -4.212  12.034  18.421  0.00  0.00    +0.000 A 
ATOM     11  O   UNL     1      -3.146  11.313  17.964  0.00  0.00    +0.000 OA
ATOM     12  C   UNL     1      -2.104  11.143  18.857  0.00  0.00    +0.000 A 
ATOM     13  C   UNL     1      -1.056  10.325  18.431  0.00  0.00    +0.000 A 
ATOM     14  C   UNL     1      -5.456  12.314  17.680  0.00  0.00    +0.000 C 
ATOM     15  O   UNL     1      -5.691  11.960  16.541  0.00  0.00    +0.000 OA
ATOM     16  N   UNL     1      -6.278  13.044  18.535  0.00  0.00    +0.000 N 
ATOM     17  C   UNL     1      -5.613  13.350  19.794  0.00  0.00    +0.000 C 
ENDROOT
BRANCH  17  18
ATOM     18  C   UNL     1      -6.364  12.840  21.007  0.00  0.00    +0.000 A 
ATOM     19  C   UNL     1      -7.138  11.673  20.905  0.00  0.00    +0.000 A 
ATOM     20  C   UNL     1      -7.898  11.223  21.988  0.00  0.00    +0.000 A 
ATOM     21  C   UNL     1      -7.894  11.932  23.187  0.00  0.00    +0.000 A 
ATOM     22  C   UNL     1      -7.133  13.089  23.292  0.00  0.00    +0.000 A 
ATOM     23  C   UNL     1      -6.375  13.547  22.220  0.00  0.00    +0.000 A 
BRANCH  22  24
ATOM     24  O   UNL     1      -7.114  13.830  24.437  0.00  0.00    +0.000 OA
ATOM     25  H   UNL     1      -8.024  14.079  24.661  0.00  0.00    +0.000 HD
ENDBRANCH  22  24
ENDBRANCH  17  18
BRANCH  16  26
ATOM     26  C   UNL     1      -7.509  13.739  18.156  0.00  0.00    +0.000 C 
BRANCH  26  27
ATOM     27  C   UNL     1      -7.326  15.079  17.440  0.00  0.00    +0.000 C 
BRANCH  27  28
ATOM     28  O   UNL     1      -6.765  14.893  16.145  0.00  0.00    +0.000 OA
ATOM     29  H   UNL     1      -6.086  14.201  16.251  0.00  0.00    +0.000 HD
ENDBRANCH  27  28
ENDBRANCH  26  27
ENDBRANCH  16  26
TORSDOF 5
ENDMDL
MODEL 9
REMARK VINA RESULT:      -6.2      5.850      9.405
REMARK  Name = 
REMARK  7 active torsions:
REMARK  status: ('A' for Active; 'I' for Inactive)
REMARK    1  A    between atoms: C_1  and  C_2
REMARK    2  A    between atoms: C_4  and  C_5
REMARK    3  A    between atoms: N_16  and  C_17
REMARK    4  A    between atoms: C_17  and  C_18
REMARK    5  A    between atoms: C_18  and  O_19
REMARK    6  A    between atoms: C_20  and  C_21
REMARK    7  A    between atoms: C_25  and  O_26
REMARK                            x       y       z     vdW  Elec       q    Type
REMARK                         _______ _______ _______ _____ _____    ______ ____
ROOT
ATOM      1  C   UNL     1       1.592  17.228  20.665  0.00  0.00    +0.000 C 
ATOM      2  C   UNL     1       2.760  16.516  20.045  0.00  0.00    +0.000 A 
ATOM      3  C   UNL     1       2.576  15.307  19.361  0.00  0.00    +0.000 A 
ATOM      4  C   UNL     1       3.653  14.632  18.761  0.00  0.00    +0.000 A 
ATOM      5  C   UNL     1       3.384  13.329  18.059  0.00  0.00    +0.000 C 
ATOM      6  C   UNL     1       4.939  15.198  18.851  0.00  0.00    +0.000 A 
ATOM      7  C   UNL     1       6.128  14.569  18.210  0.00  0.00    +0.000 A 
ATOM      8  O   UNL     1       6.067  13.627  17.435  0.00  0.00    +0.000 OA
ATOM      9  C   UNL     1       7.410  15.182  18.528  0.00  0.00    +0.000 A 
ATOM     10  C   UNL     1       7.432  16.323  19.207  0.00  0.00    +0.000 A 
ATOM     11  O   UNL     1       6.362  17.013  19.701  0.00  0.00    +0.000 OA
ATOM     12  C   UNL     1       5.130  16.404  19.554  0.00  0.00    +0.000 A 
ATOM     13  C   UNL     1       4.047  17.057  20.145  0.00  0.00    +0.000 A 
ATOM     14  C   UNL     1       8.845  16.738  19.281  0.00  0.00    +0.000 C 
ATOM     15  O   UNL     1       9.251  17.774  19.772  0.00  0.00    +0.000 OA
ATOM     16  N   UNL     1       9.595  15.724  18.688  0.00  0.00    +0.000 N 
ATOM     17  C   UNL     1       8.745  14.678  18.135  0.00  0.00    +0.000 C 
ENDROOT
BRANCH  17  18
ATOM     18  C   UNL     1       9.043  13.304  18.700  0.00  0.00    +0.000 A 
ATOM     19  C   UNL     1       9.205  12.214  17.828  0.00  0.00    +0.000 A 
ATOM     20  C   UNL     1       9.407  10.925  18.327  0.00  0.00    +0.000 A 
ATOM     21  C   UNL     1       9.450  10.705  19.702  0.00  0.00    +0.000 A 
ATOM     22  C   UNL     1       9.286  11.778  20.569  0.00  0.00    +0.000 A 
ATOM     23  C   UNL     1       9.083  13.065  20.083  0.00  0.00    +0.000 A 
BRANCH  22  24
ATOM     24  O   UNL     1       9.299  11.612  21.922  0.00  0.00    +0.000 OA
ATOM     25  H   UNL     1       9.486  10.681  22.118  0.00  0.00    +0.000 HD
ENDBRANCH  22  24
ENDBRANCH  17  18
BRANCH  16  26
ATOM     26  C   UNL     1      11.010  15.802  18.327  0.00  0.00    +0.000 C 
BRANCH  26  27
ATOM     27  C   UNL     1      11.332  16.585  17.052  0.00  0.00    +0.000 C 
BRANCH  27  28
ATOM     28  O   UNL     1      10.798  15.934  15.905  0.00  0.00    +0.000 OA
ATOM     29  H   UNL     1       9.831  15.941  16.026  0.00  0.00    +0.000 HD
ENDBRANCH  27  28
ENDBRANCH  26  27
ENDBRANCH  16  26
TORSDOF 5
ENDMDL
