MODEL 1
REMARK VINA RESULT:      -7.0      0.000      0.000
REMARK  Name = 
REMARK  8 active torsions:
REMARK  status: ('A' for Active; 'I' for Inactive)
REMARK    1  A    between atoms: C_1  and  C_2
REMARK    2  A    between atoms: C_2  and  C_3
REMARK    3  A    between atoms: C_3  and  C_4
REMARK    4  A    between atoms: C_10  and  S_11
REMARK    5  A    between atoms: S_11  and  N_14
REMARK    6  A    between atoms: N_14  and  C_15
REMARK    7  A    between atoms: N_14  and  C_16
REMARK    8  A    between atoms: C_16  and  C_17
REMARK                            x       y       z     vdW  Elec       q    Type
REMARK                         _______ _______ _______ _____ _____    ______ ____
ROOT
ATOM      1  C   UNL     1       5.687   2.753  11.852  0.00  0.00    +0.000 C 
ATOM      2  O   UNL     1       6.058   1.830  11.118  0.00  0.00    +0.000 OA
ATOM      3  N   UNL     1       6.300   2.912  13.070  0.00  0.00    +0.000 N 
ATOM      4  C   UNL     1       5.940   3.828  14.018  0.00  0.00    +0.000 A 
ATOM      5  N   UNL     1       4.859   4.568  14.079  0.00  0.00    +0.000 NA
ATOM      6  N   UNL     1       4.877   5.426  15.155  0.00  0.00    +0.000 NA
ATOM      7  C   UNL     1       5.999   5.312  15.839  0.00  0.00    +0.000 A 
ATOM      8  S   UNL     1       7.046   4.068  15.299  0.00  0.00    +0.000 S 
ATOM      9  H   UNL     1       7.092   2.310  13.247  0.00  0.00    +0.000 HD
ENDROOT
BRANCH   7  10
ATOM     10  S   UNL     1       6.478   6.403  17.149  0.00  0.00    +0.000 S 
ATOM     11  O   UNL     1       7.764   6.967  16.787  0.00  0.00    +0.000 OA
ATOM     12  O   UNL     1       5.325   7.259  17.339  0.00  0.00    +0.000 OA
BRANCH  10  13
ATOM     13  N   UNL     1       6.699   5.471  18.578  0.00  0.00    +0.000 NA
ATOM     14  C   UNL     1       7.904   5.859  19.351  0.00  0.00    +0.000 C 
BRANCH  13  15
ATOM     15  C   UNL     1       5.459   5.397  19.403  0.00  0.00    +0.000 C 
BRANCH  15  16
ATOM     16  C   UNL     1       4.681   4.161  19.093  0.00  0.00    +0.000 A 
ATOM     17  C   UNL     1       3.675   3.865  18.195  0.00  0.00    +0.000 A 
ATOM     18  C   UNL     1       3.366   2.495  18.378  0.00  0.00    +0.000 A 
ATOM     19  C   UNL     1       4.194   2.045  19.379  0.00  0.00    +0.000 A 
ATOM     20  O   UNL     1       4.999   3.047  19.816  0.00  0.00    +0.000 OA
ENDBRANCH  15  16
ENDBRANCH  13  15
ENDBRANCH  10  13
ENDBRANCH   7  10
BRANCH   1  21
ATOM     21  C   UNL     1       4.618   3.749  11.429  0.00  0.00    +0.000 C 
BRANCH  21  23
ATOM     22  C   UNL     1       2.970   4.128   9.581  0.00  0.00    +0.000 C 
ATOM     23  C   UNL     1       3.477   3.138  10.620  0.00  0.00    +0.000 C 
ENDBRANCH  21  23
ENDBRANCH   1  21
TORSDOF 6
ENDMDL
MODEL 2
REMARK VINA RESULT:      -7.0      3.119      4.316
REMARK  Name = 
REMARK  8 active torsions:
REMARK  status: ('A' for Active; 'I' for Inactive)
REMARK    1  A    between atoms: C_1  and  C_2
REMARK    2  A    between atoms: C_2  and  C_3
REMARK    3  A    between atoms: C_3  and  C_4
REMARK    4  A    between atoms: C_10  and  S_11
REMARK    5  A    between atoms: S_11  and  N_14
REMARK    6  A    between atoms: N_14  and  C_15
REMARK    7  A    between atoms: N_14  and  C_16
REMARK    8  A    between atoms: C_16  and  C_17
REMARK                            x       y       z     vdW  Elec       q    Type
REMARK                         _______ _______ _______ _____ _____    ______ ____
ROOT
ATOM      1  C   UNL     1       7.555   5.175  13.396  0.00  0.00    +0.000 C 
ATOM      2  O   UNL     1       8.464   5.670  12.721  0.00  0.00    +0.000 OA
ATOM      3  N   UNL     1       7.587   5.334  14.759  0.00  0.00    +0.000 N 
ATOM      4  C   UNL     1       6.702   4.773  15.637  0.00  0.00    +0.000 A 
ATOM      5  N   UNL     1       5.811   3.835  15.422  0.00  0.00    +0.000 NA
ATOM      6  N   UNL     1       5.052   3.573  16.539  0.00  0.00    +0.000 NA
ATOM      7  C   UNL     1       5.390   4.360  17.543  0.00  0.00    +0.000 A 
ATOM      8  S   UNL     1       6.735   5.376  17.236  0.00  0.00    +0.000 S 
ATOM      9  H   UNL     1       8.315   5.935  15.117  0.00  0.00    +0.000 HD
ENDROOT
BRANCH   7  10
ATOM     10  S   UNL     1       4.490   4.472  19.064  0.00  0.00    +0.000 S 
ATOM     11  O   UNL     1       4.218   3.117  19.500  0.00  0.00    +0.000 OA
ATOM     12  O   UNL     1       5.286   5.363  19.883  0.00  0.00    +0.000 OA
BRANCH  10  13
ATOM     13  N   UNL     1       2.981   5.234  18.748  0.00  0.00    +0.000 NA
ATOM     14  C   UNL     1       1.880   4.273  18.498  0.00  0.00    +0.000 C 
BRANCH  13  15
ATOM     15  C   UNL     1       2.648   6.274  19.763  0.00  0.00    +0.000 C 
BRANCH  15  16
ATOM     16  C   UNL     1       2.252   7.556  19.108  0.00  0.00    +0.000 A 
ATOM     17  C   UNL     1       2.468   8.095  17.855  0.00  0.00    +0.000 A 
ATOM     18  C   UNL     1       1.813   9.351  17.841  0.00  0.00    +0.000 A 
ATOM     19  C   UNL     1       1.247   9.501  19.085  0.00  0.00    +0.000 A 
ATOM     20  O   UNL     1       1.504   8.416  19.859  0.00  0.00    +0.000 OA
ENDBRANCH  15  16
ENDBRANCH  13  15
ENDBRANCH  10  13
ENDBRANCH   7  10
BRANCH   1  21
ATOM     21  C   UNL     1       6.376   4.448  12.765  0.00  0.00    +0.000 C 
BRANCH  21  23
ATOM     22  C   UNL     1       5.551   2.373  11.632  0.00  0.00    +0.000 C 
ATOM     23  C   UNL     1       6.767   3.247  11.910  0.00  0.00    +0.000 C 
ENDBRANCH  21  23
ENDBRANCH   1  21
TORSDOF 6
ENDMDL
MODEL 3
REMARK VINA RESULT:      -6.9      2.679      6.522
REMARK  Name = 
REMARK  8 active torsions:
REMARK  status: ('A' for Active; 'I' for Inactive)
REMARK    1  A    between atoms: C_1  and  C_2
REMARK    2  A    between atoms: C_2  and  C_3
REMARK    3  A    between atoms: C_3  and  C_4
REMARK    4  A    between atoms: C_10  and  S_11
REMARK    5  A    between atoms: S_11  and  N_14
REMARK    6  A    between atoms: N_14  and  C_15
REMARK    7  A    between atoms: N_14  and  C_16
REMARK    8  A    between atoms: C_16  and  C_17
REMARK                            x       y       z     vdW  Elec       q    Type
REMARK                         _______ _______ _______ _____ _____    ______ ____
ROOT
ATOM      1  C   UNL     1       2.138   3.353  20.981  0.00  0.00    +0.000 C 
ATOM      2  O   UNL     1       1.974   2.566  21.920  0.00  0.00    +0.000 OA
ATOM      3  N   UNL     1       3.412   3.770  20.687  0.00  0.00    +0.000 N 
ATOM      4  C   UNL     1       3.736   4.699  19.738  0.00  0.00    +0.000 A 
ATOM      5  N   UNL     1       2.947   5.519  19.085  0.00  0.00    +0.000 NA
ATOM      6  N   UNL     1       3.631   6.267  18.155  0.00  0.00    +0.000 NA
ATOM      7  C   UNL     1       4.910   5.946  18.129  0.00  0.00    +0.000 A 
ATOM      8  S   UNL     1       5.389   4.810  19.319  0.00  0.00    +0.000 S 
ATOM      9  H   UNL     1       4.154   3.325  21.209  0.00  0.00    +0.000 HD
ENDROOT
BRANCH   7  10
ATOM     10  S   UNL     1       6.057   6.530  16.913  0.00  0.00    +0.000 S 
ATOM     11  O   UNL     1       5.283   6.933  15.755  0.00  0.00    +0.000 OA
ATOM     12  O   UNL     1       6.871   7.493  17.626  0.00  0.00    +0.000 OA
BRANCH  10  13
ATOM     13  N   UNL     1       7.064   5.218  16.440  0.00  0.00    +0.000 NA
ATOM     14  C   UNL     1       7.817   4.621  17.569  0.00  0.00    +0.000 C 
BRANCH  13  15
ATOM     15  C   UNL     1       6.336   4.216  15.611  0.00  0.00    +0.000 C 
BRANCH  15  16
ATOM     16  C   UNL     1       6.726   4.324  14.174  0.00  0.00    +0.000 A 
ATOM     17  C   UNL     1       6.293   3.704  13.018  0.00  0.00    +0.000 A 
ATOM     18  C   UNL     1       7.053   4.258  11.958  0.00  0.00    +0.000 A 
ATOM     19  C   UNL     1       7.904   5.171  12.535  0.00  0.00    +0.000 A 
ATOM     20  O   UNL     1       7.710   5.222  13.877  0.00  0.00    +0.000 OA
ENDBRANCH  15  16
ENDBRANCH  13  15
ENDBRANCH  10  13
ENDBRANCH   7  10
BRANCH   1  21
ATOM     21  C   UNL     1       0.986   3.827  20.107  0.00  0.00    +0.000 C 
BRANCH  21  23
ATOM     22  C   UNL     1       1.647   1.858  18.708  0.00  0.00    +0.000 C 
ATOM     23  C   UNL     1       0.510   2.799  19.086  0.00  0.00    +0.000 C 
ENDBRANCH  21  23
ENDBRANCH   1  21
TORSDOF 6
ENDMDL
MODEL 4
REMARK VINA RESULT:      -6.9      4.118      5.976
REMARK  Name = 
REMARK  8 active torsions:
REMARK  status: ('A' for Active; 'I' for Inactive)
REMARK    1  A    between atoms: C_1  and  C_2
REMARK    2  A    between atoms: C_2  and  C_3
REMARK    3  A    between atoms: C_3  and  C_4
REMARK    4  A    between atoms: C_10  and  S_11
REMARK    5  A    between atoms: S_11  and  N_14
REMARK    6  A    between atoms: N_14  and  C_15
REMARK    7  A    between atoms: N_14  and  C_16
REMARK    8  A    between atoms: C_16  and  C_17
REMARK                            x       y       z     vdW  Elec       q    Type
REMARK                         _______ _______ _______ _____ _____    ______ ____
ROOT
ATOM      1  C   UNL     1       1.403   2.149  18.794  0.00  0.00    +0.000 C 
ATOM      2  O   UNL     1       0.312   1.723  18.397  0.00  0.00    +0.000 OA
ATOM      3  N   UNL     1       2.318   2.577  17.865  0.00  0.00    +0.000 N 
ATOM      4  C   UNL     1       3.590   2.991  18.148  0.00  0.00    +0.000 A 
ATOM      5  N   UNL     1       4.265   2.871  19.265  0.00  0.00    +0.000 NA
ATOM      6  N   UNL     1       5.501   3.471  19.191  0.00  0.00    +0.000 NA
ATOM      7  C   UNL     1       5.685   4.048  18.019  0.00  0.00    +0.000 A 
ATOM      8  S   UNL     1       4.424   3.790  16.888  0.00  0.00    +0.000 S 
ATOM      9  H   UNL     1       1.996   2.604  16.908  0.00  0.00    +0.000 HD
ENDROOT
BRANCH   7  10
ATOM     10  S   UNL     1       7.053   5.104  17.635  0.00  0.00    +0.000 S 
ATOM     11  O   UNL     1       8.018   4.961  18.708  0.00  0.00    +0.000 OA
ATOM     12  O   UNL     1       7.406   4.748  16.276  0.00  0.00    +0.000 OA
BRANCH  10  13
ATOM     13  N   UNL     1       6.501   6.733  17.640  0.00  0.00    +0.000 NA
ATOM     14  C   UNL     1       7.595   7.723  17.492  0.00  0.00    +0.000 C 
BRANCH  13  15
ATOM     15  C   UNL     1       5.367   6.949  16.696  0.00  0.00    +0.000 C 
BRANCH  15  16
ATOM     16  C   UNL     1       4.122   7.322  17.430  0.00  0.00    +0.000 A 
ATOM     17  C   UNL     1       3.480   6.814  18.542  0.00  0.00    +0.000 A 
ATOM     18  C   UNL     1       2.339   7.627  18.753  0.00  0.00    +0.000 A 
ATOM     19  C   UNL     1       2.353   8.571  17.754  0.00  0.00    +0.000 A 
ATOM     20  O   UNL     1       3.432   8.398  16.949  0.00  0.00    +0.000 OA
ENDBRANCH  15  16
ENDBRANCH  13  15
ENDBRANCH  10  13
ENDBRANCH   7  10
BRANCH   1  21
ATOM     21  C   UNL     1       1.741   2.266  20.272  0.00  0.00    +0.000 C 
BRANCH  21  23
ATOM     22  C   UNL     1       1.244   4.712  20.485  0.00  0.00    +0.000 C 
ATOM     23  C   UNL     1       0.929   3.321  21.019  0.00  0.00    +0.000 C 
ENDBRANCH  21  23
ENDBRANCH   1  21
TORSDOF 6
ENDMDL
MODEL 5
REMARK VINA RESULT:      -6.6      1.553      1.897
REMARK  Name = 
REMARK  8 active torsions:
REMARK  status: ('A' for Active; 'I' for Inactive)
REMARK    1  A    between atoms: C_1  and  C_2
REMARK    2  A    between atoms: C_2  and  C_3
REMARK    3  A    between atoms: C_3  and  C_4
REMARK    4  A    between atoms: C_10  and  S_11
REMARK    5  A    between atoms: S_11  and  N_14
REMARK    6  A    between atoms: N_14  and  C_15
REMARK    7  A    between atoms: N_14  and  C_16
REMARK    8  A    between atoms: C_16  and  C_17
REMARK                            x       y       z     vdW  Elec       q    Type
REMARK                         _______ _______ _______ _____ _____    ______ ____
ROOT
ATOM      1  C   UNL     1       6.047   3.142  12.318  0.00  0.00    +0.000 C 
ATOM      2  O   UNL     1       6.678   2.548  11.436  0.00  0.00    +0.000 OA
ATOM      3  N   UNL     1       6.641   3.324  13.541  0.00  0.00    +0.000 N 
ATOM      4  C   UNL     1       6.038   3.883  14.633  0.00  0.00    +0.000 A 
ATOM      5  N   UNL     1       4.769   4.152  14.825  0.00  0.00    +0.000 NA
ATOM      6  N   UNL     1       4.547   4.777  16.030  0.00  0.00    +0.000 NA
ATOM      7  C   UNL     1       5.677   4.981  16.679  0.00  0.00    +0.000 A 
ATOM      8  S   UNL     1       7.065   4.312  15.930  0.00  0.00    +0.000 S 
ATOM      9  H   UNL     1       7.608   3.038  13.610  0.00  0.00    +0.000 HD
ENDROOT
BRANCH   7  10
ATOM     10  S   UNL     1       5.814   5.954  18.153  0.00  0.00    +0.000 S 
ATOM     11  O   UNL     1       7.167   5.789  18.649  0.00  0.00    +0.000 OA
ATOM     12  O   UNL     1       5.327   7.261  17.762  0.00  0.00    +0.000 OA
BRANCH  10  13
ATOM     13  N   UNL     1       4.741   5.309  19.332  0.00  0.00    +0.000 NA
ATOM     14  C   UNL     1       3.411   5.964  19.335  0.00  0.00    +0.000 C 
BRANCH  13  15
ATOM     15  C   UNL     1       4.673   3.820  19.283  0.00  0.00    +0.000 C 
BRANCH  15  16
ATOM     16  C   UNL     1       3.328   3.330  19.703  0.00  0.00    +0.000 A 
ATOM     17  C   UNL     1       2.742   3.081  20.929  0.00  0.00    +0.000 A 
ATOM     18  C   UNL     1       1.422   2.643  20.660  0.00  0.00    +0.000 A 
ATOM     19  C   UNL     1       1.289   2.645  19.292  0.00  0.00    +0.000 A 
ATOM     20  O   UNL     1       2.438   3.064  18.702  0.00  0.00    +0.000 OA
ENDBRANCH  15  16
ENDBRANCH  13  15
ENDBRANCH  10  13
ENDBRANCH   7  10
BRANCH   1  21
ATOM     21  C   UNL     1       4.663   3.725  12.075  0.00  0.00    +0.000 C 
BRANCH  21  23
ATOM     22  C   UNL     1       3.229   3.941  10.033  0.00  0.00    +0.000 C 
ATOM     23  C   UNL     1       3.839   2.970  11.036  0.00  0.00    +0.000 C 
ENDBRANCH  21  23
ENDBRANCH   1  21
TORSDOF 6
ENDMDL
MODEL 6
REMARK VINA RESULT:      -6.6      2.161      2.677
REMARK  Name = 
REMARK  8 active torsions:
REMARK  status: ('A' for Active; 'I' for Inactive)
REMARK    1  A    between atoms: C_1  and  C_2
REMARK    2  A    between atoms: C_2  and  C_3
REMARK    3  A    between atoms: C_3  and  C_4
REMARK    4  A    between atoms: C_10  and  S_11
REMARK    5  A    between atoms: S_11  and  N_14
REMARK    6  A    between atoms: N_14  and  C_15
REMARK    7  A    between atoms: N_14  and  C_16
REMARK    8  A    between atoms: C_16  and  C_17
REMARK                            x       y       z     vdW  Elec       q    Type
REMARK                         _______ _______ _______ _____ _____    ______ ____
ROOT
ATOM      1  C   UNL     1       6.798   4.129  12.397  0.00  0.00    +0.000 C 
ATOM      2  O   UNL     1       7.452   4.437  11.394  0.00  0.00    +0.000 OA
ATOM      3  N   UNL     1       7.160   4.664  13.608  0.00  0.00    +0.000 N 
ATOM      4  C   UNL     1       6.587   4.350  14.809  0.00  0.00    +0.000 A 
ATOM      5  N   UNL     1       5.768   3.368  15.099  0.00  0.00    +0.000 NA
ATOM      6  N   UNL     1       5.348   3.411  16.408  0.00  0.00    +0.000 NA
ATOM      7  C   UNL     1       5.850   4.456  17.038  0.00  0.00    +0.000 A 
ATOM      8  S   UNL     1       6.966   5.378  16.121  0.00  0.00    +0.000 S 
ATOM      9  H   UNL     1       7.892   5.359  13.582  0.00  0.00    +0.000 HD
ENDROOT
BRANCH   7  10
ATOM     10  S   UNL     1       5.361   4.967  18.661  0.00  0.00    +0.000 S 
ATOM     11  O   UNL     1       5.184   3.766  19.453  0.00  0.00    +0.000 OA
ATOM     12  O   UNL     1       6.350   5.957  19.035  0.00  0.00    +0.000 OA
BRANCH  10  13
ATOM     13  N   UNL     1       3.833   5.749  18.546  0.00  0.00    +0.000 NA
ATOM     14  C   UNL     1       3.893   7.053  17.843  0.00  0.00    +0.000 C 
BRANCH  13  15
ATOM     15  C   UNL     1       2.769   4.840  18.032  0.00  0.00    +0.000 C 
BRANCH  15  16
ATOM     16  C   UNL     1       2.125   4.082  19.146  0.00  0.00    +0.000 A 
ATOM     17  C   UNL     1       1.493   4.456  20.315  0.00  0.00    +0.000 A 
ATOM     18  C   UNL     1       1.078   3.258  20.946  0.00  0.00    +0.000 A 
ATOM     19  C   UNL     1       1.490   2.232  20.129  0.00  0.00    +0.000 A 
ATOM     20  O   UNL     1       2.122   2.722  19.032  0.00  0.00    +0.000 OA
ENDBRANCH  15  16
ENDBRANCH  13  15
ENDBRANCH  10  13
ENDBRANCH   7  10
BRANCH   1  21
ATOM     21  C   UNL     1       5.576   3.226  12.324  0.00  0.00    +0.000 C 
BRANCH  21  23
ATOM     22  C   UNL     1       3.579   2.859  10.858  0.00  0.00    +0.000 C 
ATOM     23  C   UNL     1       4.353   3.877  11.684  0.00  0.00    +0.000 C 
ENDBRANCH  21  23
ENDBRANCH   1  21
TORSDOF 6
ENDMDL
MODEL 7
REMARK VINA RESULT:      -6.5      4.735      7.846
REMARK  Name = 
REMARK  8 active torsions:
REMARK  status: ('A' for Active; 'I' for Inactive)
REMARK    1  A    between atoms: C_1  and  C_2
REMARK    2  A    between atoms: C_2  and  C_3
REMARK    3  A    between atoms: C_3  and  C_4
REMARK    4  A    between atoms: C_10  and  S_11
REMARK    5  A    between atoms: S_11  and  N_14
REMARK    6  A    between atoms: N_14  and  C_15
REMARK    7  A    between atoms: N_14  and  C_16
REMARK    8  A    between atoms: C_16  and  C_17
REMARK                            x       y       z     vdW  Elec       q    Type
REMARK                         _______ _______ _______ _____ _____    ______ ____
ROOT
ATOM      1  C   UNL     1       1.189   9.459  21.204  0.00  0.00    +0.000 C 
ATOM      2  O   UNL     1       0.998  10.152  22.209  0.00  0.00    +0.000 OA
ATOM      3  N   UNL     1       1.493   8.131  21.368  0.00  0.00    +0.000 N 
ATOM      4  C   UNL     1       1.813   7.267  20.359  0.00  0.00    +0.000 A 
ATOM      5  N   UNL     1       2.106   7.533  19.109  0.00  0.00    +0.000 NA
ATOM      6  N   UNL     1       2.311   6.391  18.369  0.00  0.00    +0.000 NA
ATOM      7  C   UNL     1       2.128   5.308  19.099  0.00  0.00    +0.000 A 
ATOM      8  S   UNL     1       1.822   5.605  20.758  0.00  0.00    +0.000 S 
ATOM      9  H   UNL     1       1.447   7.782  22.315  0.00  0.00    +0.000 HD
ENDROOT
BRANCH   7  10
ATOM     10  S   UNL     1       2.083   3.664  18.443  0.00  0.00    +0.000 S 
ATOM     11  O   UNL     1       1.346   2.847  19.387  0.00  0.00    +0.000 OA
ATOM     12  O   UNL     1       1.603   3.835  17.086  0.00  0.00    +0.000 OA
BRANCH  10  13
ATOM     13  N   UNL     1       3.693   3.063  18.374  0.00  0.00    +0.000 NA
ATOM     14  C   UNL     1       3.782   1.599  18.594  0.00  0.00    +0.000 C 
BRANCH  13  15
ATOM     15  C   UNL     1       4.420   3.530  17.159  0.00  0.00    +0.000 C 
BRANCH  15  16
ATOM     16  C   UNL     1       5.422   4.581  17.505  0.00  0.00    +0.000 A 
ATOM     17  C   UNL     1       5.684   5.847  17.020  0.00  0.00    +0.000 A 
ATOM     18  C   UNL     1       6.764   6.353  17.785  0.00  0.00    +0.000 A 
ATOM     19  C   UNL     1       7.096   5.364  18.679  0.00  0.00    +0.000 A 
ATOM     20  O   UNL     1       6.285   4.286  18.521  0.00  0.00    +0.000 OA
ENDBRANCH  15  16
ENDBRANCH  13  15
ENDBRANCH  10  13
ENDBRANCH   7  10
BRANCH   1  21
ATOM     21  C   UNL     1       1.043  10.014  19.795  0.00  0.00    +0.000 C 
BRANCH  21  23
ATOM     22  C   UNL     1      -1.050  10.260  18.442  0.00  0.00    +0.000 C 
ATOM     23  C   UNL     1      -0.218  10.844  19.576  0.00  0.00    +0.000 C 
ENDBRANCH  21  23
ENDBRANCH   1  21
TORSDOF 6
ENDMDL
MODEL 8
REMARK VINA RESULT:      -6.5      2.820      6.438
REMARK  Name = 
REMARK  8 active torsions:
REMARK  status: ('A' for Active; 'I' for Inactive)
REMARK    1  A    between atoms: C_1  and  C_2
REMARK    2  A    between atoms: C_2  and  C_3
REMARK    3  A    between atoms: C_3  and  C_4
REMARK    4  A    between atoms: C_10  and  S_11
REMARK    5  A    between atoms: S_11  and  N_14
REMARK    6  A    between atoms: N_14  and  C_15
REMARK    7  A    between atoms: N_14  and  C_16
REMARK    8  A    between atoms: C_16  and  C_17
REMARK                            x       y       z     vdW  Elec       q    Type
REMARK                         _______ _______ _______ _____ _____    ______ ____
ROOT
ATOM      1  C   UNL     1       1.293   2.338  18.862  0.00  0.00    +0.000 C 
ATOM      2  O   UNL     1       0.182   1.984  18.451  0.00  0.00    +0.000 OA
ATOM      3  N   UNL     1       2.227   2.763  17.951  0.00  0.00    +0.000 N 
ATOM      4  C   UNL     1       3.519   3.100  18.248  0.00  0.00    +0.000 A 
ATOM      5  N   UNL     1       4.188   2.898  19.357  0.00  0.00    +0.000 NA
ATOM      6  N   UNL     1       5.452   3.438  19.306  0.00  0.00    +0.000 NA
ATOM      7  C   UNL     1       5.662   4.058  18.161  0.00  0.00    +0.000 A 
ATOM      8  S   UNL     1       4.390   3.913  17.023  0.00  0.00    +0.000 S 
ATOM      9  H   UNL     1       1.907   2.847  16.997  0.00  0.00    +0.000 HD
ENDROOT
BRANCH   7  10
ATOM     10  S   UNL     1       7.081   5.062  17.820  0.00  0.00    +0.000 S 
ATOM     11  O   UNL     1       7.264   5.944  18.956  0.00  0.00    +0.000 OA
ATOM     12  O   UNL     1       8.110   4.110  17.453  0.00  0.00    +0.000 OA
BRANCH  10  13
ATOM     13  N   UNL     1       6.737   6.039  16.447  0.00  0.00    +0.000 NA
ATOM     14  C   UNL     1       6.469   7.457  16.789  0.00  0.00    +0.000 C 
BRANCH  13  15
ATOM     15  C   UNL     1       7.745   5.867  15.361  0.00  0.00    +0.000 C 
BRANCH  15  16
ATOM     16  C   UNL     1       7.205   5.018  14.259  0.00  0.00    +0.000 A 
ATOM     17  C   UNL     1       6.257   4.016  14.201  0.00  0.00    +0.000 A 
ATOM     18  C   UNL     1       6.182   3.612  12.845  0.00  0.00    +0.000 A 
ATOM     19  C   UNL     1       7.093   4.386  12.165  0.00  0.00    +0.000 A 
ATOM     20  O   UNL     1       7.715   5.245  13.012  0.00  0.00    +0.000 OA
ENDBRANCH  15  16
ENDBRANCH  13  15
ENDBRANCH  10  13
ENDBRANCH   7  10
BRANCH   1  21
ATOM     21  C   UNL     1       1.638   2.372  20.344  0.00  0.00    +0.000 C 
BRANCH  21  23
ATOM     22  C   UNL     1       2.018   4.743  21.057  0.00  0.00    +0.000 C 
ATOM     23  C   UNL     1       1.054   3.565  21.095  0.00  0.00    +0.000 C 
ENDBRANCH  21  23
ENDBRANCH   1  21
TORSDOF 6
ENDMDL
MODEL 9
REMARK VINA RESULT:      -6.5      2.586      3.590
REMARK  Name = 
REMARK  8 active torsions:
REMARK  status: ('A' for Active; 'I' for Inactive)
REMARK    1  A    between atoms: C_1  and  C_2
REMARK    2  A    between atoms: C_2  and  C_3
REMARK    3  A    between atoms: C_3  and  C_4
REMARK    4  A    between atoms: C_10  and  S_11
REMARK    5  A    between atoms: S_11  and  N_14
REMARK    6  A    between atoms: N_14  and  C_15
REMARK    7  A    between atoms: N_14  and  C_16
REMARK    8  A    between atoms: C_16  and  C_17
REMARK                            x       y       z     vdW  Elec       q    Type
REMARK                         _______ _______ _______ _____ _____    ______ ____
ROOT
ATOM      1  C   UNL     1       7.226   5.093  14.203  0.00  0.00    +0.000 C 
ATOM      2  O   UNL     1       8.256   5.516  13.667  0.00  0.00    +0.000 OA
ATOM      3  N   UNL     1       6.668   5.822  15.222  0.00  0.00    +0.000 N 
ATOM      4  C   UNL     1       5.585   5.438  15.963  0.00  0.00    +0.000 A 
ATOM      5  N   UNL     1       5.002   4.264  16.021  0.00  0.00    +0.000 NA
ATOM      6  N   UNL     1       3.892   4.276  16.834  0.00  0.00    +0.000 NA
ATOM      7  C   UNL     1       3.671   5.480  17.326  0.00  0.00    +0.000 A 
ATOM      8  S   UNL     1       4.868   6.643  16.939  0.00  0.00    +0.000 S 
ATOM      9  H   UNL     1       7.092   6.721  15.406  0.00  0.00    +0.000 HD
ENDROOT
BRANCH   7  10
ATOM     10  S   UNL     1       2.216   5.933  18.227  0.00  0.00    +0.000 S 
ATOM     11  O   UNL     1       2.125   7.380  18.193  0.00  0.00    +0.000 OA
ATOM     12  O   UNL     1       1.170   5.116  17.646  0.00  0.00    +0.000 OA
BRANCH  10  13
ATOM     13  N   UNL     1       2.422   5.459  19.867  0.00  0.00    +0.000 NA
ATOM     14  C   UNL     1       2.080   6.529  20.835  0.00  0.00    +0.000 C 
BRANCH  13  15
ATOM     15  C   UNL     1       1.769   4.152  20.166  0.00  0.00    +0.000 C 
BRANCH  15  16
ATOM     16  C   UNL     1       2.621   3.011  19.717  0.00  0.00    +0.000 A 
ATOM     17  C   UNL     1       2.400   1.914  18.909  0.00  0.00    +0.000 A 
ATOM     18  C   UNL     1       3.624   1.203  18.855  0.00  0.00    +0.000 A 
ATOM     19  C   UNL     1       4.509   1.905  19.638  0.00  0.00    +0.000 A 
ATOM     20  O   UNL     1       3.912   3.006  20.162  0.00  0.00    +0.000 OA
ENDBRANCH  15  16
ENDBRANCH  13  15
ENDBRANCH  10  13
ENDBRANCH   7  10
BRANCH   1  21
ATOM     21  C   UNL     1       6.528   3.825  13.734  0.00  0.00    +0.000 C 
BRANCH  21  23
ATOM     22  C   UNL     1       5.167   3.060  11.775  0.00  0.00    +0.000 C 
ATOM     23  C   UNL     1       6.500   3.649  12.219  0.00  0.00    +0.000 C 
ENDBRANCH  21  23
ENDBRANCH   1  21
TORSDOF 6
ENDMDL
