MODEL 1
REMARK VINA RESULT:      -6.2      0.000      0.000
REMARK  Name = 
REMARK  4 active torsions:
REMARK  status: ('A' for Active; 'I' for Inactive)
REMARK    1  A    between atoms: N_1  and  C_2
REMARK    2  A    between atoms: C_2  and  C_3
REMARK    3  A    between atoms: C_3  and  O_4
REMARK    4  A    between atoms: O_4  and  C_5
REMARK                            x       y       z     vdW  Elec       q    Type
REMARK                         _______ _______ _______ _____ _____    ______ ____
ROOT
ATOM      1  C   UNL     1       4.989   4.875  18.286  0.00  0.00    +0.000 A 
ATOM      2  C   UNL     1       4.831   6.247  18.046  0.00  0.00    +0.000 A 
ATOM      3  C   UNL     1       3.565   6.799  17.884  0.00  0.00    +0.000 A 
ATOM      4  C   UNL     1       2.437   5.989  17.959  0.00  0.00    +0.000 A 
ATOM      5  C   UNL     1       2.559   4.614  18.195  0.00  0.00    +0.000 A 
ATOM      6  C   UNL     1       1.410   3.809  18.261  0.00  0.00    +0.000 A 
ATOM      7  C   UNL     1       1.509   2.438  18.491  0.00  0.00    +0.000 A 
ATOM      8  C   UNL     1       2.761   1.856  18.661  0.00  0.00    +0.000 A 
ATOM      9  C   UNL     1       3.913   2.646  18.598  0.00  0.00    +0.000 A 
ATOM     10  C   UNL     1       3.844   4.037  18.363  0.00  0.00    +0.000 A 
ENDROOT
BRANCH   1  11
ATOM     11  O   UNL     1       6.217   4.269  18.458  0.00  0.00    +0.000 OA
BRANCH  11  12
ATOM     12  C   UNL     1       7.287   4.752  17.640  0.00  0.00    +0.000 C 
BRANCH  12  13
ATOM     13  C   UNL     1       7.047   4.354  16.181  0.00  0.00    +0.000 C 
BRANCH  13  14
ATOM     14  N   UNL     1       7.422   5.431  15.263  0.00  0.00    +0.000 NA
ATOM     15  H   UNL     1       7.274   6.330  15.720  0.00  0.00    +0.000 HD
ATOM     16  H   UNL     1       6.805   5.421  14.451  0.00  0.00    +0.000 HD
ENDBRANCH  13  14
ENDBRANCH  12  13
ENDBRANCH  11  12
ENDBRANCH   1  11
TORSDOF 4
ENDMDL
MODEL 2
REMARK VINA RESULT:      -6.2      1.410      1.508
REMARK  Name = 
REMARK  4 active torsions:
REMARK  status: ('A' for Active; 'I' for Inactive)
REMARK    1  A    between atoms: N_1  and  C_2
REMARK    2  A    between atoms: C_2  and  C_3
REMARK    3  A    between atoms: C_3  and  O_4
REMARK    4  A    between atoms: O_4  and  C_5
REMARK                            x       y       z     vdW  Elec       q    Type
REMARK                         _______ _______ _______ _____ _____    ______ ____
ROOT
ATOM      1  C   UNL     1       4.497   5.664  16.954  0.00  0.00    +0.000 A 
ATOM      2  C   UNL     1       4.227   7.013  17.223  0.00  0.00    +0.000 A 
ATOM      3  C   UNL     1       3.102   7.381  17.954  0.00  0.00    +0.000 A 
ATOM      4  C   UNL     1       2.229   6.407  18.426  0.00  0.00    +0.000 A 
ATOM      5  C   UNL     1       2.468   5.050  18.172  0.00  0.00    +0.000 A 
ATOM      6  C   UNL     1       1.572   4.079  18.650  0.00  0.00    +0.000 A 
ATOM      7  C   UNL     1       1.788   2.724  18.406  0.00  0.00    +0.000 A 
ATOM      8  C   UNL     1       2.906   2.324  17.682  0.00  0.00    +0.000 A 
ATOM      9  C   UNL     1       3.807   3.280  17.201  0.00  0.00    +0.000 A 
ATOM     10  C   UNL     1       3.611   4.660  17.429  0.00  0.00    +0.000 A 
ENDROOT
BRANCH   1  11
ATOM     11  O   UNL     1       5.598   5.237  16.238  0.00  0.00    +0.000 OA
BRANCH  11  12
ATOM     12  C   UNL     1       6.861   5.789  16.621  0.00  0.00    +0.000 C 
BRANCH  12  13
ATOM     13  C   UNL     1       7.314   5.176  17.949  0.00  0.00    +0.000 C 
BRANCH  13  14
ATOM     14  N   UNL     1       8.214   4.041  17.737  0.00  0.00    +0.000 NA
ATOM     15  H   UNL     1       9.082   4.199  18.248  0.00  0.00    +0.000 HD
ATOM     16  H   UNL     1       8.472   3.987  16.751  0.00  0.00    +0.000 HD
ENDBRANCH  13  14
ENDBRANCH  12  13
ENDBRANCH  11  12
ENDBRANCH   1  11
TORSDOF 4
ENDMDL
MODEL 3
REMARK VINA RESULT:      -6.0      2.223      4.187
REMARK  Name = 
REMARK  4 active torsions:
REMARK  status: ('A' for Active; 'I' for Inactive)
REMARK    1  A    between atoms: N_1  and  C_2
REMARK    2  A    between atoms: C_2  and  C_3
REMARK    3  A    between atoms: C_3  and  O_4
REMARK    4  A    between atoms: O_4  and  C_5
REMARK                            x       y       z     vdW  Elec       q    Type
REMARK                         _______ _______ _______ _____ _____    ______ ____
ROOT
ATOM      1  C   UNL     1       2.985   4.296  17.480  0.00  0.00    +0.000 A 
ATOM      2  C   UNL     1       2.116   5.219  18.080  0.00  0.00    +0.000 A 
ATOM      3  C   UNL     1       2.487   6.552  18.227  0.00  0.00    +0.000 A 
ATOM      4  C   UNL     1       3.731   6.982  17.779  0.00  0.00    +0.000 A 
ATOM      5  C   UNL     1       4.624   6.085  17.177  0.00  0.00    +0.000 A 
ATOM      6  C   UNL     1       5.879   6.535  16.736  0.00  0.00    +0.000 A 
ATOM      7  C   UNL     1       6.784   5.659  16.139  0.00  0.00    +0.000 A 
ATOM      8  C   UNL     1       6.441   4.322  15.973  0.00  0.00    +0.000 A 
ATOM      9  C   UNL     1       5.194   3.861  16.407  0.00  0.00    +0.000 A 
ATOM     10  C   UNL     1       4.259   4.724  17.019  0.00  0.00    +0.000 A 
ENDROOT
BRANCH   1  11
ATOM     11  O   UNL     1       2.673   2.963  17.302  0.00  0.00    +0.000 OA
BRANCH  11  12
ATOM     12  C   UNL     1       2.549   2.173  18.489  0.00  0.00    +0.000 C 
BRANCH  12  13
ATOM     13  C   UNL     1       3.802   1.311  18.672  0.00  0.00    +0.000 C 
BRANCH  13  14
ATOM     14  N   UNL     1       4.741   1.925  19.613  0.00  0.00    +0.000 NA
ATOM     15  H   UNL     1       4.363   1.859  20.558  0.00  0.00    +0.000 HD
ATOM     16  H   UNL     1       4.828   2.921  19.412  0.00  0.00    +0.000 HD
ENDBRANCH  13  14
ENDBRANCH  12  13
ENDBRANCH  11  12
ENDBRANCH   1  11
TORSDOF 4
ENDMDL
MODEL 4
REMARK VINA RESULT:      -6.0      1.657      1.739
REMARK  Name = 
REMARK  4 active torsions:
REMARK  status: ('A' for Active; 'I' for Inactive)
REMARK    1  A    between atoms: N_1  and  C_2
REMARK    2  A    between atoms: C_2  and  C_3
REMARK    3  A    between atoms: C_3  and  O_4
REMARK    4  A    between atoms: O_4  and  C_5
REMARK                            x       y       z     vdW  Elec       q    Type
REMARK                         _______ _______ _______ _____ _____    ______ ____
ROOT
ATOM      1  C   UNL     1       4.388   5.034  18.074  0.00  0.00    +0.000 A 
ATOM      2  C   UNL     1       4.223   6.319  17.540  0.00  0.00    +0.000 A 
ATOM      3  C   UNL     1       3.234   7.168  18.027  0.00  0.00    +0.000 A 
ATOM      4  C   UNL     1       2.395   6.746  19.052  0.00  0.00    +0.000 A 
ATOM      5  C   UNL     1       2.532   5.466  19.605  0.00  0.00    +0.000 A 
ATOM      6  C   UNL     1       1.672   5.051  20.635  0.00  0.00    +0.000 A 
ATOM      7  C   UNL     1       1.788   3.782  21.197  0.00  0.00    +0.000 A 
ATOM      8  C   UNL     1       2.769   2.911  20.736  0.00  0.00    +0.000 A 
ATOM      9  C   UNL     1       3.632   3.310  19.711  0.00  0.00    +0.000 A 
ATOM     10  C   UNL     1       3.536   4.590  19.120  0.00  0.00    +0.000 A 
ENDROOT
BRANCH   1  11
ATOM     11  O   UNL     1       5.352   4.147  17.636  0.00  0.00    +0.000 OA
BRANCH  11  12
ATOM     12  C   UNL     1       5.587   4.104  16.225  0.00  0.00    +0.000 C 
BRANCH  12  13
ATOM     13  C   UNL     1       7.050   4.449  15.931  0.00  0.00    +0.000 C 
BRANCH  13  14
ATOM     14  N   UNL     1       7.898   4.224  17.103  0.00  0.00    +0.000 NA
ATOM     15  H   UNL     1       8.213   3.255  17.111  0.00  0.00    +0.000 HD
ATOM     16  H   UNL     1       7.350   4.351  17.954  0.00  0.00    +0.000 HD
ENDBRANCH  13  14
ENDBRANCH  12  13
ENDBRANCH  11  12
ENDBRANCH   1  11
TORSDOF 4
ENDMDL
MODEL 5
REMARK VINA RESULT:      -6.0      1.338      1.536
REMARK  Name = 
REMARK  4 active torsions:
REMARK  status: ('A' for Active; 'I' for Inactive)
REMARK    1  A    between atoms: N_1  and  C_2
REMARK    2  A    between atoms: C_2  and  C_3
REMARK    3  A    between atoms: C_3  and  O_4
REMARK    4  A    between atoms: O_4  and  C_5
REMARK                            x       y       z     vdW  Elec       q    Type
REMARK                         _______ _______ _______ _____ _____    ______ ____
ROOT
ATOM      1  C   UNL     1       3.818   4.678  17.431  0.00  0.00    +0.000 A 
ATOM      2  C   UNL     1       3.983   6.070  17.430  0.00  0.00    +0.000 A 
ATOM      3  C   UNL     1       3.260   6.872  18.307  0.00  0.00    +0.000 A 
ATOM      4  C   UNL     1       2.361   6.295  19.198  0.00  0.00    +0.000 A 
ATOM      5  C   UNL     1       2.171   4.907  19.223  0.00  0.00    +0.000 A 
ATOM      6  C   UNL     1       1.254   4.341  20.124  0.00  0.00    +0.000 A 
ATOM      7  C   UNL     1       1.046   2.964  20.163  0.00  0.00    +0.000 A 
ATOM      8  C   UNL     1       1.757   2.135  19.301  0.00  0.00    +0.000 A 
ATOM      9  C   UNL     1       2.673   2.685  18.399  0.00  0.00    +0.000 A 
ATOM     10  C   UNL     1       2.902   4.077  18.335  0.00  0.00    +0.000 A 
ENDROOT
BRANCH   1  11
ATOM     11  O   UNL     1       4.508   3.830  16.587  0.00  0.00    +0.000 OA
BRANCH  11  12
ATOM     12  C   UNL     1       5.287   4.449  15.558  0.00  0.00    +0.000 C 
BRANCH  12  13
ATOM     13  C   UNL     1       6.773   4.382  15.920  0.00  0.00    +0.000 C 
BRANCH  13  14
ATOM     14  N   UNL     1       7.416   5.691  15.788  0.00  0.00    +0.000 NA
ATOM     15  H   UNL     1       6.700   6.411  15.706  0.00  0.00    +0.000 HD
ATOM     16  H   UNL     1       7.953   5.725  14.922  0.00  0.00    +0.000 HD
ENDBRANCH  13  14
ENDBRANCH  12  13
ENDBRANCH  11  12
ENDBRANCH   1  11
TORSDOF 4
ENDMDL
MODEL 6
REMARK VINA RESULT:      -6.0      1.890      2.035
REMARK  Name = 
REMARK  4 active torsions:
REMARK  status: ('A' for Active; 'I' for Inactive)
REMARK    1  A    between atoms: N_1  and  C_2
REMARK    2  A    between atoms: C_2  and  C_3
REMARK    3  A    between atoms: C_3  and  O_4
REMARK    4  A    between atoms: O_4  and  C_5
REMARK                            x       y       z     vdW  Elec       q    Type
REMARK                         _______ _______ _______ _____ _____    ______ ____
ROOT
ATOM      1  C   UNL     1       5.100   4.960  18.465  0.00  0.00    +0.000 A 
ATOM      2  C   UNL     1       4.948   6.126  17.702  0.00  0.00    +0.000 A 
ATOM      3  C   UNL     1       3.720   6.778  17.639  0.00  0.00    +0.000 A 
ATOM      4  C   UNL     1       2.627   6.273  18.334  0.00  0.00    +0.000 A 
ATOM      5  C   UNL     1       2.745   5.108  19.103  0.00  0.00    +0.000 A 
ATOM      6  C   UNL     1       1.629   4.607  19.793  0.00  0.00    +0.000 A 
ATOM      7  C   UNL     1       1.723   3.448  20.561  0.00  0.00    +0.000 A 
ATOM      8  C   UNL     1       2.937   2.775  20.648  0.00  0.00    +0.000 A 
ATOM      9  C   UNL     1       4.056   3.263  19.966  0.00  0.00    +0.000 A 
ATOM     10  C   UNL     1       3.990   4.433  19.178  0.00  0.00    +0.000 A 
ENDROOT
BRANCH   1  11
ATOM     11  O   UNL     1       6.292   4.271  18.570  0.00  0.00    +0.000 OA
BRANCH  11  12
ATOM     12  C   UNL     1       7.464   4.947  18.102  0.00  0.00    +0.000 C 
BRANCH  12  13
ATOM     13  C   UNL     1       7.934   5.957  19.153  0.00  0.00    +0.000 C 
BRANCH  13  14
ATOM     14  N   UNL     1       8.120   5.322  20.460  0.00  0.00    +0.000 NA
ATOM     15  H   UNL     1       8.733   4.515  20.358  0.00  0.00    +0.000 HD
ATOM     16  H   UNL     1       7.228   4.960  20.796  0.00  0.00    +0.000 HD
ENDBRANCH  13  14
ENDBRANCH  12  13
ENDBRANCH  11  12
ENDBRANCH   1  11
TORSDOF 4
ENDMDL
MODEL 7
REMARK VINA RESULT:      -5.9      2.868      4.554
REMARK  Name = 
REMARK  4 active torsions:
REMARK  status: ('A' for Active; 'I' for Inactive)
REMARK    1  A    between atoms: N_1  and  C_2
REMARK    2  A    between atoms: C_2  and  C_3
REMARK    3  A    between atoms: C_3  and  O_4
REMARK    4  A    between atoms: O_4  and  C_5
REMARK                            x       y       z     vdW  Elec       q    Type
REMARK                         _______ _______ _______ _____ _____    ______ ____
ROOT
ATOM      1  C   UNL     1       3.131   4.912  18.905  0.00  0.00    +0.000 A 
ATOM      2  C   UNL     1       2.449   6.048  19.365  0.00  0.00    +0.000 A 
ATOM      3  C   UNL     1       2.616   7.279  18.738  0.00  0.00    +0.000 A 
ATOM      4  C   UNL     1       3.466   7.394  17.643  0.00  0.00    +0.000 A 
ATOM      5  C   UNL     1       4.163   6.279  17.160  0.00  0.00    +0.000 A 
ATOM      6  C   UNL     1       5.023   6.414  16.058  0.00  0.00    +0.000 A 
ATOM      7  C   UNL     1       5.729   5.319  15.563  0.00  0.00    +0.000 A 
ATOM      8  C   UNL     1       5.582   4.074  16.165  0.00  0.00    +0.000 A 
ATOM      9  C   UNL     1       4.728   3.925  17.263  0.00  0.00    +0.000 A 
ATOM     10  C   UNL     1       4.003   5.018  17.788  0.00  0.00    +0.000 A 
ENDROOT
BRANCH   1  11
ATOM     11  O   UNL     1       3.004   3.664  19.482  0.00  0.00    +0.000 OA
BRANCH  11  12
ATOM     12  C   UNL     1       1.672   3.170  19.649  0.00  0.00    +0.000 C 
BRANCH  12  13
ATOM     13  C   UNL     1       1.367   2.996  21.140  0.00  0.00    +0.000 C 
BRANCH  13  14
ATOM     14  N   UNL     1       2.571   2.647  21.896  0.00  0.00    +0.000 NA
ATOM     15  H   UNL     1       2.311   2.084  22.705  0.00  0.00    +0.000 HD
ATOM     16  H   UNL     1       3.001   3.494  22.268  0.00  0.00    +0.000 HD
ENDBRANCH  13  14
ENDBRANCH  12  13
ENDBRANCH  11  12
ENDBRANCH   1  11
TORSDOF 4
ENDMDL
MODEL 8
REMARK VINA RESULT:      -5.9      1.614      3.130
REMARK  Name = 
REMARK  4 active torsions:
REMARK  status: ('A' for Active; 'I' for Inactive)
REMARK    1  A    between atoms: N_1  and  C_2
REMARK    2  A    between atoms: C_2  and  C_3
REMARK    3  A    between atoms: C_3  and  O_4
REMARK    4  A    between atoms: O_4  and  C_5
REMARK                            x       y       z     vdW  Elec       q    Type
REMARK                         _______ _______ _______ _____ _____    ______ ____
ROOT
ATOM      1  C   UNL     1       3.851   3.946  17.669  0.00  0.00    +0.000 A 
ATOM      2  C   UNL     1       3.730   2.551  17.610  0.00  0.00    +0.000 A 
ATOM      3  C   UNL     1       2.885   1.874  18.483  0.00  0.00    +0.000 A 
ATOM      4  C   UNL     1       2.148   2.579  19.428  0.00  0.00    +0.000 A 
ATOM      5  C   UNL     1       2.248   3.974  19.515  0.00  0.00    +0.000 A 
ATOM      6  C   UNL     1       1.503   4.671  20.480  0.00  0.00    +0.000 A 
ATOM      7  C   UNL     1       1.590   6.058  20.588  0.00  0.00    +0.000 A 
ATOM      8  C   UNL     1       2.423   6.765  19.727  0.00  0.00    +0.000 A 
ATOM      9  C   UNL     1       3.171   6.084  18.761  0.00  0.00    +0.000 A 
ATOM     10  C   UNL     1       3.105   4.678  18.632  0.00  0.00    +0.000 A 
ENDROOT
BRANCH   1  11
ATOM     11  O   UNL     1       4.670   4.675  16.830  0.00  0.00    +0.000 OA
BRANCH  11  12
ATOM     12  C   UNL     1       5.611   3.929  16.051  0.00  0.00    +0.000 C 
BRANCH  12  13
ATOM     13  C   UNL     1       6.955   4.663  16.018  0.00  0.00    +0.000 C 
BRANCH  13  14
ATOM     14  N   UNL     1       7.835   4.217  17.100  0.00  0.00    +0.000 NA
ATOM     15  H   UNL     1       7.843   3.198  17.129  0.00  0.00    +0.000 HD
ATOM     16  H   UNL     1       7.459   4.524  17.997  0.00  0.00    +0.000 HD
ENDBRANCH  13  14
ENDBRANCH  12  13
ENDBRANCH  11  12
ENDBRANCH   1  11
TORSDOF 4
ENDMDL
MODEL 9
REMARK VINA RESULT:      -5.9      1.450      1.450
REMARK  Name = 
REMARK  4 active torsions:
REMARK  status: ('A' for Active; 'I' for Inactive)
REMARK    1  A    between atoms: N_1  and  C_2
REMARK    2  A    between atoms: C_2  and  C_3
REMARK    3  A    between atoms: C_3  and  O_4
REMARK    4  A    between atoms: O_4  and  C_5
REMARK                            x       y       z     vdW  Elec       q    Type
REMARK                         _______ _______ _______ _____ _____    ______ ____
ROOT
ATOM      1  C   UNL     1       4.631   4.891  18.717  0.00  0.00    +0.000 A 
ATOM      2  C   UNL     1       4.419   6.104  18.047  0.00  0.00    +0.000 A 
ATOM      3  C   UNL     1       3.212   6.784  18.175  0.00  0.00    +0.000 A 
ATOM      4  C   UNL     1       2.199   6.262  18.972  0.00  0.00    +0.000 A 
ATOM      5  C   UNL     1       2.378   5.051  19.652  0.00  0.00    +0.000 A 
ATOM      6  C   UNL     1       1.342   4.534  20.448  0.00  0.00    +0.000 A 
ATOM      7  C   UNL     1       1.497   3.329  21.131  0.00  0.00    +0.000 A 
ATOM      8  C   UNL     1       2.693   2.627  21.028  0.00  0.00    +0.000 A 
ATOM      9  C   UNL     1       3.733   3.130  20.240  0.00  0.00    +0.000 A 
ATOM     10  C   UNL     1       3.603   4.347  19.533  0.00  0.00    +0.000 A 
ENDROOT
BRANCH   1  11
ATOM     11  O   UNL     1       5.807   4.172  18.634  0.00  0.00    +0.000 OA
BRANCH  11  12
ATOM     12  C   UNL     1       6.959   4.884  18.173  0.00  0.00    +0.000 C 
BRANCH  12  13
ATOM     13  C   UNL     1       7.246   4.518  16.713  0.00  0.00    +0.000 C 
BRANCH  13  14
ATOM     14  N   UNL     1       7.396   5.714  15.882  0.00  0.00    +0.000 NA
ATOM     15  H   UNL     1       8.046   5.517  15.122  0.00  0.00    +0.000 HD
ATOM     16  H   UNL     1       7.820   6.463  16.429  0.00  0.00    +0.000 HD
ENDBRANCH  13  14
ENDBRANCH  12  13
ENDBRANCH  11  12
ENDBRANCH   1  11
TORSDOF 4
ENDMDL
