MODEL 1
REMARK VINA RESULT:      -8.6      0.000      0.000
REMARK  Name = 
REMARK  3 active torsions:
REMARK  status: ('A' for Active; 'I' for Inactive)
REMARK    1  A    between atoms: C_7  and  C_8
REMARK    2  A    between atoms: C_17  and  C_18
REMARK    3  A    between atoms: C_22  and  O_23
REMARK                            x       y       z     vdW  Elec       q    Type
REMARK                         _______ _______ _______ _____ _____    ______ ____
ROOT
ATOM      1  O   UNL     1       0.747   8.813  20.858  0.00  0.00    +0.000 OA
ATOM      2  C   UNL     1       1.477   8.087  20.216  0.00  0.00    +0.000 C 
ATOM      3  N   UNL     1       2.064   6.912  20.657  0.00  0.00    +0.000 N 
ATOM      4  C   UNL     1       2.862   6.342  19.674  0.00  0.00    +0.000 A 
ATOM      5  C   UNL     1       3.613   5.200  19.804  0.00  0.00    +0.000 A 
ATOM      6  C   UNL     1       4.391   4.821  18.709  0.00  0.00    +0.000 A 
ATOM      7  C   UNL     1       4.408   5.557  17.491  0.00  0.00    +0.000 A 
ATOM      8  C   UNL     1       3.598   6.716  17.404  0.00  0.00    +0.000 A 
ATOM      9  C   UNL     1       2.839   7.104  18.504  0.00  0.00    +0.000 A 
ATOM     10  C   UNL     1       1.955   8.247  18.793  0.00  0.00    +0.000 C 
ATOM     11  C   UNL     1       1.643   9.263  17.974  0.00  0.00    +0.000 C 
ATOM     12  H   UNL     1       1.928   6.555  21.592  0.00  0.00    +0.000 HD
ENDROOT
BRANCH  11  13
ATOM     13  C   UNL     1       0.802  10.406  18.355  0.00  0.00    +0.000 A 
ATOM     14  C   UNL     1      -0.586  10.331  18.195  0.00  0.00    +0.000 A 
ATOM     15  C   UNL     1      -1.391  11.412  18.561  0.00  0.00    +0.000 A 
ATOM     16 CL   UNL     1      -3.103  11.291  18.362  0.00  0.00    +0.000 Cl
ATOM     17  C   UNL     1      -0.824  12.575  19.091  0.00  0.00    +0.000 A 
ATOM     18  C   UNL     1       0.564  12.657  19.230  0.00  0.00    +0.000 A 
ATOM     19 CL   UNL     1       1.317  14.075  19.868  0.00  0.00    +0.000 Cl
ATOM     20  C   UNL     1       1.375  11.578  18.863  0.00  0.00    +0.000 A 
BRANCH  17  21
ATOM     21  O   UNL     1      -1.617  13.624  19.484  0.00  0.00    +0.000 OA
ATOM     22  H   UNL     1      -2.460  13.258  19.802  0.00  0.00    +0.000 HD
ENDBRANCH  17  21
ENDBRANCH  11  13
BRANCH   7  23
ATOM     23  C   UNL     1       5.303   5.124  16.384  0.00  0.00    +0.000 A 
ATOM     24  C   UNL     1       6.674   5.451  16.379  0.00  0.00    +0.000 A 
ATOM     25  C   UNL     1       7.503   5.143  15.296  0.00  0.00    +0.000 A 
ATOM     26  C   UNL     1       6.985   4.472  14.195  0.00  0.00    +0.000 A 
ATOM     27  C   UNL     1       5.643   4.104  14.183  0.00  0.00    +0.000 A 
ATOM     28  C   UNL     1       4.812   4.429  15.264  0.00  0.00    +0.000 A 
ENDBRANCH   7  23
TORSDOF 3
ENDMDL
MODEL 2
REMARK VINA RESULT:      -8.6      0.149      1.787
REMARK  Name = 
REMARK  3 active torsions:
REMARK  status: ('A' for Active; 'I' for Inactive)
REMARK    1  A    between atoms: C_7  and  C_8
REMARK    2  A    between atoms: C_17  and  C_18
REMARK    3  A    between atoms: C_22  and  O_23
REMARK                            x       y       z     vdW  Elec       q    Type
REMARK                         _______ _______ _______ _____ _____    ______ ____
ROOT
ATOM      1  O   UNL     1       0.617   8.833  20.942  0.00  0.00    +0.000 OA
ATOM      2  C   UNL     1       1.356   8.107  20.309  0.00  0.00    +0.000 C 
ATOM      3  N   UNL     1       1.941   6.935  20.759  0.00  0.00    +0.000 N 
ATOM      4  C   UNL     1       2.752   6.365  19.786  0.00  0.00    +0.000 A 
ATOM      5  C   UNL     1       3.505   5.226  19.927  0.00  0.00    +0.000 A 
ATOM      6  C   UNL     1       4.295   4.847  18.840  0.00  0.00    +0.000 A 
ATOM      7  C   UNL     1       4.323   5.579  17.622  0.00  0.00    +0.000 A 
ATOM      8  C   UNL     1       3.509   6.736  17.522  0.00  0.00    +0.000 A 
ATOM      9  C   UNL     1       2.738   7.124  18.614  0.00  0.00    +0.000 A 
ATOM     10  C   UNL     1       1.848   8.265  18.891  0.00  0.00    +0.000 C 
ATOM     11  C   UNL     1       1.541   9.278  18.066  0.00  0.00    +0.000 C 
ATOM     12  H   UNL     1       1.797   6.581  21.694  0.00  0.00    +0.000 HD
ENDROOT
BRANCH  11  13
ATOM     13  C   UNL     1       0.693  10.419  18.435  0.00  0.00    +0.000 A 
ATOM     14  C   UNL     1       1.275  11.574  18.969  0.00  0.00    +0.000 A 
ATOM     15  C   UNL     1       0.474  12.665  19.315  0.00  0.00    +0.000 A 
ATOM     16 CL   UNL     1       1.219  14.082  19.964  0.00  0.00    +0.000 Cl
ATOM     17  C   UNL     1      -0.911  12.618  19.131  0.00  0.00    +0.000 A 
ATOM     18  C   UNL     1      -1.494  11.458  18.618  0.00  0.00    +0.000 A 
ATOM     19 CL   UNL     1      -3.202  11.342  18.382  0.00  0.00    +0.000 Cl
ATOM     20  C   UNL     1      -0.697  10.361  18.271  0.00  0.00    +0.000 A 
BRANCH  17  21
ATOM     21  O   UNL     1      -1.694  13.702  19.438  0.00  0.00    +0.000 OA
ATOM     22  H   UNL     1      -2.340  13.817  18.719  0.00  0.00    +0.000 HD
ENDBRANCH  17  21
ENDBRANCH  11  13
BRANCH   7  23
ATOM     23  C   UNL     1       5.229   5.146  16.524  0.00  0.00    +0.000 A 
ATOM     24  C   UNL     1       6.592   5.508  16.515  0.00  0.00    +0.000 A 
ATOM     25  C   UNL     1       7.431   5.199  15.439  0.00  0.00    +0.000 A 
ATOM     26  C   UNL     1       6.932   4.492  14.351  0.00  0.00    +0.000 A 
ATOM     27  C   UNL     1       5.600   4.090  14.346  0.00  0.00    +0.000 A 
ATOM     28  C   UNL     1       4.759   4.416  15.419  0.00  0.00    +0.000 A 
ENDBRANCH   7  23
TORSDOF 3
ENDMDL
MODEL 3
REMARK VINA RESULT:      -8.5      0.823      1.018
REMARK  Name = 
REMARK  3 active torsions:
REMARK  status: ('A' for Active; 'I' for Inactive)
REMARK    1  A    between atoms: C_7  and  C_8
REMARK    2  A    between atoms: C_17  and  C_18
REMARK    3  A    between atoms: C_22  and  O_23
REMARK                            x       y       z     vdW  Elec       q    Type
REMARK                         _______ _______ _______ _____ _____    ______ ____
ROOT
ATOM      1  O   UNL     1       0.433   9.335  21.156  0.00  0.00    +0.000 OA
ATOM      2  C   UNL     1       1.108   8.553  20.518  0.00  0.00    +0.000 C 
ATOM      3  N   UNL     1       1.635   7.357  20.978  0.00  0.00    +0.000 N 
ATOM      4  C   UNL     1       2.381   6.719  19.995  0.00  0.00    +0.000 A 
ATOM      5  C   UNL     1       3.068   5.539  20.140  0.00  0.00    +0.000 A 
ATOM      6  C   UNL     1       3.802   5.091  19.040  0.00  0.00    +0.000 A 
ATOM      7  C   UNL     1       3.838   5.796  17.806  0.00  0.00    +0.000 A 
ATOM      8  C   UNL     1       3.094   6.998  17.704  0.00  0.00    +0.000 A 
ATOM      9  C   UNL     1       2.379   7.454  18.807  0.00  0.00    +0.000 A 
ATOM     10  C   UNL     1       1.568   8.652  19.084  0.00  0.00    +0.000 C 
ATOM     11  C   UNL     1       1.298   9.665  18.246  0.00  0.00    +0.000 C 
ATOM     12  H   UNL     1       1.497   7.031  21.923  0.00  0.00    +0.000 HD
ENDROOT
BRANCH  11  13
ATOM     13  C   UNL     1       0.532  10.863  18.613  0.00  0.00    +0.000 A 
ATOM     14  C   UNL     1      -0.866  10.844  18.537  0.00  0.00    +0.000 A 
ATOM     15  C   UNL     1      -1.600  11.978  18.891  0.00  0.00    +0.000 A 
ATOM     16 CL   UNL     1      -3.324  11.927  18.796  0.00  0.00    +0.000 Cl
ATOM     17  C   UNL     1      -0.953  13.139  19.326  0.00  0.00    +0.000 A 
ATOM     18  C   UNL     1       0.442  13.164  19.382  0.00  0.00    +0.000 A 
ATOM     19 CL   UNL     1       1.293  14.576  19.901  0.00  0.00    +0.000 Cl
ATOM     20  C   UNL     1       1.183  12.032  19.026  0.00  0.00    +0.000 A 
BRANCH  17  21
ATOM     21  O   UNL     1      -1.676  14.241  19.707  0.00  0.00    +0.000 OA
ATOM     22  H   UNL     1      -1.475  14.421  20.642  0.00  0.00    +0.000 HD
ENDBRANCH  17  21
ENDBRANCH  11  13
BRANCH   7  23
ATOM     23  C   UNL     1       4.685   5.286  16.693  0.00  0.00    +0.000 A 
ATOM     24  C   UNL     1       4.993   3.915  16.576  0.00  0.00    +0.000 A 
ATOM     25  C   UNL     1       5.873   3.437  15.601  0.00  0.00    +0.000 A 
ATOM     26  C   UNL     1       6.449   4.318  14.694  0.00  0.00    +0.000 A 
ATOM     27  C   UNL     1       6.138   5.673  14.760  0.00  0.00    +0.000 A 
ATOM     28  C   UNL     1       5.269   6.150  15.750  0.00  0.00    +0.000 A 
ENDBRANCH   7  23
TORSDOF 3
ENDMDL
MODEL 4
REMARK VINA RESULT:      -8.3      0.880      2.062
REMARK  Name = 
REMARK  3 active torsions:
REMARK  status: ('A' for Active; 'I' for Inactive)
REMARK    1  A    between atoms: C_7  and  C_8
REMARK    2  A    between atoms: C_17  and  C_18
REMARK    3  A    between atoms: C_22  and  O_23
REMARK                            x       y       z     vdW  Elec       q    Type
REMARK                         _______ _______ _______ _____ _____    ______ ____
ROOT
ATOM      1  O   UNL     1       1.542   8.053  20.539  0.00  0.00    +0.000 OA
ATOM      2  C   UNL     1       2.230   7.393  19.787  0.00  0.00    +0.000 C 
ATOM      3  N   UNL     1       2.911   6.229  20.105  0.00  0.00    +0.000 N 
ATOM      4  C   UNL     1       3.624   5.744  19.017  0.00  0.00    +0.000 A 
ATOM      5  C   UNL     1       4.434   4.635  19.009  0.00  0.00    +0.000 A 
ATOM      6  C   UNL     1       5.106   4.345  17.820  0.00  0.00    +0.000 A 
ATOM      7  C   UNL     1       4.960   5.135  16.647  0.00  0.00    +0.000 A 
ATOM      8  C   UNL     1       4.094   6.256  16.703  0.00  0.00    +0.000 A 
ATOM      9  C   UNL     1       3.441   6.556  17.895  0.00  0.00    +0.000 A 
ATOM     10  C   UNL     1       2.545   7.640  18.332  0.00  0.00    +0.000 C 
ATOM     11  C   UNL     1       2.102   8.675  17.602  0.00  0.00    +0.000 C 
ATOM     12  H   UNL     1       2.892   5.825  21.030  0.00  0.00    +0.000 HD
ENDROOT
BRANCH  11  13
ATOM     13  C   UNL     1       1.257   9.757  18.126  0.00  0.00    +0.000 A 
ATOM     14  C   UNL     1       1.847  10.845  18.781  0.00  0.00    +0.000 A 
ATOM     15  C   UNL     1       1.050  11.879  19.275  0.00  0.00    +0.000 A 
ATOM     16 CL   UNL     1       1.803  13.214  20.071  0.00  0.00    +0.000 Cl
ATOM     17  C   UNL     1      -0.340  11.844  19.119  0.00  0.00    +0.000 A 
ATOM     18  C   UNL     1      -0.929  10.749  18.484  0.00  0.00    +0.000 A 
ATOM     19 CL   UNL     1      -2.642  10.649  18.277  0.00  0.00    +0.000 Cl
ATOM     20  C   UNL     1      -0.136   9.708  17.990  0.00  0.00    +0.000 A 
BRANCH  17  21
ATOM     21  O   UNL     1      -1.120  12.878  19.573  0.00  0.00    +0.000 OA
ATOM     22  H   UNL     1      -1.360  13.429  18.808  0.00  0.00    +0.000 HD
ENDBRANCH  17  21
ENDBRANCH  11  13
BRANCH   7  23
ATOM     23  C   UNL     1       5.748   4.797  15.431  0.00  0.00    +0.000 A 
ATOM     24  C   UNL     1       7.015   5.368  15.197  0.00  0.00    +0.000 A 
ATOM     25  C   UNL     1       7.720   5.143  14.010  0.00  0.00    +0.000 A 
ATOM     26  C   UNL     1       7.185   4.313  13.033  0.00  0.00    +0.000 A 
ATOM     27  C   UNL     1       5.951   3.705  13.248  0.00  0.00    +0.000 A 
ATOM     28  C   UNL     1       5.241   3.947  14.432  0.00  0.00    +0.000 A 
ENDBRANCH   7  23
TORSDOF 3
ENDMDL
MODEL 5
REMARK VINA RESULT:      -8.1      0.867      1.360
REMARK  Name = 
REMARK  3 active torsions:
REMARK  status: ('A' for Active; 'I' for Inactive)
REMARK    1  A    between atoms: C_7  and  C_8
REMARK    2  A    between atoms: C_17  and  C_18
REMARK    3  A    between atoms: C_22  and  O_23
REMARK                            x       y       z     vdW  Elec       q    Type
REMARK                         _______ _______ _______ _____ _____    ______ ____
ROOT
ATOM      1  O   UNL     1       1.527   8.099  20.621  0.00  0.00    +0.000 OA
ATOM      2  C   UNL     1       2.210   7.458  19.848  0.00  0.00    +0.000 C 
ATOM      3  N   UNL     1       2.928   6.310  20.142  0.00  0.00    +0.000 N 
ATOM      4  C   UNL     1       3.621   5.846  19.032  0.00  0.00    +0.000 A 
ATOM      5  C   UNL     1       4.457   4.758  18.998  0.00  0.00    +0.000 A 
ATOM      6  C   UNL     1       5.102   4.488  17.789  0.00  0.00    +0.000 A 
ATOM      7  C   UNL     1       4.904   5.278  16.623  0.00  0.00    +0.000 A 
ATOM      8  C   UNL     1       4.013   6.377  16.708  0.00  0.00    +0.000 A 
ATOM      9  C   UNL     1       3.387   6.657  17.919  0.00  0.00    +0.000 A 
ATOM     10  C   UNL     1       2.478   7.718  18.385  0.00  0.00    +0.000 C 
ATOM     11  C   UNL     1       1.989   8.744  17.672  0.00  0.00    +0.000 C 
ATOM     12  H   UNL     1       2.945   5.903  21.065  0.00  0.00    +0.000 HD
ENDROOT
BRANCH  11  13
ATOM     13  C   UNL     1       1.134   9.803  18.224  0.00  0.00    +0.000 A 
ATOM     14  C   UNL     1      -0.252   9.748  18.033  0.00  0.00    +0.000 A 
ATOM     15  C   UNL     1      -1.070  10.749  18.560  0.00  0.00    +0.000 A 
ATOM     16 CL   UNL     1      -2.778  10.653  18.317  0.00  0.00    +0.000 Cl
ATOM     17  C   UNL     1      -0.520  11.812  19.284  0.00  0.00    +0.000 A 
ATOM     18  C   UNL     1       0.864  11.878  19.456  0.00  0.00    +0.000 A 
ATOM     19 CL   UNL     1       1.597  13.175  20.331  0.00  0.00    +0.000 Cl
ATOM     20  C   UNL     1       1.690  10.879  18.928  0.00  0.00    +0.000 A 
BRANCH  17  21
ATOM     21  O   UNL     1      -1.327  12.777  19.832  0.00  0.00    +0.000 OA
ATOM     22  H   UNL     1      -1.962  12.335  20.422  0.00  0.00    +0.000 HD
ENDBRANCH  17  21
ENDBRANCH  11  13
BRANCH   7  23
ATOM     23  C   UNL     1       5.666   4.962  15.384  0.00  0.00    +0.000 A 
ATOM     24  C   UNL     1       5.136   4.106  14.397  0.00  0.00    +0.000 A 
ATOM     25  C   UNL     1       5.882   3.716  13.280  0.00  0.00    +0.000 A 
ATOM     26  C   UNL     1       7.174   4.198  13.106  0.00  0.00    +0.000 A 
ATOM     27  C   UNL     1       7.713   5.073  14.044  0.00  0.00    +0.000 A 
ATOM     28  C   UNL     1       6.968   5.448  15.171  0.00  0.00    +0.000 A 
ENDBRANCH   7  23
TORSDOF 3
ENDMDL
MODEL 6
REMARK VINA RESULT:      -7.7      3.284      5.096
REMARK  Name = 
REMARK  3 active torsions:
REMARK  status: ('A' for Active; 'I' for Inactive)
REMARK    1  A    between atoms: C_7  and  C_8
REMARK    2  A    between atoms: C_17  and  C_18
REMARK    3  A    between atoms: C_22  and  O_23
REMARK                            x       y       z     vdW  Elec       q    Type
REMARK                         _______ _______ _______ _____ _____    ______ ____
ROOT
ATOM      1  O   UNL     1      -0.707  13.154  19.699  0.00  0.00    +0.000 OA
ATOM      2  C   UNL     1      -0.121  12.095  19.605  0.00  0.00    +0.000 C 
ATOM      3  N   UNL     1       0.592  11.645  18.507  0.00  0.00    +0.000 N 
ATOM      4  C   UNL     1       1.116  10.377  18.726  0.00  0.00    +0.000 A 
ATOM      5  C   UNL     1       1.836   9.633  17.824  0.00  0.00    +0.000 A 
ATOM      6  C   UNL     1       2.230   8.354  18.224  0.00  0.00    +0.000 A 
ATOM      7  C   UNL     1       1.929   7.829  19.511  0.00  0.00    +0.000 A 
ATOM      8  C   UNL     1       1.202   8.648  20.411  0.00  0.00    +0.000 A 
ATOM      9  C   UNL     1       0.792   9.914  20.003  0.00  0.00    +0.000 A 
ATOM     10  C   UNL     1      -0.007  10.985  20.622  0.00  0.00    +0.000 C 
ATOM     11  C   UNL     1      -0.562  10.986  21.844  0.00  0.00    +0.000 C 
ATOM     12  H   UNL     1       0.680  12.184  17.658  0.00  0.00    +0.000 HD
ENDROOT
BRANCH  11  13
ATOM     13  C   UNL     1      -1.403  12.069  22.372  0.00  0.00    +0.000 A 
ATOM     14  C   UNL     1      -2.790  12.021  22.194  0.00  0.00    +0.000 A 
ATOM     15  C   UNL     1      -3.595  13.044  22.700  0.00  0.00    +0.000 A 
ATOM     16 CL   UNL     1      -5.305  12.957  22.474  0.00  0.00    +0.000 Cl
ATOM     17  C   UNL     1      -3.029  14.121  23.389  0.00  0.00    +0.000 A 
ATOM     18  C   UNL     1      -1.643  14.179  23.548  0.00  0.00    +0.000 A 
ATOM     19 CL   UNL     1      -0.891  15.493  24.381  0.00  0.00    +0.000 Cl
ATOM     20  C   UNL     1      -0.831  13.158  23.042  0.00  0.00    +0.000 A 
BRANCH  17  21
ATOM     21  O   UNL     1      -3.823  15.108  23.917  0.00  0.00    +0.000 OA
ATOM     22  H   UNL     1      -4.730  14.762  23.976  0.00  0.00    +0.000 HD
ENDBRANCH  17  21
ENDBRANCH  11  13
BRANCH   7  23
ATOM     23  C   UNL     1       2.335   6.438  19.849  0.00  0.00    +0.000 A 
ATOM     24  C   UNL     1       3.503   5.864  19.308  0.00  0.00    +0.000 A 
ATOM     25  C   UNL     1       3.840   4.525  19.531  0.00  0.00    +0.000 A 
ATOM     26  C   UNL     1       3.028   3.729  20.330  0.00  0.00    +0.000 A 
ATOM     27  C   UNL     1       1.886   4.275  20.908  0.00  0.00    +0.000 A 
ATOM     28  C   UNL     1       1.543   5.613  20.668  0.00  0.00    +0.000 A 
ENDBRANCH   7  23
TORSDOF 3
ENDMDL
MODEL 7
REMARK VINA RESULT:      -7.7      3.271      5.404
REMARK  Name = 
REMARK  3 active torsions:
REMARK  status: ('A' for Active; 'I' for Inactive)
REMARK    1  A    between atoms: C_7  and  C_8
REMARK    2  A    between atoms: C_17  and  C_18
REMARK    3  A    between atoms: C_22  and  O_23
REMARK                            x       y       z     vdW  Elec       q    Type
REMARK                         _______ _______ _______ _____ _____    ______ ____
ROOT
ATOM      1  O   UNL     1      -0.712  13.227  19.654  0.00  0.00    +0.000 OA
ATOM      2  C   UNL     1      -0.125  12.169  19.565  0.00  0.00    +0.000 C 
ATOM      3  N   UNL     1       0.617  11.729  18.480  0.00  0.00    +0.000 N 
ATOM      4  C   UNL     1       1.134  10.459  18.699  0.00  0.00    +0.000 A 
ATOM      5  C   UNL     1       1.877   9.724  17.809  0.00  0.00    +0.000 A 
ATOM      6  C   UNL     1       2.260   8.441  18.206  0.00  0.00    +0.000 A 
ATOM      7  C   UNL     1       1.927   7.903  19.480  0.00  0.00    +0.000 A 
ATOM      8  C   UNL     1       1.177   8.713  20.369  0.00  0.00    +0.000 A 
ATOM      9  C   UNL     1       0.778   9.984  19.963  0.00  0.00    +0.000 A 
ATOM     10  C   UNL     1      -0.037  11.049  20.573  0.00  0.00    +0.000 C 
ATOM     11  C   UNL     1      -0.622  11.038  21.780  0.00  0.00    +0.000 C 
ATOM     12  H   UNL     1       0.726  12.277  17.639  0.00  0.00    +0.000 HD
ENDROOT
BRANCH  11  13
ATOM     13  C   UNL     1      -1.476  12.115  22.297  0.00  0.00    +0.000 A 
ATOM     14  C   UNL     1      -0.917  13.127  23.086  0.00  0.00    +0.000 A 
ATOM     15  C   UNL     1      -1.723  14.157  23.575  0.00  0.00    +0.000 A 
ATOM     16 CL   UNL     1      -1.007  15.399  24.540  0.00  0.00    +0.000 Cl
ATOM     17  C   UNL     1      -3.090  14.193  23.282  0.00  0.00    +0.000 A 
ATOM     18  C   UNL     1      -3.651  13.171  22.513  0.00  0.00    +0.000 A 
ATOM     19 CL   UNL     1      -5.337  13.160  22.132  0.00  0.00    +0.000 Cl
ATOM     20  C   UNL     1      -2.849  12.135  22.022  0.00  0.00    +0.000 A 
BRANCH  17  21
ATOM     21  O   UNL     1      -3.875  15.224  23.734  0.00  0.00    +0.000 OA
ATOM     22  H   UNL     1      -4.269  15.660  22.958  0.00  0.00    +0.000 HD
ENDBRANCH  17  21
ENDBRANCH  11  13
BRANCH   7  23
ATOM     23  C   UNL     1       2.324   6.509  19.814  0.00  0.00    +0.000 A 
ATOM     24  C   UNL     1       3.437   5.897  19.202  0.00  0.00    +0.000 A 
ATOM     25  C   UNL     1       3.758   4.555  19.426  0.00  0.00    +0.000 A 
ATOM     26  C   UNL     1       2.987   3.792  20.295  0.00  0.00    +0.000 A 
ATOM     27  C   UNL     1       1.902   4.376  20.943  0.00  0.00    +0.000 A 
ATOM     28  C   UNL     1       1.574   5.717  20.702  0.00  0.00    +0.000 A 
ENDBRANCH   7  23
TORSDOF 3
ENDMDL
MODEL 8
REMARK VINA RESULT:      -7.7      3.056      4.301
REMARK  Name = 
REMARK  3 active torsions:
REMARK  status: ('A' for Active; 'I' for Inactive)
REMARK    1  A    between atoms: C_7  and  C_8
REMARK    2  A    between atoms: C_17  and  C_18
REMARK    3  A    between atoms: C_22  and  O_23
REMARK                            x       y       z     vdW  Elec       q    Type
REMARK                         _______ _______ _______ _____ _____    ______ ____
ROOT
ATOM      1  O   UNL     1       0.541  12.204  18.548  0.00  0.00    +0.000 OA
ATOM      2  C   UNL     1       0.980  11.081  18.683  0.00  0.00    +0.000 C 
ATOM      3  N   UNL     1       1.798  10.405  17.792  0.00  0.00    +0.000 N 
ATOM      4  C   UNL     1       2.096   9.127  18.244  0.00  0.00    +0.000 A 
ATOM      5  C   UNL     1       2.846   8.188  17.579  0.00  0.00    +0.000 A 
ATOM      6  C   UNL     1       2.985   6.938  18.185  0.00  0.00    +0.000 A 
ATOM      7  C   UNL     1       2.403   6.630  19.446  0.00  0.00    +0.000 A 
ATOM      8  C   UNL     1       1.657   7.643  20.099  0.00  0.00    +0.000 A 
ATOM      9  C   UNL     1       1.502   8.882  19.484  0.00  0.00    +0.000 A 
ATOM     10  C   UNL     1       0.767  10.113  19.821  0.00  0.00    +0.000 C 
ATOM     11  C   UNL     1       0.022  10.344  20.913  0.00  0.00    +0.000 C 
ATOM     12  H   UNL     1       2.101  10.811  16.918  0.00  0.00    +0.000 HD
ENDROOT
BRANCH  11  13
ATOM     13  C   UNL     1      -0.737  11.579  21.153  0.00  0.00    +0.000 A 
ATOM     14  C   UNL     1      -2.026  11.717  20.626  0.00  0.00    +0.000 A 
ATOM     15  C   UNL     1      -2.754  12.886  20.856  0.00  0.00    +0.000 A 
ATOM     16 CL   UNL     1      -4.346  13.027  20.201  0.00  0.00    +0.000 Cl
ATOM     17  C   UNL     1      -2.209  13.926  21.615  0.00  0.00    +0.000 A 
ATOM     18  C   UNL     1      -0.915  13.797  22.123  0.00  0.00    +0.000 A 
ATOM     19 CL   UNL     1      -0.189  15.057  23.056  0.00  0.00    +0.000 Cl
ATOM     20  C   UNL     1      -0.180  12.629  21.893  0.00  0.00    +0.000 A 
BRANCH  17  21
ATOM     21  O   UNL     1      -2.938  15.061  21.871  0.00  0.00    +0.000 OA
ATOM     22  H   UNL     1      -2.666  15.741  21.230  0.00  0.00    +0.000 HD
ENDBRANCH  17  21
ENDBRANCH  11  13
BRANCH   7  23
ATOM     23  C   UNL     1       2.549   5.260  20.007  0.00  0.00    +0.000 A 
ATOM     24  C   UNL     1       3.625   4.427  19.637  0.00  0.00    +0.000 A 
ATOM     25  C   UNL     1       3.717   3.102  20.072  0.00  0.00    +0.000 A 
ATOM     26  C   UNL     1       2.745   2.580  20.917  0.00  0.00    +0.000 A 
ATOM     27  C   UNL     1       1.689   3.387  21.330  0.00  0.00    +0.000 A 
ATOM     28  C   UNL     1       1.592   4.710  20.877  0.00  0.00    +0.000 A 
ENDBRANCH   7  23
TORSDOF 3
ENDMDL
MODEL 9
REMARK VINA RESULT:      -7.6      3.055      4.639
REMARK  Name = 
REMARK  3 active torsions:
REMARK  status: ('A' for Active; 'I' for Inactive)
REMARK    1  A    between atoms: C_7  and  C_8
REMARK    2  A    between atoms: C_17  and  C_18
REMARK    3  A    between atoms: C_22  and  O_23
REMARK                            x       y       z     vdW  Elec       q    Type
REMARK                         _______ _______ _______ _____ _____    ______ ____
ROOT
ATOM      1  O   UNL     1       0.540  12.199  18.538  0.00  0.00    +0.000 OA
ATOM      2  C   UNL     1       0.982  11.077  18.677  0.00  0.00    +0.000 C 
ATOM      3  N   UNL     1       1.797  10.399  17.785  0.00  0.00    +0.000 N 
ATOM      4  C   UNL     1       2.098   9.122  18.241  0.00  0.00    +0.000 A 
ATOM      5  C   UNL     1       2.847   8.182  17.577  0.00  0.00    +0.000 A 
ATOM      6  C   UNL     1       2.990   6.935  18.188  0.00  0.00    +0.000 A 
ATOM      7  C   UNL     1       2.413   6.631  19.452  0.00  0.00    +0.000 A 
ATOM      8  C   UNL     1       1.668   7.645  20.104  0.00  0.00    +0.000 A 
ATOM      9  C   UNL     1       1.509   8.881  19.484  0.00  0.00    +0.000 A 
ATOM     10  C   UNL     1       0.774  10.113  19.820  0.00  0.00    +0.000 C 
ATOM     11  C   UNL     1       0.033  10.348  20.913  0.00  0.00    +0.000 C 
ATOM     12  H   UNL     1       2.095  10.801  16.908  0.00  0.00    +0.000 HD
ENDROOT
BRANCH  11  13
ATOM     13  C   UNL     1      -0.726  11.583  21.151  0.00  0.00    +0.000 A 
ATOM     14  C   UNL     1      -0.151  12.620  21.894  0.00  0.00    +0.000 A 
ATOM     15  C   UNL     1      -0.866  13.799  22.118  0.00  0.00    +0.000 A 
ATOM     16 CL   UNL     1      -0.131  15.066  23.032  0.00  0.00    +0.000 Cl
ATOM     17  C   UNL     1      -2.156  13.958  21.603  0.00  0.00    +0.000 A 
ATOM     18  C   UNL     1      -2.738  12.915  20.879  0.00  0.00    +0.000 A 
ATOM     19 CL   UNL     1      -4.333  13.054  20.231  0.00  0.00    +0.000 Cl
ATOM     20  C   UNL     1      -2.027  11.730  20.654  0.00  0.00    +0.000 A 
BRANCH  17  21
ATOM     21  O   UNL     1      -2.845  15.130  21.793  0.00  0.00    +0.000 OA
ATOM     22  H   UNL     1      -2.919  15.576  20.931  0.00  0.00    +0.000 HD
ENDBRANCH  17  21
ENDBRANCH  11  13
BRANCH   7  23
ATOM     23  C   UNL     1       2.563   5.263  20.018  0.00  0.00    +0.000 A 
ATOM     24  C   UNL     1       3.637   4.430  19.645  0.00  0.00    +0.000 A 
ATOM     25  C   UNL     1       3.733   3.106  20.086  0.00  0.00    +0.000 A 
ATOM     26  C   UNL     1       2.766   2.587  20.938  0.00  0.00    +0.000 A 
ATOM     27  C   UNL     1       1.711   3.395  21.353  0.00  0.00    +0.000 A 
ATOM     28  C   UNL     1       1.611   4.716  20.896  0.00  0.00    +0.000 A 
ENDBRANCH   7  23
TORSDOF 3
ENDMDL
