MODEL 1
REMARK VINA RESULT:      -5.7      0.000      0.000
REMARK  Name = 
REMARK  6 active torsions:
REMARK  status: ('A' for Active; 'I' for Inactive)
REMARK    1  A    between atoms: C_1  and  C_2
REMARK    2  A    between atoms: C_2  and  N_3
REMARK    3  A    between atoms: C_8  and  C_9
REMARK    4  A    between atoms: C_9  and  O_10
REMARK    5  A    between atoms: O_10  and  C_11
REMARK    6  A    between atoms: C_13  and  C_15
REMARK                            x       y       z     vdW  Elec       q    Type
REMARK                         _______ _______ _______ _____ _____    ______ ____
ROOT
ATOM      1  N   UNL     1       2.034   3.834  18.710  0.00  0.00    +0.000 N 
ATOM      2  N   UNL     1       1.415   3.091  19.654  0.00  0.00    +0.000 NA
ATOM      3  C   UNL     1       1.120   3.952  20.629  0.00  0.00    +0.000 A 
ATOM      4  C   UNL     1       1.604   5.231  20.341  0.00  0.00    +0.000 A 
ATOM      5  C   UNL     1       2.201   5.138  19.108  0.00  0.00    +0.000 A 
ATOM      6  C   UNL     1       2.813   6.279  18.347  0.00  0.00    +0.000 C 
ATOM      7  N   UNL     1       2.135   7.532  18.802  0.00  0.00    +0.000 N 
ATOM      8  C   UNL     1       2.171   8.610  17.884  0.00  0.00    +0.000 C 
ATOM      9  O   UNL     1       2.691   8.428  16.780  0.00  0.00    +0.000 OA
ATOM     10  C   UNL     1       1.807   7.710  20.231  0.00  0.00    +0.000 C 
ATOM     11  C   UNL     1       1.518   6.482  21.108  0.00  0.00    +0.000 C 
ENDROOT
BRANCH   8  12
ATOM     12  C   UNL     1       1.559   9.902  18.223  0.00  0.00    +0.000 A 
ATOM     13  C   UNL     1       2.078  11.144  18.554  0.00  0.00    +0.000 A 
ATOM     14  C   UNL     1       1.078  12.088  18.933  0.00  0.00    +0.000 A 
ATOM     15  C   UNL     1      -0.189  11.588  18.758  0.00  0.00    +0.000 A 
ATOM     16  S   UNL     1      -0.166   9.985  18.175  0.00  0.00    +0.000 S 
ENDBRANCH   8  12
BRANCH   1  18
ATOM     17  C   UNL     1       3.406   1.907  17.874  0.00  0.00    +0.000 C 
ATOM     18  C   UNL     1       2.573   3.136  17.558  0.00  0.00    +0.000 C 
ENDBRANCH   1  18
BRANCH   6  19
ATOM     19  C   UNL     1       4.345   6.403  18.526  0.00  0.00    +0.000 C 
BRANCH  19  20
ATOM     20  O   UNL     1       4.869   5.384  19.387  0.00  0.00    +0.000 OA
ATOM     21  C   UNL     1       5.915   4.666  18.726  0.00  0.00    +0.000 C 
ENDBRANCH  19  20
ENDBRANCH   6  19
TORSDOF 4
ENDMDL
MODEL 2
REMARK VINA RESULT:      -5.5      2.297      3.503
REMARK  Name = 
REMARK  6 active torsions:
REMARK  status: ('A' for Active; 'I' for Inactive)
REMARK    1  A    between atoms: C_1  and  C_2
REMARK    2  A    between atoms: C_2  and  N_3
REMARK    3  A    between atoms: C_8  and  C_9
REMARK    4  A    between atoms: C_9  and  O_10
REMARK    5  A    between atoms: O_10  and  C_11
REMARK    6  A    between atoms: C_13  and  C_15
REMARK                            x       y       z     vdW  Elec       q    Type
REMARK                         _______ _______ _______ _____ _____    ______ ____
ROOT
ATOM      1  N   UNL     1       5.058   4.147  19.126  0.00  0.00    +0.000 N 
ATOM      2  N   UNL     1       6.204   4.240  18.416  0.00  0.00    +0.000 NA
ATOM      3  C   UNL     1       6.062   5.340  17.677  0.00  0.00    +0.000 A 
ATOM      4  C   UNL     1       4.803   5.918  17.865  0.00  0.00    +0.000 A 
ATOM      5  C   UNL     1       4.163   5.134  18.791  0.00  0.00    +0.000 A 
ATOM      6  C   UNL     1       2.798   5.396  19.362  0.00  0.00    +0.000 C 
ATOM      7  N   UNL     1       2.554   6.868  19.272  0.00  0.00    +0.000 N 
ATOM      8  C   UNL     1       1.608   7.384  20.192  0.00  0.00    +0.000 C 
ATOM      9  O   UNL     1       1.110   6.616  21.020  0.00  0.00    +0.000 OA
ATOM     10  C   UNL     1       2.990   7.611  18.074  0.00  0.00    +0.000 C 
ATOM     11  C   UNL     1       4.207   7.124  17.272  0.00  0.00    +0.000 C 
ENDROOT
BRANCH   8  12
ATOM     12  C   UNL     1       1.264   8.812  20.190  0.00  0.00    +0.000 A 
ATOM     13  C   UNL     1       1.047   9.738  19.182  0.00  0.00    +0.000 A 
ATOM     14  C   UNL     1       0.857  11.065  19.670  0.00  0.00    +0.000 A 
ATOM     15  C   UNL     1       0.804  11.103  21.041  0.00  0.00    +0.000 A 
ATOM     16  S   UNL     1       1.015   9.557  21.730  0.00  0.00    +0.000 S 
ENDBRANCH   8  12
BRANCH   1  18
ATOM     17  C   UNL     1       4.128   1.824  19.300  0.00  0.00    +0.000 C 
ATOM     18  C   UNL     1       4.878   2.970  19.955  0.00  0.00    +0.000 C 
ENDBRANCH   1  18
BRANCH   6  19
ATOM     19  C   UNL     1       1.662   4.619  18.655  0.00  0.00    +0.000 C 
BRANCH  19  20
ATOM     20  O   UNL     1       1.044   3.661  19.524  0.00  0.00    +0.000 OA
ATOM     21  C   UNL     1       0.672   2.492  18.788  0.00  0.00    +0.000 C 
ENDBRANCH  19  20
ENDBRANCH   6  19
TORSDOF 4
ENDMDL
MODEL 3
REMARK VINA RESULT:      -5.5      4.107      7.961
REMARK  Name = 
REMARK  6 active torsions:
REMARK  status: ('A' for Active; 'I' for Inactive)
REMARK    1  A    between atoms: C_1  and  C_2
REMARK    2  A    between atoms: C_2  and  N_3
REMARK    3  A    between atoms: C_8  and  C_9
REMARK    4  A    between atoms: C_9  and  O_10
REMARK    5  A    between atoms: O_10  and  C_11
REMARK    6  A    between atoms: C_13  and  C_15
REMARK                            x       y       z     vdW  Elec       q    Type
REMARK                         _______ _______ _______ _____ _____    ______ ____
ROOT
ATOM      1  N   UNL     1      -4.006  12.197  19.411  0.00  0.00    +0.000 N 
ATOM      2  N   UNL     1      -5.157  11.750  18.862  0.00  0.00    +0.000 NA
ATOM      3  C   UNL     1      -4.776  10.871  17.934  0.00  0.00    +0.000 A 
ATOM      4  C   UNL     1      -3.383  10.800  17.844  0.00  0.00    +0.000 A 
ATOM      5  C   UNL     1      -2.900  11.666  18.792  0.00  0.00    +0.000 A 
ATOM      6  C   UNL     1      -1.450  11.886  19.116  0.00  0.00    +0.000 C 
ATOM      7  N   UNL     1      -0.717  10.636  18.744  0.00  0.00    +0.000 N 
ATOM      8  C   UNL     1       0.507  10.425  19.423  0.00  0.00    +0.000 C 
ATOM      9  O   UNL     1       0.848  11.233  20.292  0.00  0.00    +0.000 OA
ATOM     10  C   UNL     1      -1.081   9.913  17.509  0.00  0.00    +0.000 C 
ATOM     11  C   UNL     1      -2.521   9.982  16.978  0.00  0.00    +0.000 C 
ENDROOT
BRANCH   8  12
ATOM     12  C   UNL     1       1.332   9.244  19.131  0.00  0.00    +0.000 A 
ATOM     13  C   UNL     1       2.052   8.837  18.020  0.00  0.00    +0.000 A 
ATOM     14  C   UNL     1       2.606   7.529  18.158  0.00  0.00    +0.000 A 
ATOM     15  C   UNL     1       2.406   7.020  19.417  0.00  0.00    +0.000 A 
ATOM     16  S   UNL     1       1.531   8.097  20.408  0.00  0.00    +0.000 S 
ENDBRANCH   8  12
BRANCH   1  18
ATOM     17  C   UNL     1      -3.871  12.836  21.833  0.00  0.00    +0.000 C 
ATOM     18  C   UNL     1      -4.102  13.259  20.393  0.00  0.00    +0.000 C 
ENDBRANCH   1  18
BRANCH   6  19
ATOM     19  C   UNL     1      -0.824  13.106  18.400  0.00  0.00    +0.000 C 
BRANCH  19  20
ATOM     20  O   UNL     1      -0.491  14.155  19.318  0.00  0.00    +0.000 OA
ATOM     21  C   UNL     1       0.776  14.727  18.980  0.00  0.00    +0.000 C 
ENDBRANCH  19  20
ENDBRANCH   6  19
TORSDOF 4
ENDMDL
MODEL 4
REMARK VINA RESULT:      -5.4      3.860      6.263
REMARK  Name = 
REMARK  6 active torsions:
REMARK  status: ('A' for Active; 'I' for Inactive)
REMARK    1  A    between atoms: C_1  and  C_2
REMARK    2  A    between atoms: C_2  and  N_3
REMARK    3  A    between atoms: C_8  and  C_9
REMARK    4  A    between atoms: C_9  and  O_10
REMARK    5  A    between atoms: O_10  and  C_11
REMARK    6  A    between atoms: C_13  and  C_15
REMARK                            x       y       z     vdW  Elec       q    Type
REMARK                         _______ _______ _______ _____ _____    ______ ____
ROOT
ATOM      1  N   UNL     1       2.825   5.476  19.312  0.00  0.00    +0.000 N 
ATOM      2  N   UNL     1       2.119   6.619  19.453  0.00  0.00    +0.000 NA
ATOM      3  C   UNL     1       2.616   7.445  18.532  0.00  0.00    +0.000 A 
ATOM      4  C   UNL     1       3.681   6.857  17.844  0.00  0.00    +0.000 A 
ATOM      5  C   UNL     1       3.812   5.593  18.363  0.00  0.00    +0.000 A 
ATOM      6  C   UNL     1       4.789   4.553  17.893  0.00  0.00    +0.000 C 
ATOM      7  N   UNL     1       5.103   4.854  16.462  0.00  0.00    +0.000 N 
ATOM      8  C   UNL     1       5.559   3.753  15.697  0.00  0.00    +0.000 C 
ATOM      9  O   UNL     1       5.608   2.641  16.232  0.00  0.00    +0.000 OA
ATOM     10  C   UNL     1       5.274   6.254  16.028  0.00  0.00    +0.000 C 
ATOM     11  C   UNL     1       4.523   7.379  16.758  0.00  0.00    +0.000 C 
ENDROOT
BRANCH   8  12
ATOM     12  C   UNL     1       5.922   3.923  14.283  0.00  0.00    +0.000 A 
ATOM     13  C   UNL     1       5.316   3.551  13.093  0.00  0.00    +0.000 A 
ATOM     14  C   UNL     1       6.118   3.826  11.945  0.00  0.00    +0.000 A 
ATOM     15  C   UNL     1       7.258   4.517  12.272  0.00  0.00    +0.000 A 
ATOM     16  S   UNL     1       7.373   4.800  13.950  0.00  0.00    +0.000 S 
ENDBRANCH   8  12
BRANCH   1  18
ATOM     17  C   UNL     1       1.111   4.065  20.482  0.00  0.00    +0.000 C 
ATOM     18  C   UNL     1       2.574   4.413  20.266  0.00  0.00    +0.000 C 
ENDBRANCH   1  18
BRANCH   6  19
ATOM     19  C   UNL     1       6.091   4.493  18.726  0.00  0.00    +0.000 C 
BRANCH  19  20
ATOM     20  O   UNL     1       6.443   5.773  19.266  0.00  0.00    +0.000 OA
ATOM     21  C   UNL     1       7.755   6.148  18.836  0.00  0.00    +0.000 C 
ENDBRANCH  19  20
ENDBRANCH   6  19
TORSDOF 4
ENDMDL
MODEL 5
REMARK VINA RESULT:      -5.4      1.700      2.171
REMARK  Name = 
REMARK  6 active torsions:
REMARK  status: ('A' for Active; 'I' for Inactive)
REMARK    1  A    between atoms: C_1  and  C_2
REMARK    2  A    between atoms: C_2  and  N_3
REMARK    3  A    between atoms: C_8  and  C_9
REMARK    4  A    between atoms: C_9  and  O_10
REMARK    5  A    between atoms: O_10  and  C_11
REMARK    6  A    between atoms: C_13  and  C_15
REMARK                            x       y       z     vdW  Elec       q    Type
REMARK                         _______ _______ _______ _____ _____    ______ ____
ROOT
ATOM      1  N   UNL     1       3.727   3.033  17.628  0.00  0.00    +0.000 N 
ATOM      2  N   UNL     1       3.127   1.855  17.906  0.00  0.00    +0.000 NA
ATOM      3  C   UNL     1       2.335   2.111  18.948  0.00  0.00    +0.000 A 
ATOM      4  C   UNL     1       2.474   3.434  19.378  0.00  0.00    +0.000 A 
ATOM      5  C   UNL     1       3.381   4.013  18.527  0.00  0.00    +0.000 A 
ATOM      6  C   UNL     1       3.807   5.453  18.554  0.00  0.00    +0.000 C 
ATOM      7  N   UNL     1       2.689   6.236  19.164  0.00  0.00    +0.000 N 
ATOM      8  C   UNL     1       2.648   7.608  18.817  0.00  0.00    +0.000 C 
ATOM      9  O   UNL     1       3.478   8.039  18.012  0.00  0.00    +0.000 OA
ATOM     10  C   UNL     1       1.948   5.680  20.314  0.00  0.00    +0.000 C 
ATOM     11  C   UNL     1       1.813   4.158  20.473  0.00  0.00    +0.000 C 
ENDROOT
BRANCH   8  12
ATOM     12  C   UNL     1       1.610   8.490  19.369  0.00  0.00    +0.000 A 
ATOM     13  C   UNL     1       1.092   8.670  20.642  0.00  0.00    +0.000 A 
ATOM     14  C   UNL     1      -0.015   9.570  20.676  0.00  0.00    +0.000 A 
ATOM     15  C   UNL     1      -0.236  10.154  19.453  0.00  0.00    +0.000 A 
ATOM     16  S   UNL     1       0.861   9.596  18.273  0.00  0.00    +0.000 S 
ENDBRANCH   8  12
BRANCH   1  18
ATOM     17  C   UNL     1       4.838   4.320  15.782  0.00  0.00    +0.000 C 
ATOM     18  C   UNL     1       4.741   3.038  16.591  0.00  0.00    +0.000 C 
ENDBRANCH   1  18
BRANCH   6  19
ATOM     19  C   UNL     1       5.122   5.705  19.328  0.00  0.00    +0.000 C 
BRANCH  19  20
ATOM     20  O   UNL     1       6.084   4.665  19.105  0.00  0.00    +0.000 OA
ATOM     21  C   UNL     1       7.240   5.193  18.447  0.00  0.00    +0.000 C 
ENDBRANCH  19  20
ENDBRANCH   6  19
TORSDOF 4
ENDMDL
MODEL 6
REMARK VINA RESULT:      -5.4      3.431      5.932
REMARK  Name = 
REMARK  6 active torsions:
REMARK  status: ('A' for Active; 'I' for Inactive)
REMARK    1  A    between atoms: C_1  and  C_2
REMARK    2  A    between atoms: C_2  and  N_3
REMARK    3  A    between atoms: C_8  and  C_9
REMARK    4  A    between atoms: C_9  and  O_10
REMARK    5  A    between atoms: O_10  and  C_11
REMARK    6  A    between atoms: C_13  and  C_15
REMARK                            x       y       z     vdW  Elec       q    Type
REMARK                         _______ _______ _______ _____ _____    ______ ____
ROOT
ATOM      1  N   UNL     1       6.457   4.881  15.595  0.00  0.00    +0.000 N 
ATOM      2  N   UNL     1       7.773   4.666  15.814  0.00  0.00    +0.000 NA
ATOM      3  C   UNL     1       7.899   4.633  17.141  0.00  0.00    +0.000 A 
ATOM      4  C   UNL     1       6.679   4.889  17.773  0.00  0.00    +0.000 A 
ATOM      5  C   UNL     1       5.762   5.059  16.767  0.00  0.00    +0.000 A 
ATOM      6  C   UNL     1       4.291   5.294  16.957  0.00  0.00    +0.000 C 
ATOM      7  N   UNL     1       3.912   4.699  18.276  0.00  0.00    +0.000 N 
ATOM      8  C   UNL     1       2.548   4.344  18.413  0.00  0.00    +0.000 C 
ATOM      9  O   UNL     1       1.799   4.491  17.443  0.00  0.00    +0.000 OA
ATOM     10  C   UNL     1       4.822   4.838  19.430  0.00  0.00    +0.000 C 
ATOM     11  C   UNL     1       6.337   4.953  19.202  0.00  0.00    +0.000 C 
ENDROOT
BRANCH   8  12
ATOM     12  C   UNL     1       2.046   3.770  19.669  0.00  0.00    +0.000 A 
ATOM     13  C   UNL     1       1.252   4.264  20.692  0.00  0.00    +0.000 A 
ATOM     14  C   UNL     1       1.130   3.365  21.793  0.00  0.00    +0.000 A 
ATOM     15  C   UNL     1       1.725   2.155  21.532  0.00  0.00    +0.000 A 
ATOM     16  S   UNL     1       2.450   2.121  19.989  0.00  0.00    +0.000 S 
ENDBRANCH   8  12
BRANCH   1  18
ATOM     17  C   UNL     1       6.040   3.825  13.358  0.00  0.00    +0.000 C 
ATOM     18  C   UNL     1       6.031   5.073  14.222  0.00  0.00    +0.000 C 
ENDBRANCH   1  18
BRANCH   6  19
ATOM     19  C   UNL     1       3.881   6.785  16.905  0.00  0.00    +0.000 C 
BRANCH  19  20
ATOM     20  O   UNL     1       3.426   7.261  18.178  0.00  0.00    +0.000 OA
ATOM     21  C   UNL     1       2.292   8.117  18.010  0.00  0.00    +0.000 C 
ENDBRANCH  19  20
ENDBRANCH   6  19
TORSDOF 4
ENDMDL
MODEL 7
REMARK VINA RESULT:      -5.3      3.896      6.156
REMARK  Name = 
REMARK  6 active torsions:
REMARK  status: ('A' for Active; 'I' for Inactive)
REMARK    1  A    between atoms: C_1  and  C_2
REMARK    2  A    between atoms: C_2  and  N_3
REMARK    3  A    between atoms: C_8  and  C_9
REMARK    4  A    between atoms: C_9  and  O_10
REMARK    5  A    between atoms: O_10  and  C_11
REMARK    6  A    between atoms: C_13  and  C_15
REMARK                            x       y       z     vdW  Elec       q    Type
REMARK                         _______ _______ _______ _____ _____    ______ ____
ROOT
ATOM      1  N   UNL     1       2.501   5.268  18.836  0.00  0.00    +0.000 N 
ATOM      2  N   UNL     1       1.819   6.421  19.007  0.00  0.00    +0.000 NA
ATOM      3  C   UNL     1       2.522   7.338  18.342  0.00  0.00    +0.000 A 
ATOM      4  C   UNL     1       3.687   6.789  17.799  0.00  0.00    +0.000 A 
ATOM      5  C   UNL     1       3.667   5.458  18.134  0.00  0.00    +0.000 A 
ATOM      6  C   UNL     1       4.686   4.437  17.715  0.00  0.00    +0.000 C 
ATOM      7  N   UNL     1       5.300   4.919  16.440  0.00  0.00    +0.000 N 
ATOM      8  C   UNL     1       5.869   3.913  15.621  0.00  0.00    +0.000 C 
ATOM      9  O   UNL     1       5.770   2.736  15.979  0.00  0.00    +0.000 OA
ATOM     10  C   UNL     1       5.601   6.354  16.268  0.00  0.00    +0.000 C 
ATOM     11  C   UNL     1       4.752   7.407  16.997  0.00  0.00    +0.000 C 
ENDROOT
BRANCH   8  12
ATOM     12  C   UNL     1       6.522   4.261  14.352  0.00  0.00    +0.000 A 
ATOM     13  C   UNL     1       7.552   5.125  14.016  0.00  0.00    +0.000 A 
ATOM     14  C   UNL     1       7.764   5.226  12.609  0.00  0.00    +0.000 A 
ATOM     15  C   UNL     1       6.981   4.342  11.910  0.00  0.00    +0.000 A 
ATOM     16  S   UNL     1       5.977   3.426  12.940  0.00  0.00    +0.000 S 
ENDBRANCH   8  12
BRANCH   1  18
ATOM     17  C   UNL     1       1.220   3.115  18.714  0.00  0.00    +0.000 C 
ATOM     18  C   UNL     1       2.024   4.097  19.547  0.00  0.00    +0.000 C 
ENDBRANCH   1  18
BRANCH   6  19
ATOM     19  C   UNL     1       5.785   4.176  18.773  0.00  0.00    +0.000 C 
BRANCH  19  20
ATOM     20  O   UNL     1       6.059   5.341  19.561  0.00  0.00    +0.000 OA
ATOM     21  C   UNL     1       7.419   5.750  19.385  0.00  0.00    +0.000 C 
ENDBRANCH  19  20
ENDBRANCH   6  19
TORSDOF 4
ENDMDL
MODEL 8
REMARK VINA RESULT:      -5.3      1.281      1.430
REMARK  Name = 
REMARK  6 active torsions:
REMARK  status: ('A' for Active; 'I' for Inactive)
REMARK    1  A    between atoms: C_1  and  C_2
REMARK    2  A    between atoms: C_2  and  N_3
REMARK    3  A    between atoms: C_8  and  C_9
REMARK    4  A    between atoms: C_9  and  O_10
REMARK    5  A    between atoms: O_10  and  C_11
REMARK    6  A    between atoms: C_13  and  C_15
REMARK                            x       y       z     vdW  Elec       q    Type
REMARK                         _______ _______ _______ _____ _____    ______ ____
ROOT
ATOM      1  N   UNL     1       2.371   4.180  18.337  0.00  0.00    +0.000 N 
ATOM      2  N   UNL     1       1.960   3.235  19.211  0.00  0.00    +0.000 NA
ATOM      3  C   UNL     1       1.620   3.909  20.310  0.00  0.00    +0.000 A 
ATOM      4  C   UNL     1       1.870   5.276  20.165  0.00  0.00    +0.000 A 
ATOM      5  C   UNL     1       2.364   5.436  18.895  0.00  0.00    +0.000 A 
ATOM      6  C   UNL     1       2.722   6.748  18.256  0.00  0.00    +0.000 C 
ATOM      7  N   UNL     1       1.898   7.804  18.920  0.00  0.00    +0.000 N 
ATOM      8  C   UNL     1       1.683   8.977  18.155  0.00  0.00    +0.000 C 
ATOM      9  O   UNL     1       2.128   9.021  17.004  0.00  0.00    +0.000 OA
ATOM     10  C   UNL     1       1.671   7.749  20.377  0.00  0.00    +0.000 C 
ATOM     11  C   UNL     1       1.656   6.392  21.099  0.00  0.00    +0.000 C 
ENDROOT
BRANCH   8  12
ATOM     12  C   UNL     1       0.908  10.098  18.704  0.00  0.00    +0.000 A 
ATOM     13  C   UNL     1      -0.379  10.210  19.206  0.00  0.00    +0.000 A 
ATOM     14  C   UNL     1      -0.746  11.554  19.515  0.00  0.00    +0.000 A 
ATOM     15  C   UNL     1       0.310  12.419  19.364  0.00  0.00    +0.000 A 
ATOM     16  S   UNL     1       1.716  11.620  18.824  0.00  0.00    +0.000 S 
ENDBRANCH   8  12
BRANCH   1  18
ATOM     17  C   UNL     1       4.409   3.486  17.050  0.00  0.00    +0.000 C 
ATOM     18  C   UNL     1       2.910   3.729  17.069  0.00  0.00    +0.000 C 
ENDBRANCH   1  18
BRANCH   6  19
ATOM     19  C   UNL     1       4.224   7.103  18.349  0.00  0.00    +0.000 C 
BRANCH  19  20
ATOM     20  O   UNL     1       4.883   6.986  17.081  0.00  0.00    +0.000 OA
ATOM     21  C   UNL     1       6.282   6.751  17.270  0.00  0.00    +0.000 C 
ENDBRANCH  19  20
ENDBRANCH   6  19
TORSDOF 4
ENDMDL
MODEL 9
REMARK VINA RESULT:      -5.2      1.913      2.411
REMARK  Name = 
REMARK  6 active torsions:
REMARK  status: ('A' for Active; 'I' for Inactive)
REMARK    1  A    between atoms: C_1  and  C_2
REMARK    2  A    between atoms: C_2  and  N_3
REMARK    3  A    between atoms: C_8  and  C_9
REMARK    4  A    between atoms: C_9  and  O_10
REMARK    5  A    between atoms: O_10  and  C_11
REMARK    6  A    between atoms: C_13  and  C_15
REMARK                            x       y       z     vdW  Elec       q    Type
REMARK                         _______ _______ _______ _____ _____    ______ ____
ROOT
ATOM      1  N   UNL     1       4.192   4.067  16.748  0.00  0.00    +0.000 N 
ATOM      2  N   UNL     1       4.052   2.809  17.219  0.00  0.00    +0.000 NA
ATOM      3  C   UNL     1       3.580   2.956  18.457  0.00  0.00    +0.000 A 
ATOM      4  C   UNL     1       3.476   4.306  18.804  0.00  0.00    +0.000 A 
ATOM      5  C   UNL     1       3.884   5.010  17.699  0.00  0.00    +0.000 A 
ATOM      6  C   UNL     1       3.886   6.507  17.570  0.00  0.00    +0.000 C 
ATOM      7  N   UNL     1       2.840   7.034  18.499  0.00  0.00    +0.000 N 
ATOM      8  C   UNL     1       2.321   8.309  18.167  0.00  0.00    +0.000 C 
ATOM      9  O   UNL     1       2.713   8.856  17.132  0.00  0.00    +0.000 OA
ATOM     10  C   UNL     1       2.669   6.424  19.832  0.00  0.00    +0.000 C 
ATOM     11  C   UNL     1       3.012   4.942  20.045  0.00  0.00    +0.000 C 
ENDROOT
BRANCH   8  12
ATOM     12  C   UNL     1       1.303   8.947  19.013  0.00  0.00    +0.000 A 
ATOM     13  C   UNL     1       1.027   8.900  20.371  0.00  0.00    +0.000 A 
ATOM     14  C   UNL     1      -0.163   9.601  20.727  0.00  0.00    +0.000 A 
ATOM     15  C   UNL     1      -0.699  10.274  19.657  0.00  0.00    +0.000 A 
ATOM     16  S   UNL     1       0.209  10.034  18.234  0.00  0.00    +0.000 S 
ENDBRANCH   8  12
BRANCH   1  18
ATOM     17  C   UNL     1       6.298   4.004  15.386  0.00  0.00    +0.000 C 
ATOM     18  C   UNL     1       4.797   4.228  15.440  0.00  0.00    +0.000 C 
ENDBRANCH   1  18
BRANCH   6  19
ATOM     19  C   UNL     1       5.254   7.162  17.876  0.00  0.00    +0.000 C 
BRANCH  19  20
ATOM     20  O   UNL     1       6.183   6.226  18.439  0.00  0.00    +0.000 OA
ATOM     21  C   UNL     1       7.467   6.372  17.823  0.00  0.00    +0.000 C 
ENDBRANCH  19  20
ENDBRANCH   6  19
TORSDOF 4
ENDMDL
