MODEL 1
REMARK VINA RESULT:      -8.4      0.000      0.000
REMARK  Name = 
REMARK  5 active torsions:
REMARK  status: ('A' for Active; 'I' for Inactive)
REMARK    1  A    between atoms: C_2  and  C_21
REMARK    2  A    between atoms: N_3  and  C_4
REMARK    3  A    between atoms: C_4  and  C_5
REMARK    4  A    between atoms: C_4  and  C_12
REMARK    5  A    between atoms: C_5  and  C_6
REMARK                            x       y       z     vdW  Elec       q    Type
REMARK                         _______ _______ _______ _____ _____    ______ ____
ROOT
ATOM      1  C   UNL     1       3.094   6.001  19.292  0.00  0.00    +0.000 C 
ENDROOT
BRANCH   1   2
ATOM      2  C   UNL     1       2.366   7.339  19.208  0.00  0.00    +0.000 A 
ATOM      3  C   UNL     1       2.330   8.041  17.977  0.00  0.00    +0.000 A 
ATOM      4  C   UNL     1       1.661   9.264  17.853  0.00  0.00    +0.000 A 
ATOM      5  C   UNL     1       1.041   9.772  18.972  0.00  0.00    +0.000 A 
ATOM      6  C   UNL     1       1.071   9.109  20.176  0.00  0.00    +0.000 A 
ATOM      7  C   UNL     1       1.719   7.899  20.327  0.00  0.00    +0.000 A 
ATOM      8  O   UNL     1       0.402   9.778  21.152  0.00  0.00    +0.000 OA
ATOM      9  C   UNL     1      -0.046  10.942  20.425  0.00  0.00    +0.000 C 
ATOM     10  O   UNL     1       0.349  10.940  19.038  0.00  0.00    +0.000 OA
ENDBRANCH   1   2
BRANCH   1  13
ATOM     11  O   UNL     1       3.677   3.385  20.254  0.00  0.00    +0.000 OA
ATOM     12  C   UNL     1       2.507   3.672  19.993  0.00  0.00    +0.000 C 
ATOM     13  N   UNL     1       2.137   4.932  19.539  0.00  0.00    +0.000 N 
ATOM     14  H   UNL     1       1.152   5.113  19.379  0.00  0.00    +0.000 HD
BRANCH  12  15
ATOM     15  C   UNL     1       1.337   2.672  20.133  0.00  0.00    +0.000 C 
ATOM     16  F   UNL     1       0.222   3.101  19.467  0.00  0.00    +0.000 F 
ATOM     17  F   UNL     1       1.632   1.443  19.627  0.00  0.00    +0.000 F 
ATOM     18  F   UNL     1       0.956   2.485  21.426  0.00  0.00    +0.000 F 
ENDBRANCH  12  15
ENDBRANCH   1  13
BRANCH   1  19
ATOM     19  C   UNL     1       3.933   5.731  18.013  0.00  0.00    +0.000 C 
BRANCH  19  20
ATOM     20  C   UNL     1       5.418   6.046  18.126  0.00  0.00    +0.000 C 
ATOM     21  C   UNL     1       6.205   5.424  19.026  0.00  0.00    +0.000 C 
ATOM     22  C   UNL     1       7.673   5.700  19.181  0.00  0.00    +0.000 C 
ATOM     23  C   UNL     1       8.096   7.014  18.529  0.00  0.00    +0.000 C 
ATOM     24  C   UNL     1       7.515   7.121  17.125  0.00  0.00    +0.000 C 
ATOM     25  C   UNL     1       5.983   7.053  17.146  0.00  0.00    +0.000 C 
ENDBRANCH  19  20
ENDBRANCH   1  19
TORSDOF 5
ENDMDL
MODEL 2
REMARK VINA RESULT:      -8.3      0.931      1.430
REMARK  Name = 
REMARK  5 active torsions:
REMARK  status: ('A' for Active; 'I' for Inactive)
REMARK    1  A    between atoms: C_2  and  C_21
REMARK    2  A    between atoms: N_3  and  C_4
REMARK    3  A    between atoms: C_4  and  C_5
REMARK    4  A    between atoms: C_4  and  C_12
REMARK    5  A    between atoms: C_5  and  C_6
REMARK                            x       y       z     vdW  Elec       q    Type
REMARK                         _______ _______ _______ _____ _____    ______ ____
ROOT
ATOM      1  C   UNL     1       3.007   5.970  18.964  0.00  0.00    +0.000 C 
ENDROOT
BRANCH   1   2
ATOM      2  C   UNL     1       2.304   7.317  19.106  0.00  0.00    +0.000 A 
ATOM      3  C   UNL     1       2.195   8.171  17.980  0.00  0.00    +0.000 A 
ATOM      4  C   UNL     1       1.546   9.408  18.063  0.00  0.00    +0.000 A 
ATOM      5  C   UNL     1       1.021   9.776  19.281  0.00  0.00    +0.000 A 
ATOM      6  C   UNL     1       1.124   8.964  20.385  0.00  0.00    +0.000 A 
ATOM      7  C   UNL     1       1.753   7.737  20.332  0.00  0.00    +0.000 A 
ATOM      8  O   UNL     1       0.543   9.511  21.485  0.00  0.00    +0.000 OA
ATOM      9  C   UNL     1       0.069  10.765  20.948  0.00  0.00    +0.000 C 
ATOM     10  O   UNL     1       0.361  10.935  19.546  0.00  0.00    +0.000 OA
ENDBRANCH   1   2
BRANCH   1  13
ATOM     11  O   UNL     1       3.735   3.466  20.109  0.00  0.00    +0.000 OA
ATOM     12  C   UNL     1       2.543   3.693  19.894  0.00  0.00    +0.000 C 
ATOM     13  N   UNL     1       2.103   4.897  19.357  0.00  0.00    +0.000 N 
ATOM     14  H   UNL     1       1.105   5.034  19.241  0.00  0.00    +0.000 HD
BRANCH  12  15
ATOM     15  C   UNL     1       1.418   2.675  20.188  0.00  0.00    +0.000 C 
ATOM     16  F   UNL     1       1.593   1.512  19.491  0.00  0.00    +0.000 F 
ATOM     17  F   UNL     1       1.356   2.323  21.502  0.00  0.00    +0.000 F 
ATOM     18  F   UNL     1       0.185   3.138  19.846  0.00  0.00    +0.000 F 
ENDBRANCH  12  15
ENDBRANCH   1  13
BRANCH   1  19
ATOM     19  C   UNL     1       3.546   5.760  17.523  0.00  0.00    +0.000 C 
BRANCH  19  20
ATOM     20  C   UNL     1       5.031   5.438  17.421  0.00  0.00    +0.000 C 
ATOM     21  C   UNL     1       5.566   4.928  16.294  0.00  0.00    +0.000 C 
ATOM     22  C   UNL     1       7.022   4.589  16.142  0.00  0.00    +0.000 C 
ATOM     23  C   UNL     1       7.744   4.488  17.483  0.00  0.00    +0.000 C 
ATOM     24  C   UNL     1       7.398   5.680  18.365  0.00  0.00    +0.000 C 
ATOM     25  C   UNL     1       5.890   5.766  18.624  0.00  0.00    +0.000 C 
ENDBRANCH  19  20
ENDBRANCH   1  19
TORSDOF 5
ENDMDL
MODEL 3
REMARK VINA RESULT:      -8.2      3.188      4.822
REMARK  Name = 
REMARK  5 active torsions:
REMARK  status: ('A' for Active; 'I' for Inactive)
REMARK    1  A    between atoms: C_2  and  C_21
REMARK    2  A    between atoms: N_3  and  C_4
REMARK    3  A    between atoms: C_4  and  C_5
REMARK    4  A    between atoms: C_4  and  C_12
REMARK    5  A    between atoms: C_5  and  C_6
REMARK                            x       y       z     vdW  Elec       q    Type
REMARK                         _______ _______ _______ _____ _____    ______ ____
ROOT
ATOM      1  C   UNL     1       3.720   5.937  17.588  0.00  0.00    +0.000 C 
ENDROOT
BRANCH   1   2
ATOM      2  C   UNL     1       2.895   7.028  18.265  0.00  0.00    +0.000 A 
ATOM      3  C   UNL     1       2.461   8.147  17.511  0.00  0.00    +0.000 A 
ATOM      4  C   UNL     1       1.691   9.162  18.090  0.00  0.00    +0.000 A 
ATOM      5  C   UNL     1       1.373   9.044  19.424  0.00  0.00    +0.000 A 
ATOM      6  C   UNL     1       1.791   7.970  20.172  0.00  0.00    +0.000 A 
ATOM      7  C   UNL     1       2.547   6.951  19.627  0.00  0.00    +0.000 A 
ATOM      8  O   UNL     1       1.373   8.044  21.463  0.00  0.00    +0.000 OA
ATOM      9  C   UNL     1       0.650   9.293  21.444  0.00  0.00    +0.000 C 
ATOM     10  O   UNL     1       0.638   9.929  20.149  0.00  0.00    +0.000 OA
ENDBRANCH   1   2
BRANCH   1  13
ATOM     11  O   UNL     1       6.279   6.828  16.711  0.00  0.00    +0.000 OA
ATOM     12  C   UNL     1       6.199   6.219  17.780  0.00  0.00    +0.000 C 
ATOM     13  N   UNL     1       4.986   5.769  18.287  0.00  0.00    +0.000 N 
ATOM     14  H   UNL     1       4.986   5.308  19.190  0.00  0.00    +0.000 HD
BRANCH  12  15
ATOM     15  C   UNL     1       7.424   5.885  18.660  0.00  0.00    +0.000 C 
ATOM     16  F   UNL     1       7.064   5.627  19.954  0.00  0.00    +0.000 F 
ATOM     17  F   UNL     1       8.097   4.783  18.228  0.00  0.00    +0.000 F 
ATOM     18  F   UNL     1       8.327   6.901  18.715  0.00  0.00    +0.000 F 
ENDBRANCH  12  15
ENDBRANCH   1  13
BRANCH   1  19
ATOM     19  C   UNL     1       2.933   4.600  17.504  0.00  0.00    +0.000 C 
BRANCH  19  20
ATOM     20  C   UNL     1       2.600   3.954  18.842  0.00  0.00    +0.000 C 
ATOM     21  C   UNL     1       1.328   3.843  19.274  0.00  0.00    +0.000 C 
ATOM     22  C   UNL     1       0.946   3.217  20.586  0.00  0.00    +0.000 C 
ATOM     23  C   UNL     1       2.126   3.098  21.546  0.00  0.00    +0.000 C 
ATOM     24  C   UNL     1       3.338   2.518  20.829  0.00  0.00    +0.000 C 
ATOM     25  C   UNL     1       3.757   3.392  19.641  0.00  0.00    +0.000 C 
ENDBRANCH  19  20
ENDBRANCH   1  19
TORSDOF 5
ENDMDL
MODEL 4
REMARK VINA RESULT:      -8.2      2.519      5.869
REMARK  Name = 
REMARK  5 active torsions:
REMARK  status: ('A' for Active; 'I' for Inactive)
REMARK    1  A    between atoms: C_2  and  C_21
REMARK    2  A    between atoms: N_3  and  C_4
REMARK    3  A    between atoms: C_4  and  C_5
REMARK    4  A    between atoms: C_4  and  C_12
REMARK    5  A    between atoms: C_5  and  C_6
REMARK                            x       y       z     vdW  Elec       q    Type
REMARK                         _______ _______ _______ _____ _____    ______ ____
ROOT
ATOM      1  C   UNL     1       2.984   5.662  18.263  0.00  0.00    +0.000 C 
ENDROOT
BRANCH   1   2
ATOM      2  C   UNL     1       4.254   5.623  17.419  0.00  0.00    +0.000 A 
ATOM      3  C   UNL     1       5.353   6.447  17.768  0.00  0.00    +0.000 A 
ATOM      4  C   UNL     1       6.541   6.431  17.028  0.00  0.00    +0.000 A 
ATOM      5  C   UNL     1       6.607   5.591  15.940  0.00  0.00    +0.000 A 
ATOM      6  C   UNL     1       5.549   4.790  15.582  0.00  0.00    +0.000 A 
ATOM      7  C   UNL     1       4.367   4.781  16.295  0.00  0.00    +0.000 A 
ATOM      8  O   UNL     1       5.817   4.040  14.481  0.00  0.00    +0.000 OA
ATOM      9  C   UNL     1       7.163   4.467  14.182  0.00  0.00    +0.000 C 
ATOM     10  O   UNL     1       7.675   5.445  15.110  0.00  0.00    +0.000 OA
ENDBRANCH   1   2
BRANCH   1  13
ATOM     11  O   UNL     1       0.897   3.951  17.356  0.00  0.00    +0.000 OA
ATOM     12  C   UNL     1       1.624   3.561  18.271  0.00  0.00    +0.000 C 
ATOM     13  N   UNL     1       2.677   4.327  18.758  0.00  0.00    +0.000 N 
ATOM     14  H   UNL     1       3.261   3.931  19.487  0.00  0.00    +0.000 HD
BRANCH  12  15
ATOM     15  C   UNL     1       1.445   2.198  18.977  0.00  0.00    +0.000 C 
ATOM     16  F   UNL     1       0.332   1.540  18.533  0.00  0.00    +0.000 F 
ATOM     17  F   UNL     1       2.494   1.355  18.765  0.00  0.00    +0.000 F 
ATOM     18  F   UNL     1       1.302   2.317  20.325  0.00  0.00    +0.000 F 
ENDBRANCH  12  15
ENDBRANCH   1  13
BRANCH   1  19
ATOM     19  C   UNL     1       3.108   6.685  19.426  0.00  0.00    +0.000 C 
BRANCH  19  20
ATOM     20  C   UNL     1       2.191   7.896  19.332  0.00  0.00    +0.000 C 
ATOM     21  C   UNL     1       1.482   8.328  20.394  0.00  0.00    +0.000 C 
ATOM     22  C   UNL     1       0.560   9.514  20.354  0.00  0.00    +0.000 C 
ATOM     23  C   UNL     1       0.190   9.923  18.931  0.00  0.00    +0.000 C 
ATOM     24  C   UNL     1       1.434   9.982  18.054  0.00  0.00    +0.000 C 
ATOM     25  C   UNL     1       2.150   8.627  18.006  0.00  0.00    +0.000 C 
ENDBRANCH  19  20
ENDBRANCH   1  19
TORSDOF 5
ENDMDL
MODEL 5
REMARK VINA RESULT:      -8.2      2.528      6.002
REMARK  Name = 
REMARK  5 active torsions:
REMARK  status: ('A' for Active; 'I' for Inactive)
REMARK    1  A    between atoms: C_2  and  C_21
REMARK    2  A    between atoms: N_3  and  C_4
REMARK    3  A    between atoms: C_4  and  C_5
REMARK    4  A    between atoms: C_4  and  C_12
REMARK    5  A    between atoms: C_5  and  C_6
REMARK                            x       y       z     vdW  Elec       q    Type
REMARK                         _______ _______ _______ _____ _____    ______ ____
ROOT
ATOM      1  C   UNL     1       2.980   5.668  18.219  0.00  0.00    +0.000 C 
ENDROOT
BRANCH   1   2
ATOM      2  C   UNL     1       4.251   5.623  17.376  0.00  0.00    +0.000 A 
ATOM      3  C   UNL     1       5.352   6.443  17.727  0.00  0.00    +0.000 A 
ATOM      4  C   UNL     1       6.542   6.422  16.989  0.00  0.00    +0.000 A 
ATOM      5  C   UNL     1       6.607   5.581  15.901  0.00  0.00    +0.000 A 
ATOM      6  C   UNL     1       5.546   4.784  15.543  0.00  0.00    +0.000 A 
ATOM      7  C   UNL     1       4.362   4.780  16.254  0.00  0.00    +0.000 A 
ATOM      8  O   UNL     1       5.813   4.031  14.442  0.00  0.00    +0.000 OA
ATOM      9  C   UNL     1       7.161   4.453  14.145  0.00  0.00    +0.000 C 
ATOM     10  O   UNL     1       7.675   5.430  15.074  0.00  0.00    +0.000 OA
ENDBRANCH   1   2
BRANCH   1  13
ATOM     11  O   UNL     1       0.861   3.978  17.347  0.00  0.00    +0.000 OA
ATOM     12  C   UNL     1       1.600   3.580  18.248  0.00  0.00    +0.000 C 
ATOM     13  N   UNL     1       2.669   4.335  18.717  0.00  0.00    +0.000 N 
ATOM     14  H   UNL     1       3.262   3.932  19.435  0.00  0.00    +0.000 HD
BRANCH  12  15
ATOM     15  C   UNL     1       1.421   2.217  18.955  0.00  0.00    +0.000 C 
ATOM     16  F   UNL     1       1.291   2.362  20.308  0.00  0.00    +0.000 F 
ATOM     17  F   UNL     1       0.310   1.550  18.536  0.00  0.00    +0.000 F 
ATOM     18  F   UNL     1       2.477   1.381  18.763  0.00  0.00    +0.000 F 
ENDBRANCH  12  15
ENDBRANCH   1  13
BRANCH   1  19
ATOM     19  C   UNL     1       3.104   6.694  19.379  0.00  0.00    +0.000 C 
BRANCH  19  20
ATOM     20  C   UNL     1       2.155   7.882  19.305  0.00  0.00    +0.000 C 
ATOM     21  C   UNL     1       1.887   8.499  18.137  0.00  0.00    +0.000 C 
ATOM     22  C   UNL     1       0.962   9.676  18.009  0.00  0.00    +0.000 C 
ATOM     23  C   UNL     1       0.686  10.354  19.349  0.00  0.00    +0.000 C 
ATOM     24  C   UNL     1       0.344   9.316  20.410  0.00  0.00    +0.000 C 
ATOM     25  C   UNL     1       1.485   8.307  20.595  0.00  0.00    +0.000 C 
ENDBRANCH  19  20
ENDBRANCH   1  19
TORSDOF 5
ENDMDL
MODEL 6
REMARK VINA RESULT:      -8.1      2.573      5.971
REMARK  Name = 
REMARK  5 active torsions:
REMARK  status: ('A' for Active; 'I' for Inactive)
REMARK    1  A    between atoms: C_2  and  C_21
REMARK    2  A    between atoms: N_3  and  C_4
REMARK    3  A    between atoms: C_4  and  C_5
REMARK    4  A    between atoms: C_4  and  C_12
REMARK    5  A    between atoms: C_5  and  C_6
REMARK                            x       y       z     vdW  Elec       q    Type
REMARK                         _______ _______ _______ _____ _____    ______ ____
ROOT
ATOM      1  C   UNL     1       2.867   5.837  18.546  0.00  0.00    +0.000 C 
ENDROOT
BRANCH   1   2
ATOM      2  C   UNL     1       4.221   5.516  17.920  0.00  0.00    +0.000 A 
ATOM      3  C   UNL     1       5.276   5.041  18.738  0.00  0.00    +0.000 A 
ATOM      4  C   UNL     1       6.529   4.722  18.201  0.00  0.00    +0.000 A 
ATOM      5  C   UNL     1       6.708   4.893  16.847  0.00  0.00    +0.000 A 
ATOM      6  C   UNL     1       5.699   5.359  16.040  0.00  0.00    +0.000 A 
ATOM      7  C   UNL     1       4.452   5.677  16.540  0.00  0.00    +0.000 A 
ATOM      8  O   UNL     1       6.080   5.456  14.739  0.00  0.00    +0.000 OA
ATOM      9  C   UNL     1       7.449   5.004  14.822  0.00  0.00    +0.000 C 
ATOM     10  O   UNL     1       7.851   4.636  16.157  0.00  0.00    +0.000 OA
ENDBRANCH   1   2
BRANCH   1  13
ATOM     11  O   UNL     1       1.339   3.866  17.172  0.00  0.00    +0.000 OA
ATOM     12  C   UNL     1       1.537   3.723  18.379  0.00  0.00    +0.000 C 
ATOM     13  N   UNL     1       2.289   4.629  19.119  0.00  0.00    +0.000 N 
ATOM     14  H   UNL     1       2.445   4.432  20.101  0.00  0.00    +0.000 HD
BRANCH  12  15
ATOM     15  C   UNL     1       0.972   2.541  19.199  0.00  0.00    +0.000 C 
ATOM     16  F   UNL     1      -0.012   1.878  18.521  0.00  0.00    +0.000 F 
ATOM     17  F   UNL     1       1.919   1.610  19.499  0.00  0.00    +0.000 F 
ATOM     18  F   UNL     1       0.420   2.934  20.379  0.00  0.00    +0.000 F 
ENDBRANCH  12  15
ENDBRANCH   1  13
BRANCH   1  19
ATOM     19  C   UNL     1       2.986   6.968  19.604  0.00  0.00    +0.000 C 
BRANCH  19  20
ATOM     20  C   UNL     1       1.991   8.110  19.454  0.00  0.00    +0.000 C 
ATOM     21  C   UNL     1       1.743   8.677  18.256  0.00  0.00    +0.000 C 
ATOM     22  C   UNL     1       0.775   9.808  18.053  0.00  0.00    +0.000 C 
ATOM     23  C   UNL     1       0.417  10.516  19.357  0.00  0.00    +0.000 C 
ATOM     24  C   UNL     1       0.077   9.498  20.438  0.00  0.00    +0.000 C 
ATOM     25  C   UNL     1       1.251   8.547  20.701  0.00  0.00    +0.000 C 
ENDBRANCH  19  20
ENDBRANCH   1  19
TORSDOF 5
ENDMDL
MODEL 7
REMARK VINA RESULT:      -8.1      2.462      5.692
REMARK  Name = 
REMARK  5 active torsions:
REMARK  status: ('A' for Active; 'I' for Inactive)
REMARK    1  A    between atoms: C_2  and  C_21
REMARK    2  A    between atoms: N_3  and  C_4
REMARK    3  A    between atoms: C_4  and  C_5
REMARK    4  A    between atoms: C_4  and  C_12
REMARK    5  A    between atoms: C_5  and  C_6
REMARK                            x       y       z     vdW  Elec       q    Type
REMARK                         _______ _______ _______ _____ _____    ______ ____
ROOT
ATOM      1  C   UNL     1       2.345   6.158  18.956  0.00  0.00    +0.000 C 
ENDROOT
BRANCH   1   2
ATOM      2  C   UNL     1       3.733   6.020  18.337  0.00  0.00    +0.000 A 
ATOM      3  C   UNL     1       4.061   6.770  17.180  0.00  0.00    +0.000 A 
ATOM      4  C   UNL     1       5.327   6.684  16.590  0.00  0.00    +0.000 A 
ATOM      5  C   UNL     1       6.247   5.837  17.165  0.00  0.00    +0.000 A 
ATOM      6  C   UNL     1       5.944   5.097  18.283  0.00  0.00    +0.000 A 
ATOM      7  C   UNL     1       4.706   5.165  18.890  0.00  0.00    +0.000 A 
ATOM      8  O   UNL     1       6.986   4.326  18.692  0.00  0.00    +0.000 OA
ATOM      9  C   UNL     1       7.978   4.661  17.697  0.00  0.00    +0.000 C 
ATOM     10  O   UNL     1       7.518   5.627  16.731  0.00  0.00    +0.000 OA
ENDBRANCH   1   2
BRANCH   1  13
ATOM     11  O   UNL     1       1.486   3.998  17.311  0.00  0.00    +0.000 OA
ATOM     12  C   UNL     1       1.452   3.858  18.535  0.00  0.00    +0.000 C 
ATOM     13  N   UNL     1       1.873   4.856  19.406  0.00  0.00    +0.000 N 
ATOM     14  H   UNL     1       1.854   4.662  20.401  0.00  0.00    +0.000 HD
BRANCH  12  15
ATOM     15  C   UNL     1       0.939   2.577  19.229  0.00  0.00    +0.000 C 
ATOM     16  F   UNL     1       0.426   2.843  20.469  0.00  0.00    +0.000 F 
ATOM     17  F   UNL     1      -0.057   1.963  18.532  0.00  0.00    +0.000 F 
ATOM     18  F   UNL     1       1.917   1.650  19.415  0.00  0.00    +0.000 F 
ENDBRANCH  12  15
ENDBRANCH   1  13
BRANCH   1  19
ATOM     19  C   UNL     1       2.340   7.196  20.111  0.00  0.00    +0.000 C 
BRANCH  19  20
ATOM     20  C   UNL     1       1.450   8.412  19.894  0.00  0.00    +0.000 C 
ATOM     21  C   UNL     1       0.663   8.895  20.875  0.00  0.00    +0.000 C 
ATOM     22  C   UNL     1      -0.236  10.088  20.712  0.00  0.00    +0.000 C 
ATOM     23  C   UNL     1      -0.483  10.441  19.248  0.00  0.00    +0.000 C 
ATOM     24  C   UNL     1       0.829  10.451  18.474  0.00  0.00    +0.000 C 
ATOM     25  C   UNL     1       1.528   9.087  18.540  0.00  0.00    +0.000 C 
ENDBRANCH  19  20
ENDBRANCH   1  19
TORSDOF 5
ENDMDL
MODEL 8
REMARK VINA RESULT:      -8.1      1.194      1.603
REMARK  Name = 
REMARK  5 active torsions:
REMARK  status: ('A' for Active; 'I' for Inactive)
REMARK    1  A    between atoms: C_2  and  C_21
REMARK    2  A    between atoms: N_3  and  C_4
REMARK    3  A    between atoms: C_4  and  C_5
REMARK    4  A    between atoms: C_4  and  C_12
REMARK    5  A    between atoms: C_5  and  C_6
REMARK                            x       y       z     vdW  Elec       q    Type
REMARK                         _______ _______ _______ _____ _____    ______ ____
ROOT
ATOM      1  C   UNL     1       3.049   6.029  18.998  0.00  0.00    +0.000 C 
ENDROOT
BRANCH   1   2
ATOM      2  C   UNL     1       2.323   7.362  19.154  0.00  0.00    +0.000 A 
ATOM      3  C   UNL     1       2.199   8.227  18.038  0.00  0.00    +0.000 A 
ATOM      4  C   UNL     1       1.528   9.452  18.135  0.00  0.00    +0.000 A 
ATOM      5  C   UNL     1       0.997   9.797  19.357  0.00  0.00    +0.000 A 
ATOM      6  C   UNL     1       1.114   8.974  20.452  0.00  0.00    +0.000 A 
ATOM      7  C   UNL     1       1.765   7.758  20.385  0.00  0.00    +0.000 A 
ATOM      8  O   UNL     1       0.523   9.498  21.558  0.00  0.00    +0.000 OA
ATOM      9  C   UNL     1       0.028  10.749  21.036  0.00  0.00    +0.000 C 
ATOM     10  O   UNL     1       0.317  10.941  19.636  0.00  0.00    +0.000 OA
ENDBRANCH   1   2
BRANCH   1  13
ATOM     11  O   UNL     1       4.114   3.522  19.826  0.00  0.00    +0.000 OA
ATOM     12  C   UNL     1       2.943   3.787  20.103  0.00  0.00    +0.000 C 
ATOM     13  N   UNL     1       2.354   4.996  19.753  0.00  0.00    +0.000 N 
ATOM     14  H   UNL     1       1.398   5.166  20.045  0.00  0.00    +0.000 HD
BRANCH  12  15
ATOM     15  C   UNL     1       2.007   2.814  20.855  0.00  0.00    +0.000 C 
ATOM     16  F   UNL     1       1.665   1.740  20.082  0.00  0.00    +0.000 F 
ATOM     17  F   UNL     1       2.575   2.303  21.982  0.00  0.00    +0.000 F 
ATOM     18  F   UNL     1       0.836   3.395  21.234  0.00  0.00    +0.000 F 
ENDBRANCH  12  15
ENDBRANCH   1  13
BRANCH   1  19
ATOM     19  C   UNL     1       3.199   5.637  17.502  0.00  0.00    +0.000 C 
BRANCH  19  20
ATOM     20  C   UNL     1       4.629   5.453  17.015  0.00  0.00    +0.000 C 
ATOM     21  C   UNL     1       5.632   6.237  17.458  0.00  0.00    +0.000 C 
ATOM     22  C   UNL     1       7.059   6.100  17.008  0.00  0.00    +0.000 C 
ATOM     23  C   UNL     1       7.193   5.287  15.723  0.00  0.00    +0.000 C 
ATOM     24  C   UNL     1       6.370   4.009  15.814  0.00  0.00    +0.000 C 
ATOM     25  C   UNL     1       4.885   4.315  16.049  0.00  0.00    +0.000 C 
ENDBRANCH  19  20
ENDBRANCH   1  19
TORSDOF 5
ENDMDL
MODEL 9
REMARK VINA RESULT:      -8.1      3.143      4.891
REMARK  Name = 
REMARK  5 active torsions:
REMARK  status: ('A' for Active; 'I' for Inactive)
REMARK    1  A    between atoms: C_2  and  C_21
REMARK    2  A    between atoms: N_3  and  C_4
REMARK    3  A    between atoms: C_4  and  C_5
REMARK    4  A    between atoms: C_4  and  C_12
REMARK    5  A    between atoms: C_5  and  C_6
REMARK                            x       y       z     vdW  Elec       q    Type
REMARK                         _______ _______ _______ _____ _____    ______ ____
ROOT
ATOM      1  C   UNL     1       3.602   6.094  17.676  0.00  0.00    +0.000 C 
ENDROOT
BRANCH   1   2
ATOM      2  C   UNL     1       2.759   7.114  18.436  0.00  0.00    +0.000 A 
ATOM      3  C   UNL     1       2.479   6.905  19.810  0.00  0.00    +0.000 A 
ATOM      4  C   UNL     1       1.723   7.823  20.547  0.00  0.00    +0.000 A 
ATOM      5  C   UNL     1       1.248   8.937  19.892  0.00  0.00    +0.000 A 
ATOM      6  C   UNL     1       1.504   9.151  18.559  0.00  0.00    +0.000 A 
ATOM      7  C   UNL     1       2.251   8.266  17.807  0.00  0.00    +0.000 A 
ATOM      8  O   UNL     1       0.946  10.304  18.104  0.00  0.00    +0.000 OA
ATOM      9  C   UNL     1       0.304  10.787  19.303  0.00  0.00    +0.000 C 
ATOM     10  O   UNL     1       0.500   9.928  20.445  0.00  0.00    +0.000 OA
ENDBRANCH   1   2
BRANCH   1  13
ATOM     11  O   UNL     1       6.165   6.595  16.540  0.00  0.00    +0.000 OA
ATOM     12  C   UNL     1       6.103   6.180  17.699  0.00  0.00    +0.000 C 
ATOM     13  N   UNL     1       4.892   5.930  18.332  0.00  0.00    +0.000 N 
ATOM     14  H   UNL     1       4.911   5.626  19.300  0.00  0.00    +0.000 HD
BRANCH  12  15
ATOM     15  C   UNL     1       7.350   5.887  18.564  0.00  0.00    +0.000 C 
ATOM     16  F   UNL     1       7.015   5.620  19.862  0.00  0.00    +0.000 F 
ATOM     17  F   UNL     1       8.053   4.807  18.124  0.00  0.00    +0.000 F 
ATOM     18  F   UNL     1       8.220   6.932  18.605  0.00  0.00    +0.000 F 
ENDBRANCH  12  15
ENDBRANCH   1  13
BRANCH   1  19
ATOM     19  C   UNL     1       2.859   4.737  17.534  0.00  0.00    +0.000 C 
BRANCH  19  20
ATOM     20  C   UNL     1       2.586   4.002  18.839  0.00  0.00    +0.000 C 
ATOM     21  C   UNL     1       1.332   3.824  19.300  0.00  0.00    +0.000 C 
ATOM     22  C   UNL     1       1.008   3.110  20.581  0.00  0.00    +0.000 C 
ATOM     23  C   UNL     1       2.220   2.972  21.499  0.00  0.00    +0.000 C 
ATOM     24  C   UNL     1       3.427   2.475  20.714  0.00  0.00    +0.000 C 
ATOM     25  C   UNL     1       3.784   3.431  19.570  0.00  0.00    +0.000 C 
ENDBRANCH  19  20
ENDBRANCH   1  19
TORSDOF 5
ENDMDL
