MODEL 1
REMARK VINA RESULT:      -7.9      0.000      0.000
REMARK  Name = 
REMARK  4 active torsions:
REMARK  status: ('A' for Active; 'I' for Inactive)
REMARK    1  A    between atoms: C_2  and  C_3
REMARK    2  A    between atoms: C_4  and  C_5
REMARK    3  A    between atoms: C_6  and  C_7
REMARK    4  A    between atoms: C_11  and  O_12
REMARK                            x       y       z     vdW  Elec       q    Type
REMARK                         _______ _______ _______ _____ _____    ______ ____
ROOT
ATOM      1  C   UNL     1       3.006   3.441  19.378  0.00  0.00    +0.000 A 
ATOM      2  C   UNL     1       3.086   4.490  18.525  0.00  0.00    +0.000 A 
ATOM      3  C   UNL     1       2.552   5.784  19.005  0.00  0.00    +0.000 A 
ATOM      4  C   UNL     1       2.625   6.963  18.244  0.00  0.00    +0.000 A 
ATOM      5  C   UNL     1       2.155   8.171  18.762  0.00  0.00    +0.000 A 
ATOM      6 CL   UNL     1       2.298   9.610  17.830  0.00  0.00    +0.000 Cl
ATOM      7  C   UNL     1       1.584   8.224  20.032  0.00  0.00    +0.000 A 
ATOM      8  C   UNL     1       1.479   7.058  20.789  0.00  0.00    +0.000 A 
ATOM      9  C   UNL     1       1.966   5.859  20.267  0.00  0.00    +0.000 A 
ATOM     10  O   UNL     1       1.849   4.723  21.086  0.00  0.00    +0.000 OA
ATOM     11  C   UNL     1       2.361   3.493  20.697  0.00  0.00    +0.000 A 
ATOM     12  O   UNL     1       2.270   2.511  21.423  0.00  0.00    +0.000 OA
ENDROOT
BRANCH   1  14
ATOM     13  N   UNL     1       4.117   1.020  18.577  0.00  0.00    +0.000 NA
ATOM     14  C   UNL     1       3.613   2.118  18.940  0.00  0.00    +0.000 C 
ENDBRANCH   1  14
BRANCH   2  15
ATOM     15  C   UNL     1       3.753   4.405  17.209  0.00  0.00    +0.000 C 
ATOM     16  C   UNL     1       4.992   4.833  16.902  0.00  0.00    +0.000 C 
BRANCH  16  17
ATOM     17  C   UNL     1       5.639   4.617  15.589  0.00  0.00    +0.000 A 
ATOM     18  C   UNL     1       5.018   3.801  14.632  0.00  0.00    +0.000 A 
ATOM     19  C   UNL     1       5.582   3.635  13.356  0.00  0.00    +0.000 A 
ATOM     20  C   UNL     1       6.768   4.285  13.020  0.00  0.00    +0.000 A 
ATOM     21  C   UNL     1       7.379   5.100  13.964  0.00  0.00    +0.000 A 
ATOM     22  C   UNL     1       6.825   5.277  15.232  0.00  0.00    +0.000 A 
BRANCH  21  23
ATOM     23  O   UNL     1       8.540   5.762  13.683  0.00  0.00    +0.000 OA
ATOM     24  H   UNL     1       8.532   6.614  14.148  0.00  0.00    +0.000 HD
ENDBRANCH  21  23
ENDBRANCH  16  17
ENDBRANCH   2  15
TORSDOF 4
ENDMDL
MODEL 2
REMARK VINA RESULT:      -7.6      3.368      6.800
REMARK  Name = 
REMARK  4 active torsions:
REMARK  status: ('A' for Active; 'I' for Inactive)
REMARK    1  A    between atoms: C_2  and  C_3
REMARK    2  A    between atoms: C_4  and  C_5
REMARK    3  A    between atoms: C_6  and  C_7
REMARK    4  A    between atoms: C_11  and  O_12
REMARK                            x       y       z     vdW  Elec       q    Type
REMARK                         _______ _______ _______ _____ _____    ______ ____
ROOT
ATOM      1  C   UNL     1       5.608   5.804  17.216  0.00  0.00    +0.000 A 
ATOM      2  C   UNL     1       4.356   5.798  17.734  0.00  0.00    +0.000 A 
ATOM      3  C   UNL     1       3.669   4.489  17.803  0.00  0.00    +0.000 A 
ATOM      4  C   UNL     1       2.393   4.333  18.371  0.00  0.00    +0.000 A 
ATOM      5  C   UNL     1       1.807   3.069  18.462  0.00  0.00    +0.000 A 
ATOM      6 CL   UNL     1       0.264   2.898  19.203  0.00  0.00    +0.000 Cl
ATOM      7  C   UNL     1       2.468   1.944  17.972  0.00  0.00    +0.000 A 
ATOM      8  C   UNL     1       3.722   2.086  17.381  0.00  0.00    +0.000 A 
ATOM      9  C   UNL     1       4.305   3.352  17.309  0.00  0.00    +0.000 A 
ATOM     10  O   UNL     1       5.579   3.426  16.721  0.00  0.00    +0.000 OA
ATOM     11  C   UNL     1       6.280   4.622  16.658  0.00  0.00    +0.000 A 
ATOM     12  O   UNL     1       7.398   4.676  16.159  0.00  0.00    +0.000 OA
ENDROOT
BRANCH   1  14
ATOM     13  N   UNL     1       6.997   8.214  17.187  0.00  0.00    +0.000 NA
ATOM     14  C   UNL     1       6.367   7.121  17.200  0.00  0.00    +0.000 C 
ENDBRANCH   1  14
BRANCH   2  15
ATOM     15  C   UNL     1       3.716   7.003  18.297  0.00  0.00    +0.000 C 
ATOM     16  C   UNL     1       2.596   7.606  17.853  0.00  0.00    +0.000 C 
BRANCH  16  17
ATOM     17  C   UNL     1       1.949   8.749  18.532  0.00  0.00    +0.000 A 
ATOM     18  C   UNL     1       1.416   8.585  19.819  0.00  0.00    +0.000 A 
ATOM     19  C   UNL     1       0.856   9.673  20.509  0.00  0.00    +0.000 A 
ATOM     20  C   UNL     1       0.824  10.938  19.923  0.00  0.00    +0.000 A 
ATOM     21  C   UNL     1       1.359  11.104  18.652  0.00  0.00    +0.000 A 
ATOM     22  C   UNL     1       1.924  10.031  17.961  0.00  0.00    +0.000 A 
BRANCH  21  23
ATOM     23  O   UNL     1       1.357  12.322  18.036  0.00  0.00    +0.000 OA
ATOM     24  H   UNL     1       1.489  13.010  18.707  0.00  0.00    +0.000 HD
ENDBRANCH  21  23
ENDBRANCH  16  17
ENDBRANCH   2  15
TORSDOF 4
ENDMDL
MODEL 3
REMARK VINA RESULT:      -7.5      3.297      6.952
REMARK  Name = 
REMARK  4 active torsions:
REMARK  status: ('A' for Active; 'I' for Inactive)
REMARK    1  A    between atoms: C_2  and  C_3
REMARK    2  A    between atoms: C_4  and  C_5
REMARK    3  A    between atoms: C_6  and  C_7
REMARK    4  A    between atoms: C_11  and  O_12
REMARK                            x       y       z     vdW  Elec       q    Type
REMARK                         _______ _______ _______ _____ _____    ______ ____
ROOT
ATOM      1  C   UNL     1       5.647   5.803  17.199  0.00  0.00    +0.000 A 
ATOM      2  C   UNL     1       4.401   5.792  17.732  0.00  0.00    +0.000 A 
ATOM      3  C   UNL     1       3.711   4.484  17.790  0.00  0.00    +0.000 A 
ATOM      4  C   UNL     1       2.441   4.323  18.371  0.00  0.00    +0.000 A 
ATOM      5  C   UNL     1       1.853   3.060  18.450  0.00  0.00    +0.000 A 
ATOM      6 CL   UNL     1       0.319   2.882  19.206  0.00  0.00    +0.000 Cl
ATOM      7  C   UNL     1       2.505   1.940  17.936  0.00  0.00    +0.000 A 
ATOM      8  C   UNL     1       3.753   2.087  17.333  0.00  0.00    +0.000 A 
ATOM      9  C   UNL     1       4.338   3.353  17.272  0.00  0.00    +0.000 A 
ATOM     10  O   UNL     1       5.605   3.432  16.671  0.00  0.00    +0.000 OA
ATOM     11  C   UNL     1       6.310   4.627  16.617  0.00  0.00    +0.000 A 
ATOM     12  O   UNL     1       7.421   4.685  16.106  0.00  0.00    +0.000 OA
ENDROOT
BRANCH   1  14
ATOM     13  N   UNL     1       7.042   8.209  17.188  0.00  0.00    +0.000 NA
ATOM     14  C   UNL     1       6.409   7.118  17.193  0.00  0.00    +0.000 C 
ENDBRANCH   1  14
BRANCH   2  15
ATOM     15  C   UNL     1       3.771   6.991  18.319  0.00  0.00    +0.000 C 
ATOM     16  C   UNL     1       2.590   7.537  17.969  0.00  0.00    +0.000 C 
BRANCH  16  17
ATOM     17  C   UNL     1       1.966   8.677  18.674  0.00  0.00    +0.000 A 
ATOM     18  C   UNL     1       1.811   9.906  18.015  0.00  0.00    +0.000 A 
ATOM     19  C   UNL     1       1.161  10.981  18.644  0.00  0.00    +0.000 A 
ATOM     20  C   UNL     1       0.657  10.841  19.936  0.00  0.00    +0.000 A 
ATOM     21  C   UNL     1       0.803   9.623  20.587  0.00  0.00    +0.000 A 
ATOM     22  C   UNL     1       1.441   8.547  19.969  0.00  0.00    +0.000 A 
BRANCH  21  23
ATOM     23  O   UNL     1       0.324   9.433  21.851  0.00  0.00    +0.000 OA
ATOM     24  H   UNL     1      -0.300   8.690  21.839  0.00  0.00    +0.000 HD
ENDBRANCH  21  23
ENDBRANCH  16  17
ENDBRANCH   2  15
TORSDOF 4
ENDMDL
MODEL 4
REMARK VINA RESULT:      -7.5      0.998      1.402
REMARK  Name = 
REMARK  4 active torsions:
REMARK  status: ('A' for Active; 'I' for Inactive)
REMARK    1  A    between atoms: C_2  and  C_3
REMARK    2  A    between atoms: C_4  and  C_5
REMARK    3  A    between atoms: C_6  and  C_7
REMARK    4  A    between atoms: C_11  and  O_12
REMARK                            x       y       z     vdW  Elec       q    Type
REMARK                         _______ _______ _______ _____ _____    ______ ____
ROOT
ATOM      1  C   UNL     1       2.965   3.506  19.312  0.00  0.00    +0.000 A 
ATOM      2  C   UNL     1       3.036   4.568  18.473  0.00  0.00    +0.000 A 
ATOM      3  C   UNL     1       2.511   5.856  18.979  0.00  0.00    +0.000 A 
ATOM      4  C   UNL     1       2.577   7.045  18.233  0.00  0.00    +0.000 A 
ATOM      5  C   UNL     1       2.116   8.247  18.774  0.00  0.00    +0.000 A 
ATOM      6 CL   UNL     1       2.250   9.698  17.861  0.00  0.00    +0.000 Cl
ATOM      7  C   UNL     1       1.563   8.283  20.053  0.00  0.00    +0.000 A 
ATOM      8  C   UNL     1       1.465   7.107  20.794  0.00  0.00    +0.000 A 
ATOM      9  C   UNL     1       1.942   5.914  20.249  0.00  0.00    +0.000 A 
ATOM     10  O   UNL     1       1.834   4.767  21.053  0.00  0.00    +0.000 OA
ATOM     11  C   UNL     1       2.338   3.541  20.641  0.00  0.00    +0.000 A 
ATOM     12  O   UNL     1       2.255   2.549  21.354  0.00  0.00    +0.000 OA
ENDROOT
BRANCH   1  14
ATOM     13  N   UNL     1       4.060   1.095  18.463  0.00  0.00    +0.000 NA
ATOM     14  C   UNL     1       3.563   2.188  18.848  0.00  0.00    +0.000 C 
ENDBRANCH   1  14
BRANCH   2  15
ATOM     15  C   UNL     1       3.685   4.500  17.147  0.00  0.00    +0.000 C 
ATOM     16  C   UNL     1       4.913   4.949  16.825  0.00  0.00    +0.000 C 
BRANCH  16  17
ATOM     17  C   UNL     1       5.543   4.750  15.502  0.00  0.00    +0.000 A 
ATOM     18  C   UNL     1       6.889   5.096  15.311  0.00  0.00    +0.000 A 
ATOM     19  C   UNL     1       7.526   4.854  14.082  0.00  0.00    +0.000 A 
ATOM     20  C   UNL     1       6.828   4.260  13.032  0.00  0.00    +0.000 A 
ATOM     21  C   UNL     1       5.497   3.909  13.222  0.00  0.00    +0.000 A 
ATOM     22  C   UNL     1       4.857   4.139  14.440  0.00  0.00    +0.000 A 
BRANCH  21  23
ATOM     23  O   UNL     1       4.770   3.321  12.227  0.00  0.00    +0.000 OA
ATOM     24  H   UNL     1       3.833   3.332  12.478  0.00  0.00    +0.000 HD
ENDBRANCH  21  23
ENDBRANCH  16  17
ENDBRANCH   2  15
TORSDOF 4
ENDMDL
MODEL 5
REMARK VINA RESULT:      -7.4      2.878      6.659
REMARK  Name = 
REMARK  4 active torsions:
REMARK  status: ('A' for Active; 'I' for Inactive)
REMARK    1  A    between atoms: C_2  and  C_3
REMARK    2  A    between atoms: C_4  and  C_5
REMARK    3  A    between atoms: C_6  and  C_7
REMARK    4  A    between atoms: C_11  and  O_12
REMARK                            x       y       z     vdW  Elec       q    Type
REMARK                         _______ _______ _______ _____ _____    ______ ____
ROOT
ATOM      1  C   UNL     1       2.953   3.946  18.539  0.00  0.00    +0.000 A 
ATOM      2  C   UNL     1       3.564   5.143  18.714  0.00  0.00    +0.000 A 
ATOM      3  C   UNL     1       4.849   5.346  18.010  0.00  0.00    +0.000 A 
ATOM      4  C   UNL     1       5.556   6.560  18.059  0.00  0.00    +0.000 A 
ATOM      5  C   UNL     1       6.738   6.723  17.335  0.00  0.00    +0.000 A 
ATOM      6 CL   UNL     1       7.560   8.233  17.375  0.00  0.00    +0.000 Cl
ATOM      7  C   UNL     1       7.249   5.677  16.567  0.00  0.00    +0.000 A 
ATOM      8  C   UNL     1       6.574   4.458  16.529  0.00  0.00    +0.000 A 
ATOM      9  C   UNL     1       5.385   4.312  17.246  0.00  0.00    +0.000 A 
ATOM     10  O   UNL     1       4.742   3.067  17.151  0.00  0.00    +0.000 OA
ATOM     11  C   UNL     1       3.521   2.832  17.766  0.00  0.00    +0.000 A 
ATOM     12  O   UNL     1       2.957   1.749  17.665  0.00  0.00    +0.000 OA
ENDROOT
BRANCH   1  14
ATOM     13  N   UNL     1       0.471   3.560  19.731  0.00  0.00    +0.000 NA
ATOM     14  C   UNL     1       1.596   3.735  19.191  0.00  0.00    +0.000 C 
ENDBRANCH   1  14
BRANCH   2  15
ATOM     15  C   UNL     1       2.959   6.245  19.489  0.00  0.00    +0.000 C 
ATOM     16  C   UNL     1       2.291   7.306  18.997  0.00  0.00    +0.000 C 
BRANCH  16  17
ATOM     17  C   UNL     1       1.616   8.318  19.838  0.00  0.00    +0.000 A 
ATOM     18  C   UNL     1       1.474   8.099  21.216  0.00  0.00    +0.000 A 
ATOM     19  C   UNL     1       0.895   9.075  22.044  0.00  0.00    +0.000 A 
ATOM     20  C   UNL     1       0.455  10.284  21.506  0.00  0.00    +0.000 A 
ATOM     21  C   UNL     1       0.602  10.506  20.142  0.00  0.00    +0.000 A 
ATOM     22  C   UNL     1       1.181   9.545  19.312  0.00  0.00    +0.000 A 
BRANCH  21  23
ATOM     23  O   UNL     1       0.191  11.674  19.567  0.00  0.00    +0.000 OA
ATOM     24  H   UNL     1      -0.507  12.063  20.117  0.00  0.00    +0.000 HD
ENDBRANCH  21  23
ENDBRANCH  16  17
ENDBRANCH   2  15
TORSDOF 4
ENDMDL
MODEL 6
REMARK VINA RESULT:      -7.3      2.798      6.708
REMARK  Name = 
REMARK  4 active torsions:
REMARK  status: ('A' for Active; 'I' for Inactive)
REMARK    1  A    between atoms: C_2  and  C_3
REMARK    2  A    between atoms: C_4  and  C_5
REMARK    3  A    between atoms: C_6  and  C_7
REMARK    4  A    between atoms: C_11  and  O_12
REMARK                            x       y       z     vdW  Elec       q    Type
REMARK                         _______ _______ _______ _____ _____    ______ ____
ROOT
ATOM      1  C   UNL     1       2.902   4.018  18.592  0.00  0.00    +0.000 A 
ATOM      2  C   UNL     1       3.522   5.215  18.725  0.00  0.00    +0.000 A 
ATOM      3  C   UNL     1       4.820   5.375  18.031  0.00  0.00    +0.000 A 
ATOM      4  C   UNL     1       5.538   6.583  18.039  0.00  0.00    +0.000 A 
ATOM      5  C   UNL     1       6.732   6.702  17.325  0.00  0.00    +0.000 A 
ATOM      6 CL   UNL     1       7.569   8.205  17.312  0.00  0.00    +0.000 Cl
ATOM      7  C   UNL     1       7.243   5.620  16.612  0.00  0.00    +0.000 A 
ATOM      8  C   UNL     1       6.557   4.407  16.617  0.00  0.00    +0.000 A 
ATOM      9  C   UNL     1       5.356   4.303  17.321  0.00  0.00    +0.000 A 
ATOM     10  O   UNL     1       4.702   3.061  17.271  0.00  0.00    +0.000 OA
ATOM     11  C   UNL     1       3.469   2.865  17.877  0.00  0.00    +0.000 A 
ATOM     12  O   UNL     1       2.896   1.785  17.815  0.00  0.00    +0.000 OA
ENDROOT
BRANCH   1  14
ATOM     13  N   UNL     1       0.399   3.708  19.763  0.00  0.00    +0.000 NA
ATOM     14  C   UNL     1       1.534   3.848  19.232  0.00  0.00    +0.000 C 
ENDBRANCH   1  14
BRANCH   2  15
ATOM     15  C   UNL     1       2.918   6.356  19.441  0.00  0.00    +0.000 C 
ATOM     16  C   UNL     1       2.329   7.435  18.891  0.00  0.00    +0.000 C 
BRANCH  16  17
ATOM     17  C   UNL     1       1.646   8.490  19.671  0.00  0.00    +0.000 A 
ATOM     18  C   UNL     1       0.974   9.526  19.006  0.00  0.00    +0.000 A 
ATOM     19  C   UNL     1       0.263  10.500  19.726  0.00  0.00    +0.000 A 
ATOM     20  C   UNL     1       0.212  10.450  21.118  0.00  0.00    +0.000 A 
ATOM     21  C   UNL     1       0.871   9.421  21.778  0.00  0.00    +0.000 A 
ATOM     22  C   UNL     1       1.574   8.444  21.072  0.00  0.00    +0.000 A 
BRANCH  21  23
ATOM     23  O   UNL     1       0.849   9.325  23.140  0.00  0.00    +0.000 OA
ATOM     24  H   UNL     1       1.596   9.829  23.500  0.00  0.00    +0.000 HD
ENDBRANCH  21  23
ENDBRANCH  16  17
ENDBRANCH   2  15
TORSDOF 4
ENDMDL
MODEL 7
REMARK VINA RESULT:      -6.8      3.323      6.671
REMARK  Name = 
REMARK  4 active torsions:
REMARK  status: ('A' for Active; 'I' for Inactive)
REMARK    1  A    between atoms: C_2  and  C_3
REMARK    2  A    between atoms: C_4  and  C_5
REMARK    3  A    between atoms: C_6  and  C_7
REMARK    4  A    between atoms: C_11  and  O_12
REMARK                            x       y       z     vdW  Elec       q    Type
REMARK                         _______ _______ _______ _____ _____    ______ ____
ROOT
ATOM      1  C   UNL     1       4.559   5.143  16.843  0.00  0.00    +0.000 A 
ATOM      2  C   UNL     1       3.688   5.267  17.874  0.00  0.00    +0.000 A 
ATOM      3  C   UNL     1       3.246   4.016  18.530  0.00  0.00    +0.000 A 
ATOM      4  C   UNL     1       2.391   4.007  19.645  0.00  0.00    +0.000 A 
ATOM      5  C   UNL     1       2.045   2.804  20.262  0.00  0.00    +0.000 A 
ATOM      6 CL   UNL     1       1.035   2.822  21.655  0.00  0.00    +0.000 Cl
ATOM      7  C   UNL     1       2.522   1.591  19.770  0.00  0.00    +0.000 A 
ATOM      8  C   UNL     1       3.348   1.581  18.647  0.00  0.00    +0.000 A 
ATOM      9  C   UNL     1       3.700   2.791  18.047  0.00  0.00    +0.000 A 
ATOM     10  O   UNL     1       4.552   2.716  16.933  0.00  0.00    +0.000 OA
ATOM     11  C   UNL     1       5.021   3.858  16.300  0.00  0.00    +0.000 A 
ATOM     12  O   UNL     1       5.776   3.786  15.338  0.00  0.00    +0.000 OA
ENDROOT
BRANCH   1  14
ATOM     13  N   UNL     1       5.525   7.469  15.664  0.00  0.00    +0.000 NA
ATOM     14  C   UNL     1       5.087   6.414  16.199  0.00  0.00    +0.000 C 
ENDBRANCH   1  14
BRANCH   2  15
ATOM     15  C   UNL     1       3.253   6.576  18.403  0.00  0.00    +0.000 C 
ATOM     16  C   UNL     1       2.186   7.294  18.005  0.00  0.00    +0.000 C 
BRANCH  16  17
ATOM     17  C   UNL     1       1.746   8.548  18.655  0.00  0.00    +0.000 A 
ATOM     18  C   UNL     1       1.323   8.530  19.992  0.00  0.00    +0.000 A 
ATOM     19  C   UNL     1       0.964   9.720  20.648  0.00  0.00    +0.000 A 
ATOM     20  C   UNL     1       1.027  10.941  19.978  0.00  0.00    +0.000 A 
ATOM     21  C   UNL     1       1.454  10.961  18.656  0.00  0.00    +0.000 A 
ATOM     22  C   UNL     1       1.819   9.786  17.997  0.00  0.00    +0.000 A 
BRANCH  21  23
ATOM     23  O   UNL     1       1.537  12.130  17.956  0.00  0.00    +0.000 OA
ATOM     24  H   UNL     1       1.879  11.938  17.068  0.00  0.00    +0.000 HD
ENDBRANCH  21  23
ENDBRANCH  16  17
ENDBRANCH   2  15
TORSDOF 4
ENDMDL
MODEL 8
REMARK VINA RESULT:      -6.8      3.217      6.837
REMARK  Name = 
REMARK  4 active torsions:
REMARK  status: ('A' for Active; 'I' for Inactive)
REMARK    1  A    between atoms: C_2  and  C_3
REMARK    2  A    between atoms: C_4  and  C_5
REMARK    3  A    between atoms: C_6  and  C_7
REMARK    4  A    between atoms: C_11  and  O_12
REMARK                            x       y       z     vdW  Elec       q    Type
REMARK                         _______ _______ _______ _____ _____    ______ ____
ROOT
ATOM      1  C   UNL     1       4.601   5.134  16.864  0.00  0.00    +0.000 A 
ATOM      2  C   UNL     1       3.734   5.256  17.898  0.00  0.00    +0.000 A 
ATOM      3  C   UNL     1       3.275   4.002  18.536  0.00  0.00    +0.000 A 
ATOM      4  C   UNL     1       2.423   3.988  19.653  0.00  0.00    +0.000 A 
ATOM      5  C   UNL     1       2.060   2.782  20.253  0.00  0.00    +0.000 A 
ATOM      6 CL   UNL     1       1.053   2.793  21.648  0.00  0.00    +0.000 Cl
ATOM      7  C   UNL     1       2.518   1.569  19.741  0.00  0.00    +0.000 A 
ATOM      8  C   UNL     1       3.342   1.564  18.618  0.00  0.00    +0.000 A 
ATOM      9  C   UNL     1       3.711   2.777  18.035  0.00  0.00    +0.000 A 
ATOM     10  O   UNL     1       4.559   2.706  16.917  0.00  0.00    +0.000 OA
ATOM     11  C   UNL     1       5.044   3.851  16.300  0.00  0.00    +0.000 A 
ATOM     12  O   UNL     1       5.797   3.782  15.336  0.00  0.00    +0.000 OA
ENDROOT
BRANCH   1  14
ATOM     13  N   UNL     1       5.599   7.463  15.717  0.00  0.00    +0.000 NA
ATOM     14  C   UNL     1       5.147   6.407  16.237  0.00  0.00    +0.000 C 
ENDBRANCH   1  14
BRANCH   2  15
ATOM     15  C   UNL     1       3.320   6.563  18.447  0.00  0.00    +0.000 C 
ATOM     16  C   UNL     1       2.227   7.273  18.106  0.00  0.00    +0.000 C 
BRANCH  16  17
ATOM     17  C   UNL     1       1.814   8.525  18.776  0.00  0.00    +0.000 A 
ATOM     18  C   UNL     1       1.769   9.723  18.048  0.00  0.00    +0.000 A 
ATOM     19  C   UNL     1       1.317  10.911  18.647  0.00  0.00    +0.000 A 
ATOM     20  C   UNL     1       0.901  10.915  19.978  0.00  0.00    +0.000 A 
ATOM     21  C   UNL     1       0.937   9.727  20.697  0.00  0.00    +0.000 A 
ATOM     22  C   UNL     1       1.379   8.541  20.110  0.00  0.00    +0.000 A 
BRANCH  21  23
ATOM     23  O   UNL     1       0.537   9.676  22.002  0.00  0.00    +0.000 OA
ATOM     24  H   UNL     1       1.168   9.131  22.500  0.00  0.00    +0.000 HD
ENDBRANCH  21  23
ENDBRANCH  16  17
ENDBRANCH   2  15
TORSDOF 4
ENDMDL
MODEL 9
REMARK VINA RESULT:      -6.8      3.175      6.565
REMARK  Name = 
REMARK  4 active torsions:
REMARK  status: ('A' for Active; 'I' for Inactive)
REMARK    1  A    between atoms: C_2  and  C_3
REMARK    2  A    between atoms: C_4  and  C_5
REMARK    3  A    between atoms: C_6  and  C_7
REMARK    4  A    between atoms: C_11  and  O_12
REMARK                            x       y       z     vdW  Elec       q    Type
REMARK                         _______ _______ _______ _____ _____    ______ ____
ROOT
ATOM      1  C   UNL     1       3.195   4.091  19.156  0.00  0.00    +0.000 A 
ATOM      2  C   UNL     1       3.585   5.361  18.888  0.00  0.00    +0.000 A 
ATOM      3  C   UNL     1       5.007   5.561  18.529  0.00  0.00    +0.000 A 
ATOM      4  C   UNL     1       5.528   6.817  18.173  0.00  0.00    +0.000 A 
ATOM      5  C   UNL     1       6.863   6.947  17.791  0.00  0.00    +0.000 A 
ATOM      6 CL   UNL     1       7.467   8.486  17.314  0.00  0.00    +0.000 Cl
ATOM      7  C   UNL     1       7.709   5.839  17.777  0.00  0.00    +0.000 A 
ATOM      8  C   UNL     1       7.214   4.592  18.154  0.00  0.00    +0.000 A 
ATOM      9  C   UNL     1       5.873   4.470  18.520  0.00  0.00    +0.000 A 
ATOM     10  O   UNL     1       5.430   3.184  18.870  0.00  0.00    +0.000 OA
ATOM     11  C   UNL     1       4.101   2.935  19.185  0.00  0.00    +0.000 A 
ATOM     12  O   UNL     1       3.719   1.807  19.473  0.00  0.00    +0.000 OA
ENDROOT
BRANCH   1  14
ATOM     13  N   UNL     1       0.506   3.639  19.703  0.00  0.00    +0.000 NA
ATOM     14  C   UNL     1       1.725   3.844  19.455  0.00  0.00    +0.000 C 
ENDBRANCH   1  14
BRANCH   2  15
ATOM     15  C   UNL     1       2.643   6.499  18.856  0.00  0.00    +0.000 C 
ATOM     16  C   UNL     1       2.338   7.324  19.876  0.00  0.00    +0.000 C 
BRANCH  16  17
ATOM     17  C   UNL     1       1.468   8.512  19.744  0.00  0.00    +0.000 A 
ATOM     18  C   UNL     1       1.278   9.101  18.486  0.00  0.00    +0.000 A 
ATOM     19  C   UNL     1       0.403  10.190  18.327  0.00  0.00    +0.000 A 
ATOM     20  C   UNL     1      -0.294  10.699  19.421  0.00  0.00    +0.000 A 
ATOM     21  C   UNL     1      -0.112  10.111  20.667  0.00  0.00    +0.000 A 
ATOM     22  C   UNL     1       0.749   9.026  20.834  0.00  0.00    +0.000 A 
BRANCH  21  23
ATOM     23  O   UNL     1      -0.774  10.570  21.769  0.00  0.00    +0.000 OA
ATOM     24  H   UNL     1      -0.407  11.433  22.016  0.00  0.00    +0.000 HD
ENDBRANCH  21  23
ENDBRANCH  16  17
ENDBRANCH   2  15
TORSDOF 4
ENDMDL
