MODEL 1
REMARK VINA RESULT:      -8.3      0.000      0.000
REMARK  Name = 
REMARK  5 active torsions:
REMARK  status: ('A' for Active; 'I' for Inactive)
REMARK    1  A    between atoms: C_1  and  C_2
REMARK    2  A    between atoms: C_8  and  C_9
REMARK    3  A    between atoms: C_9  and  O_10
REMARK    4  A    between atoms: C_17  and  O_18
REMARK    5  A    between atoms: O_18  and  C_19
REMARK                            x       y       z     vdW  Elec       q    Type
REMARK                         _______ _______ _______ _____ _____    ______ ____
ROOT
ATOM      1  C   UNL     1       3.855   3.740  18.469  0.00  0.00    +0.000 C 
ATOM      2  C   UNL     1       3.225   3.229  17.149  0.00  0.00    +0.000 C 
ATOM      3  O   UNL     1       2.146   2.682  16.991  0.00  0.00    +0.000 OA
ATOM      4  N   UNL     1       4.212   3.368  16.160  0.00  0.00    +0.000 N 
ATOM      5  C   UNL     1       5.282   4.119  16.631  0.00  0.00    +0.000 A 
ATOM      6  C   UNL     1       6.412   4.500  15.941  0.00  0.00    +0.000 A 
ATOM      7  C   UNL     1       7.298   5.375  16.581  0.00  0.00    +0.000 A 
ATOM      8  C   UNL     1       7.012   5.885  17.858  0.00  0.00    +0.000 A 
ATOM      9  C   UNL     1       5.912   5.396  18.571  0.00  0.00    +0.000 A 
ATOM     10  C   UNL     1       5.056   4.496  17.954  0.00  0.00    +0.000 A 
ATOM     11  H   UNL     1       4.112   3.011  15.223  0.00  0.00    +0.000 HD
ENDROOT
BRANCH   1  19
ATOM     12  C   UNL     1       1.992   9.335  17.603  0.00  0.00    +0.000 C 
ATOM     13  C   UNL     1       2.025   8.253  18.644  0.00  0.00    +0.000 A 
ATOM     14  C   UNL     1       1.556   8.530  19.930  0.00  0.00    +0.000 A 
ATOM     15  C   UNL     1       1.579   7.559  20.927  0.00  0.00    +0.000 A 
ATOM     16  C   UNL     1       2.099   6.300  20.599  0.00  0.00    +0.000 A 
ATOM     17  N   UNL     1       2.225   5.204  21.413  0.00  0.00    +0.000 N 
ATOM     18  C   UNL     1       2.807   4.189  20.718  0.00  0.00    +0.000 A 
ATOM     19  C   UNL     1       3.101   4.614  19.425  0.00  0.00    +0.000 A 
ATOM     20  C   UNL     1       2.603   5.969  19.337  0.00  0.00    +0.000 A 
ATOM     21  C   UNL     1       2.545   6.972  18.338  0.00  0.00    +0.000 A 
ATOM     22  H   UNL     1       1.955   5.170  22.381  0.00  0.00    +0.000 HD
ENDBRANCH   1  19
BRANCH   1  23
ATOM     23  O   UNL     1       4.353   2.561  19.130  0.00  0.00    +0.000 OA
ATOM     24  H   UNL     1       4.840   2.079  18.439  0.00  0.00    +0.000 HD
ENDBRANCH   1  23
BRANCH   8  25
ATOM     25  O   UNL     1       7.765   6.795  18.536  0.00  0.00    +0.000 OA
BRANCH  25  26
ATOM     26  C   UNL     1       7.942   8.099  18.001  0.00  0.00    +0.000 C 
ATOM     27  F   UNL     1       8.674   8.932  18.772  0.00  0.00    +0.000 F 
ATOM     28  F   UNL     1       8.558   8.001  16.801  0.00  0.00    +0.000 F 
ATOM     29  F   UNL     1       6.728   8.656  17.805  0.00  0.00    +0.000 F 
ENDBRANCH  25  26
ENDBRANCH   8  25
TORSDOF 4
ENDMDL
MODEL 2
REMARK VINA RESULT:      -8.2      2.582      5.667
REMARK  Name = 
REMARK  5 active torsions:
REMARK  status: ('A' for Active; 'I' for Inactive)
REMARK    1  A    between atoms: C_1  and  C_2
REMARK    2  A    between atoms: C_8  and  C_9
REMARK    3  A    between atoms: C_9  and  O_10
REMARK    4  A    between atoms: C_17  and  O_18
REMARK    5  A    between atoms: O_18  and  C_19
REMARK                            x       y       z     vdW  Elec       q    Type
REMARK                         _______ _______ _______ _____ _____    ______ ____
ROOT
ATOM      1  C   UNL     1       3.511   3.510  17.830  0.00  0.00    +0.000 C 
ATOM      2  C   UNL     1       3.478   2.272  18.760  0.00  0.00    +0.000 C 
ATOM      3  O   UNL     1       3.976   1.174  18.572  0.00  0.00    +0.000 OA
ATOM      4  N   UNL     1       2.614   2.594  19.819  0.00  0.00    +0.000 N 
ATOM      5  C   UNL     1       2.297   3.948  19.803  0.00  0.00    +0.000 A 
ATOM      6  C   UNL     1       1.516   4.640  20.703  0.00  0.00    +0.000 A 
ATOM      7  C   UNL     1       1.447   6.032  20.564  0.00  0.00    +0.000 A 
ATOM      8  C   UNL     1       2.192   6.697  19.576  0.00  0.00    +0.000 A 
ATOM      9  C   UNL     1       2.891   5.956  18.617  0.00  0.00    +0.000 A 
ATOM     10  C   UNL     1       2.926   4.574  18.728  0.00  0.00    +0.000 A 
ATOM     11  H   UNL     1       2.320   1.931  20.518  0.00  0.00    +0.000 HD
ENDROOT
BRANCH   1  19
ATOM     12  C   UNL     1       5.070   3.585  12.078  0.00  0.00    +0.000 C 
ATOM     13  C   UNL     1       5.591   3.931  13.443  0.00  0.00    +0.000 A 
ATOM     14  C   UNL     1       6.911   4.366  13.579  0.00  0.00    +0.000 A 
ATOM     15  C   UNL     1       7.437   4.687  14.828  0.00  0.00    +0.000 A 
ATOM     16  C   UNL     1       6.600   4.545  15.942  0.00  0.00    +0.000 A 
ATOM     17  N   UNL     1       6.901   4.793  17.257  0.00  0.00    +0.000 N 
ATOM     18  C   UNL     1       5.821   4.501  18.031  0.00  0.00    +0.000 A 
ATOM     19  C   UNL     1       4.786   4.023  17.232  0.00  0.00    +0.000 A 
ATOM     20  C   UNL     1       5.278   4.093  15.873  0.00  0.00    +0.000 A 
ATOM     21  C   UNL     1       4.765   3.796  14.586  0.00  0.00    +0.000 A 
ATOM     22  H   UNL     1       7.792   5.114  17.594  0.00  0.00    +0.000 HD
ENDBRANCH   1  19
BRANCH   1  23
ATOM     23  O   UNL     1       2.534   3.239  16.807  0.00  0.00    +0.000 OA
ATOM     24  H   UNL     1       3.015   3.363  15.970  0.00  0.00    +0.000 HD
ENDBRANCH   1  23
BRANCH   8  25
ATOM     25  O   UNL     1       2.255   8.046  19.403  0.00  0.00    +0.000 OA
BRANCH  25  26
ATOM     26  C   UNL     1       2.147   8.593  18.097  0.00  0.00    +0.000 C 
ATOM     27  F   UNL     1       3.101   8.185  17.232  0.00  0.00    +0.000 F 
ATOM     28  F   UNL     1       0.946   8.252  17.576  0.00  0.00    +0.000 F 
ATOM     29  F   UNL     1       2.199   9.939  18.185  0.00  0.00    +0.000 F 
ENDBRANCH  25  26
ENDBRANCH   8  25
TORSDOF 4
ENDMDL
MODEL 3
REMARK VINA RESULT:      -8.1      2.894      5.911
REMARK  Name = 
REMARK  5 active torsions:
REMARK  status: ('A' for Active; 'I' for Inactive)
REMARK    1  A    between atoms: C_1  and  C_2
REMARK    2  A    between atoms: C_8  and  C_9
REMARK    3  A    between atoms: C_9  and  O_10
REMARK    4  A    between atoms: C_17  and  O_18
REMARK    5  A    between atoms: O_18  and  C_19
REMARK                            x       y       z     vdW  Elec       q    Type
REMARK                         _______ _______ _______ _____ _____    ______ ____
ROOT
ATOM      1  C   UNL     1       4.124   4.118  17.957  0.00  0.00    +0.000 C 
ATOM      2  C   UNL     1       4.238   3.270  19.249  0.00  0.00    +0.000 C 
ATOM      3  O   UNL     1       4.829   2.215  19.408  0.00  0.00    +0.000 OA
ATOM      4  N   UNL     1       3.385   3.867  20.191  0.00  0.00    +0.000 N 
ATOM      5  C   UNL     1       2.943   5.106  19.742  0.00  0.00    +0.000 A 
ATOM      6  C   UNL     1       2.132   6.001  20.405  0.00  0.00    +0.000 A 
ATOM      7  C   UNL     1       1.929   7.254  19.813  0.00  0.00    +0.000 A 
ATOM      8  C   UNL     1       2.576   7.598  18.614  0.00  0.00    +0.000 A 
ATOM      9  C   UNL     1       3.307   6.631  17.916  0.00  0.00    +0.000 A 
ATOM     10  C   UNL     1       3.474   5.375  18.481  0.00  0.00    +0.000 A 
ATOM     11  H   UNL     1       3.178   3.459  21.089  0.00  0.00    +0.000 HD
ENDROOT
BRANCH   1  19
ATOM     12  C   UNL     1       4.883   3.485  12.079  0.00  0.00    +0.000 C 
ATOM     13  C   UNL     1       5.600   3.947  13.316  0.00  0.00    +0.000 A 
ATOM     14  C   UNL     1       6.942   4.322  13.226  0.00  0.00    +0.000 A 
ATOM     15  C   UNL     1       7.646   4.746  14.350  0.00  0.00    +0.000 A 
ATOM     16  C   UNL     1       6.964   4.771  15.574  0.00  0.00    +0.000 A 
ATOM     17  N   UNL     1       7.452   5.143  16.800  0.00  0.00    +0.000 N 
ATOM     18  C   UNL     1       6.478   4.996  17.738  0.00  0.00    +0.000 A 
ATOM     19  C   UNL     1       5.325   4.493  17.142  0.00  0.00    +0.000 A 
ATOM     20  C   UNL     1       5.628   4.388  15.731  0.00  0.00    +0.000 A 
ATOM     21  C   UNL     1       4.933   3.982  14.565  0.00  0.00    +0.000 A 
ATOM     22  H   UNL     1       8.393   5.449  16.978  0.00  0.00    +0.000 HD
ENDBRANCH   1  19
BRANCH   1  23
ATOM     23  O   UNL     1       3.142   3.442  17.149  0.00  0.00    +0.000 OA
ATOM     24  H   UNL     1       2.394   3.285  17.752  0.00  0.00    +0.000 HD
ENDBRANCH   1  23
BRANCH   8  25
ATOM     25  O   UNL     1       2.507   8.809  17.995  0.00  0.00    +0.000 OA
BRANCH  25  26
ATOM     26  C   UNL     1       1.448   9.702  18.311  0.00  0.00    +0.000 C 
ATOM     27  F   UNL     1       1.155   9.788  19.627  0.00  0.00    +0.000 F 
ATOM     28  F   UNL     1       1.777  10.942  17.882  0.00  0.00    +0.000 F 
ATOM     29  F   UNL     1       0.339   9.309  17.651  0.00  0.00    +0.000 F 
ENDBRANCH  25  26
ENDBRANCH   8  25
TORSDOF 4
ENDMDL
MODEL 4
REMARK VINA RESULT:      -8.0      3.281      5.979
REMARK  Name = 
REMARK  5 active torsions:
REMARK  status: ('A' for Active; 'I' for Inactive)
REMARK    1  A    between atoms: C_1  and  C_2
REMARK    2  A    between atoms: C_8  and  C_9
REMARK    3  A    between atoms: C_9  and  O_10
REMARK    4  A    between atoms: C_17  and  O_18
REMARK    5  A    between atoms: O_18  and  C_19
REMARK                            x       y       z     vdW  Elec       q    Type
REMARK                         _______ _______ _______ _____ _____    ______ ____
ROOT
ATOM      1  C   UNL     1       3.427   3.453  17.843  0.00  0.00    +0.000 C 
ATOM      2  C   UNL     1       3.404   2.094  18.588  0.00  0.00    +0.000 C 
ATOM      3  O   UNL     1       3.909   1.038  18.245  0.00  0.00    +0.000 OA
ATOM      4  N   UNL     1       2.540   2.257  19.682  0.00  0.00    +0.000 N 
ATOM      5  C   UNL     1       2.214   3.596  19.859  0.00  0.00    +0.000 A 
ATOM      6  C   UNL     1       1.429   4.149  20.848  0.00  0.00    +0.000 A 
ATOM      7  C   UNL     1       1.350   5.545  20.909  0.00  0.00    +0.000 A 
ATOM      8  C   UNL     1       2.090   6.349  20.026  0.00  0.00    +0.000 A 
ATOM      9  C   UNL     1       2.792   5.757  18.970  0.00  0.00    +0.000 A 
ATOM     10  C   UNL     1       2.836   4.373  18.883  0.00  0.00    +0.000 A 
ATOM     11  H   UNL     1       2.251   1.499  20.280  0.00  0.00    +0.000 HD
ENDROOT
BRANCH   1  19
ATOM     12  C   UNL     1       5.379   3.553  12.213  0.00  0.00    +0.000 C 
ATOM     13  C   UNL     1       5.774   3.962  13.603  0.00  0.00    +0.000 A 
ATOM     14  C   UNL     1       7.043   4.502  13.820  0.00  0.00    +0.000 A 
ATOM     15  C   UNL     1       7.453   4.883  15.095  0.00  0.00    +0.000 A 
ATOM     16  C   UNL     1       6.553   4.695  16.152  0.00  0.00    +0.000 A 
ATOM     17  N   UNL     1       6.740   4.988  17.478  0.00  0.00    +0.000 N 
ATOM     18  C   UNL     1       5.634   4.625  18.182  0.00  0.00    +0.000 A 
ATOM     19  C   UNL     1       4.698   4.054  17.324  0.00  0.00    +0.000 A 
ATOM     20  C   UNL     1       5.278   4.139  16.001  0.00  0.00    +0.000 A 
ATOM     21  C   UNL     1       4.883   3.782  14.688  0.00  0.00    +0.000 A 
ATOM     22  H   UNL     1       7.578   5.384  17.869  0.00  0.00    +0.000 HD
ENDBRANCH   1  19
BRANCH   1  23
ATOM     23  O   UNL     1       2.451   3.323  16.793  0.00  0.00    +0.000 OA
ATOM     24  H   UNL     1       1.608   3.580  17.207  0.00  0.00    +0.000 HD
ENDBRANCH   1  23
BRANCH   8  25
ATOM     25  O   UNL     1       2.144   7.710  20.047  0.00  0.00    +0.000 OA
BRANCH  25  26
ATOM     26  C   UNL     1       1.240   8.437  20.867  0.00  0.00    +0.000 C 
ATOM     27  F   UNL     1       0.092   7.787  21.157  0.00  0.00    +0.000 F 
ATOM     28  F   UNL     1       1.851   8.734  22.037  0.00  0.00    +0.000 F 
ATOM     29  F   UNL     1       0.930   9.596  20.248  0.00  0.00    +0.000 F 
ENDBRANCH  25  26
ENDBRANCH   8  25
TORSDOF 4
ENDMDL
MODEL 5
REMARK VINA RESULT:      -8.0      4.122      5.723
REMARK  Name = 
REMARK  5 active torsions:
REMARK  status: ('A' for Active; 'I' for Inactive)
REMARK    1  A    between atoms: C_1  and  C_2
REMARK    2  A    between atoms: C_8  and  C_9
REMARK    3  A    between atoms: C_9  and  O_10
REMARK    4  A    between atoms: C_17  and  O_18
REMARK    5  A    between atoms: O_18  and  C_19
REMARK                            x       y       z     vdW  Elec       q    Type
REMARK                         _______ _______ _______ _____ _____    ______ ____
ROOT
ATOM      1  C   UNL     1       5.737   5.460  15.674  0.00  0.00    +0.000 C 
ATOM      2  C   UNL     1       7.184   5.831  16.087  0.00  0.00    +0.000 C 
ATOM      3  O   UNL     1       7.567   6.312  17.140  0.00  0.00    +0.000 OA
ATOM      4  N   UNL     1       7.979   5.656  14.943  0.00  0.00    +0.000 N 
ATOM      5  C   UNL     1       7.272   4.996  13.945  0.00  0.00    +0.000 A 
ATOM      6  C   UNL     1       7.728   4.611  12.703  0.00  0.00    +0.000 A 
ATOM      7  C   UNL     1       6.874   3.834  11.912  0.00  0.00    +0.000 A 
ATOM      8  C   UNL     1       5.621   3.419  12.393  0.00  0.00    +0.000 A 
ATOM      9  C   UNL     1       5.148   3.914  13.613  0.00  0.00    +0.000 A 
ATOM     10  C   UNL     1       5.976   4.720  14.380  0.00  0.00    +0.000 A 
ATOM     11  H   UNL     1       8.948   5.929  14.894  0.00  0.00    +0.000 HD
ENDROOT
BRANCH   1  19
ATOM     12  C   UNL     1       2.001   7.375  19.904  0.00  0.00    +0.000 C 
ATOM     13  C   UNL     1       2.516   6.114  19.272  0.00  0.00    +0.000 A 
ATOM     14  C   UNL     1       2.131   4.879  19.799  0.00  0.00    +0.000 A 
ATOM     15  C   UNL     1       2.594   3.687  19.250  0.00  0.00    +0.000 A 
ATOM     16  C   UNL     1       3.470   3.770  18.159  0.00  0.00    +0.000 A 
ATOM     17  N   UNL     1       4.052   2.739  17.468  0.00  0.00    +0.000 N 
ATOM     18  C   UNL     1       4.860   3.244  16.497  0.00  0.00    +0.000 A 
ATOM     19  C   UNL     1       4.845   4.635  16.551  0.00  0.00    +0.000 A 
ATOM     20  C   UNL     1       3.910   4.975  17.601  0.00  0.00    +0.000 A 
ATOM     21  C   UNL     1       3.403   6.170  18.169  0.00  0.00    +0.000 A 
ATOM     22  H   UNL     1       3.921   1.763  17.670  0.00  0.00    +0.000 HD
ENDBRANCH   1  19
BRANCH   1  23
ATOM     23  O   UNL     1       5.111   6.712  15.333  0.00  0.00    +0.000 OA
ATOM     24  H   UNL     1       5.134   7.230  16.156  0.00  0.00    +0.000 HD
ENDBRANCH   1  23
BRANCH   8  25
ATOM     25  O   UNL     1       4.749   2.604  11.738  0.00  0.00    +0.000 OA
BRANCH  25  26
ATOM     26  C   UNL     1       3.672   3.170  11.006  0.00  0.00    +0.000 C 
ATOM     27  F   UNL     1       3.798   4.489  10.744  0.00  0.00    +0.000 F 
ATOM     28  F   UNL     1       3.560   2.526   9.821  0.00  0.00    +0.000 F 
ATOM     29  F   UNL     1       2.529   2.979  11.698  0.00  0.00    +0.000 F 
ENDBRANCH  25  26
ENDBRANCH   8  25
TORSDOF 4
ENDMDL
MODEL 6
REMARK VINA RESULT:      -7.8      1.909      2.760
REMARK  Name = 
REMARK  5 active torsions:
REMARK  status: ('A' for Active; 'I' for Inactive)
REMARK    1  A    between atoms: C_1  and  C_2
REMARK    2  A    between atoms: C_8  and  C_9
REMARK    3  A    between atoms: C_9  and  O_10
REMARK    4  A    between atoms: C_17  and  O_18
REMARK    5  A    between atoms: O_18  and  C_19
REMARK                            x       y       z     vdW  Elec       q    Type
REMARK                         _______ _______ _______ _____ _____    ______ ____
ROOT
ATOM      1  C   UNL     1       3.094   5.880  18.830  0.00  0.00    +0.000 C 
ATOM      2  C   UNL     1       2.285   4.626  18.413  0.00  0.00    +0.000 C 
ATOM      3  O   UNL     1       1.138   4.336  18.709  0.00  0.00    +0.000 OA
ATOM      4  N   UNL     1       3.183   3.781  17.742  0.00  0.00    +0.000 N 
ATOM      5  C   UNL     1       4.376   4.441  17.473  0.00  0.00    +0.000 A 
ATOM      6  C   UNL     1       5.473   3.954  16.795  0.00  0.00    +0.000 A 
ATOM      7  C   UNL     1       6.515   4.849  16.522  0.00  0.00    +0.000 A 
ATOM      8  C   UNL     1       6.415   6.204  16.879  0.00  0.00    +0.000 A 
ATOM      9  C   UNL     1       5.336   6.640  17.656  0.00  0.00    +0.000 A 
ATOM     10  C   UNL     1       4.324   5.744  17.964  0.00  0.00    +0.000 A 
ATOM     11  H   UNL     1       2.953   2.842  17.455  0.00  0.00    +0.000 HD
ENDROOT
BRANCH   1  19
ATOM     12  C   UNL     1       0.074   9.048  22.876  0.00  0.00    +0.000 C 
ATOM     13  C   UNL     1       0.573   9.116  21.460  0.00  0.00    +0.000 A 
ATOM     14  C   UNL     1       0.225  10.211  20.666  0.00  0.00    +0.000 A 
ATOM     15  C   UNL     1       0.656  10.307  19.347  0.00  0.00    +0.000 A 
ATOM     16  C   UNL     1       1.440   9.262  18.840  0.00  0.00    +0.000 A 
ATOM     17  N   UNL     1       1.967   9.141  17.580  0.00  0.00    +0.000 N 
ATOM     18  C   UNL     1       2.641   7.963  17.483  0.00  0.00    +0.000 A 
ATOM     19  C   UNL     1       2.546   7.267  18.685  0.00  0.00    +0.000 A 
ATOM     20  C   UNL     1       1.803   8.130  19.578  0.00  0.00    +0.000 A 
ATOM     21  C   UNL     1       1.366   8.073  20.924  0.00  0.00    +0.000 A 
ATOM     22  H   UNL     1       1.847   9.808  16.838  0.00  0.00    +0.000 HD
ENDBRANCH   1  19
BRANCH   1  23
ATOM     23  O   UNL     1       3.506   5.627  20.187  0.00  0.00    +0.000 OA
ATOM     24  H   UNL     1       2.686   5.690  20.708  0.00  0.00    +0.000 HD
ENDBRANCH   1  23
BRANCH   8  25
ATOM     25  O   UNL     1       7.333   7.169  16.596  0.00  0.00    +0.000 OA
BRANCH  25  26
ATOM     26  C   UNL     1       7.826   7.999  17.638  0.00  0.00    +0.000 C 
ATOM     27  F   UNL     1       8.282   7.335  18.722  0.00  0.00    +0.000 F 
ATOM     28  F   UNL     1       8.844   8.749  17.157  0.00  0.00    +0.000 F 
ATOM     29  F   UNL     1       6.839   8.832  18.031  0.00  0.00    +0.000 F 
ENDBRANCH  25  26
ENDBRANCH   8  25
TORSDOF 4
ENDMDL
MODEL 7
REMARK VINA RESULT:      -7.8      3.597      4.989
REMARK  Name = 
REMARK  5 active torsions:
REMARK  status: ('A' for Active; 'I' for Inactive)
REMARK    1  A    between atoms: C_1  and  C_2
REMARK    2  A    between atoms: C_8  and  C_9
REMARK    3  A    between atoms: C_9  and  O_10
REMARK    4  A    between atoms: C_17  and  O_18
REMARK    5  A    between atoms: O_18  and  C_19
REMARK                            x       y       z     vdW  Elec       q    Type
REMARK                         _______ _______ _______ _____ _____    ______ ____
ROOT
ATOM      1  C   UNL     1       5.499   5.134  17.562  0.00  0.00    +0.000 C 
ATOM      2  C   UNL     1       6.912   5.036  18.189  0.00  0.00    +0.000 C 
ATOM      3  O   UNL     1       7.222   5.114  19.366  0.00  0.00    +0.000 OA
ATOM      4  N   UNL     1       7.819   4.998  17.117  0.00  0.00    +0.000 N 
ATOM      5  C   UNL     1       7.151   4.814  15.912  0.00  0.00    +0.000 A 
ATOM      6  C   UNL     1       7.702   4.683  14.655  0.00  0.00    +0.000 A 
ATOM      7  C   UNL     1       6.839   4.367  13.599  0.00  0.00    +0.000 A 
ATOM      8  C   UNL     1       5.472   4.138  13.828  0.00  0.00    +0.000 A 
ATOM      9  C   UNL     1       4.929   4.381  15.094  0.00  0.00    +0.000 A 
ATOM     10  C   UNL     1       5.777   4.736  16.133  0.00  0.00    +0.000 A 
ATOM     11  H   UNL     1       8.819   5.043  17.233  0.00  0.00    +0.000 HD
ENDROOT
BRANCH   1  19
ATOM     12  C   UNL     1       1.104   6.958  21.151  0.00  0.00    +0.000 C 
ATOM     13  C   UNL     1       1.614   5.736  20.442  0.00  0.00    +0.000 A 
ATOM     14  C   UNL     1       0.985   4.509  20.660  0.00  0.00    +0.000 A 
ATOM     15  C   UNL     1       1.433   3.350  20.031  0.00  0.00    +0.000 A 
ATOM     16  C   UNL     1       2.544   3.457  19.184  0.00  0.00    +0.000 A 
ATOM     17  N   UNL     1       3.157   2.460  18.471  0.00  0.00    +0.000 N 
ATOM     18  C   UNL     1       4.220   2.973  17.795  0.00  0.00    +0.000 A 
ATOM     19  C   UNL     1       4.342   4.332  18.076  0.00  0.00    +0.000 A 
ATOM     20  C   UNL     1       3.229   4.653  18.943  0.00  0.00    +0.000 A 
ATOM     21  C   UNL     1       2.735   5.818  19.580  0.00  0.00    +0.000 A 
ATOM     22  H   UNL     1       2.878   1.494  18.474  0.00  0.00    +0.000 HD
ENDBRANCH   1  19
BRANCH   1  23
ATOM     23  O   UNL     1       5.188   6.540  17.554  0.00  0.00    +0.000 OA
ATOM     24  H   UNL     1       5.800   6.931  18.202  0.00  0.00    +0.000 HD
ENDBRANCH   1  23
BRANCH   8  25
ATOM     25  O   UNL     1       4.564   3.753  12.888  0.00  0.00    +0.000 OA
BRANCH  25  26
ATOM     26  C   UNL     1       5.010   3.126  11.694  0.00  0.00    +0.000 C 
ATOM     27  F   UNL     1       5.598   1.923  11.873  0.00  0.00    +0.000 F 
ATOM     28  F   UNL     1       3.951   2.947  10.871  0.00  0.00    +0.000 F 
ATOM     29  F   UNL     1       5.889   3.943  11.077  0.00  0.00    +0.000 F 
ENDBRANCH  25  26
ENDBRANCH   8  25
TORSDOF 4
ENDMDL
MODEL 8
REMARK VINA RESULT:      -7.7      2.660      3.786
REMARK  Name = 
REMARK  5 active torsions:
REMARK  status: ('A' for Active; 'I' for Inactive)
REMARK    1  A    between atoms: C_1  and  C_2
REMARK    2  A    between atoms: C_8  and  C_9
REMARK    3  A    between atoms: C_9  and  O_10
REMARK    4  A    between atoms: C_17  and  O_18
REMARK    5  A    between atoms: O_18  and  C_19
REMARK                            x       y       z     vdW  Elec       q    Type
REMARK                         _______ _______ _______ _____ _____    ______ ____
ROOT
ATOM      1  C   UNL     1       2.743   5.598  19.421  0.00  0.00    +0.000 C 
ATOM      2  C   UNL     1       1.673   4.520  19.723  0.00  0.00    +0.000 C 
ATOM      3  O   UNL     1       0.747   4.578  20.516  0.00  0.00    +0.000 OA
ATOM      4  N   UNL     1       2.061   3.369  19.019  0.00  0.00    +0.000 N 
ATOM      5  C   UNL     1       3.089   3.657  18.129  0.00  0.00    +0.000 A 
ATOM      6  C   UNL     1       3.699   2.799  17.240  0.00  0.00    +0.000 A 
ATOM      7  C   UNL     1       4.623   3.346  16.341  0.00  0.00    +0.000 A 
ATOM      8  C   UNL     1       4.873   4.728  16.315  0.00  0.00    +0.000 A 
ATOM      9  C   UNL     1       4.317   5.553  17.299  0.00  0.00    +0.000 A 
ATOM     10  C   UNL     1       3.434   5.005  18.217  0.00  0.00    +0.000 A 
ATOM     11  H   UNL     1       1.604   2.476  19.119  0.00  0.00    +0.000 HD
ENDROOT
BRANCH   1  19
ATOM     12  C   UNL     1      -0.029   9.478  22.997  0.00  0.00    +0.000 C 
ATOM     13  C   UNL     1       0.534   9.350  21.611  0.00  0.00    +0.000 A 
ATOM     14  C   UNL     1       0.359  10.397  20.704  0.00  0.00    +0.000 A 
ATOM     15  C   UNL     1       0.855  10.315  19.406  0.00  0.00    +0.000 A 
ATOM     16  C   UNL     1       1.524   9.140  19.038  0.00  0.00    +0.000 A 
ATOM     17  N   UNL     1       2.085   8.836  17.825  0.00  0.00    +0.000 N 
ATOM     18  C   UNL     1       2.610   7.582  17.870  0.00  0.00    +0.000 A 
ATOM     19  C   UNL     1       2.378   7.021  19.123  0.00  0.00    +0.000 A 
ATOM     20  C   UNL     1       1.711   8.048  19.893  0.00  0.00    +0.000 A 
ATOM     21  C   UNL     1       1.214   8.172  21.214  0.00  0.00    +0.000 A 
ATOM     22  H   UNL     1       2.080   9.439  17.020  0.00  0.00    +0.000 HD
ENDBRANCH   1  19
BRANCH   1  23
ATOM     23  O   UNL     1       3.673   5.524  20.518  0.00  0.00    +0.000 OA
ATOM     24  H   UNL     1       3.115   5.554  21.316  0.00  0.00    +0.000 HD
ENDBRANCH   1  23
BRANCH   8  25
ATOM     25  O   UNL     1       5.692   5.370  15.436  0.00  0.00    +0.000 OA
BRANCH  25  26
ATOM     26  C   UNL     1       6.859   4.717  14.958  0.00  0.00    +0.000 C 
ATOM     27  F   UNL     1       6.625   3.623  14.201  0.00  0.00    +0.000 F 
ATOM     28  F   UNL     1       7.574   5.589  14.210  0.00  0.00    +0.000 F 
ATOM     29  F   UNL     1       7.616   4.352  16.014  0.00  0.00    +0.000 F 
ENDBRANCH  25  26
ENDBRANCH   8  25
TORSDOF 4
ENDMDL
MODEL 9
REMARK VINA RESULT:      -7.7      2.886      5.751
REMARK  Name = 
REMARK  5 active torsions:
REMARK  status: ('A' for Active; 'I' for Inactive)
REMARK    1  A    between atoms: C_1  and  C_2
REMARK    2  A    between atoms: C_8  and  C_9
REMARK    3  A    between atoms: C_9  and  O_10
REMARK    4  A    between atoms: C_17  and  O_18
REMARK    5  A    between atoms: O_18  and  C_19
REMARK                            x       y       z     vdW  Elec       q    Type
REMARK                         _______ _______ _______ _____ _____    ______ ____
ROOT
ATOM      1  C   UNL     1       3.501   4.179  18.900  0.00  0.00    +0.000 C 
ATOM      2  C   UNL     1       3.325   3.240  20.120  0.00  0.00    +0.000 C 
ATOM      3  O   UNL     1       3.796   2.128  20.289  0.00  0.00    +0.000 OA
ATOM      4  N   UNL     1       2.371   3.847  20.953  0.00  0.00    +0.000 N 
ATOM      5  C   UNL     1       2.110   5.148  20.539  0.00  0.00    +0.000 A 
ATOM      6  C   UNL     1       1.268   6.067  21.128  0.00  0.00    +0.000 A 
ATOM      7  C   UNL     1       1.268   7.369  20.614  0.00  0.00    +0.000 A 
ATOM      8  C   UNL     1       2.136   7.733  19.571  0.00  0.00    +0.000 A 
ATOM      9  C   UNL     1       2.900   6.752  18.928  0.00  0.00    +0.000 A 
ATOM     10  C   UNL     1       2.869   5.452  19.410  0.00  0.00    +0.000 A 
ATOM     11  H   UNL     1       1.981   3.401  21.768  0.00  0.00    +0.000 HD
ENDROOT
BRANCH   1  19
ATOM     12  C   UNL     1       5.179   3.980  13.185  0.00  0.00    +0.000 C 
ATOM     13  C   UNL     1       5.715   4.258  14.560  0.00  0.00    +0.000 A 
ATOM     14  C   UNL     1       7.080   4.500  14.724  0.00  0.00    +0.000 A 
ATOM     15  C   UNL     1       7.620   4.752  15.982  0.00  0.00    +0.000 A 
ATOM     16  C   UNL     1       6.747   4.741  17.078  0.00  0.00    +0.000 A 
ATOM     17  N   UNL     1       7.052   4.955  18.398  0.00  0.00    +0.000 N 
ATOM     18  C   UNL     1       5.925   4.828  19.149  0.00  0.00    +0.000 A 
ATOM     19  C   UNL     1       4.849   4.498  18.329  0.00  0.00    +0.000 A 
ATOM     20  C   UNL     1       5.376   4.484  16.981  0.00  0.00    +0.000 A 
ATOM     21  C   UNL     1       4.854   4.254  15.684  0.00  0.00    +0.000 A 
ATOM     22  H   UNL     1       7.972   5.147  18.753  0.00  0.00    +0.000 HD
ENDBRANCH   1  19
BRANCH   1  23
ATOM     23  O   UNL     1       2.624   3.650  17.888  0.00  0.00    +0.000 OA
ATOM     24  H   UNL     1       2.963   2.754  17.713  0.00  0.00    +0.000 HD
ENDBRANCH   1  23
BRANCH   8  25
ATOM     25  O   UNL     1       2.269   8.984  19.049  0.00  0.00    +0.000 OA
BRANCH  25  26
ATOM     26  C   UNL     1       1.315   9.459  18.110  0.00  0.00    +0.000 C 
ATOM     27  F   UNL     1       0.876   8.531  17.232  0.00  0.00    +0.000 F 
ATOM     28  F   UNL     1       0.240   9.934  18.779  0.00  0.00    +0.000 F 
ATOM     29  F   UNL     1       1.862  10.479  17.415  0.00  0.00    +0.000 F 
ENDBRANCH  25  26
ENDBRANCH   8  25
TORSDOF 4
ENDMDL
