MODEL 1
REMARK VINA RESULT:      -8.1      0.000      0.000
REMARK  Name = 
REMARK  9 active torsions:
REMARK  status: ('A' for Active; 'I' for Inactive)
REMARK    1  A    between atoms: C_1  and  O_2
REMARK    2  A    between atoms: O_2  and  C_3
REMARK    3  A    between atoms: C_6  and  C_7
REMARK    4  A    between atoms: C_7  and  O_9
REMARK    5  A    between atoms: O_9  and  C_10
REMARK    6  A    between atoms: C_10  and  C_11
REMARK    7  A    between atoms: C_11  and  C_12
REMARK    8  A    between atoms: C_12  and  O_13
REMARK    9  A    between atoms: C_16  and  C_17
REMARK                            x       y       z     vdW  Elec       q    Type
REMARK                         _______ _______ _______ _____ _____    ______ ____
ROOT
ATOM      1  C   UNL     1       4.135   5.834  18.330  0.00  0.00    +0.000 C 
ATOM      2  C   UNL     1       3.871   7.117  17.522  0.00  0.00    +0.000 C 
ATOM      3  C   UNL     1       2.657   7.733  18.175  0.00  0.00    +0.000 C 
ATOM      4  C   UNL     1       1.873   8.709  17.645  0.00  0.00    +0.000 C 
ATOM      5  C   UNL     1       2.546   7.054  19.498  0.00  0.00    +0.000 C 
ATOM      6  O   UNL     1       1.750   7.265  20.394  0.00  0.00    +0.000 OA
ATOM      7  O   UNL     1       3.507   6.095  19.600  0.00  0.00    +0.000 OA
ENDROOT
BRANCH   4   8
ATOM      8  C   UNL     1       0.797   9.543  18.269  0.00  0.00    +0.000 A 
ATOM      9  C   UNL     1       1.131  10.547  19.150  0.00  0.00    +0.000 A 
ATOM     10  C   UNL     1       0.148  11.319  19.752  0.00  0.00    +0.000 A 
ATOM     11  C   UNL     1      -1.153  11.233  19.295  0.00  0.00    +0.000 A 
ATOM     12  C   UNL     1      -2.097  12.148  19.786  0.00  0.00    +0.000 A 
ATOM     13  C   UNL     1      -3.360  12.232  19.217  0.00  0.00    +0.000 A 
ATOM     14  C   UNL     1      -3.679  11.346  18.192  0.00  0.00    +0.000 A 
ATOM     15  C   UNL     1      -2.746  10.378  17.761  0.00  0.00    +0.000 A 
ATOM     16  C   UNL     1      -1.446  10.300  18.280  0.00  0.00    +0.000 A 
ATOM     17  N   UNL     1      -0.486   9.429  17.808  0.00  0.00    +0.000 NA
ENDBRANCH   4   8
BRANCH   1  18
ATOM     18  C   UNL     1       5.635   5.539  18.595  0.00  0.00    +0.000 C 
BRANCH  18  19
ATOM     19  O   UNL     1       6.230   4.776  17.497  0.00  0.00    +0.000 OA
BRANCH  19  20
ATOM     20  C   UNL     1       6.880   5.467  16.521  0.00  0.00    +0.000 C 
ATOM     21  O   UNL     1       7.581   6.449  16.713  0.00  0.00    +0.000 OA
BRANCH  20  25
ATOM     22  C   UNL     1       6.015   3.819  12.607  0.00  0.00    +0.000 A 
ATOM     23  C   UNL     1       5.062   3.817  13.622  0.00  0.00    +0.000 A 
ATOM     24  C   UNL     1       5.354   4.368  14.880  0.00  0.00    +0.000 A 
ATOM     25  C   UNL     1       6.622   4.913  15.150  0.00  0.00    +0.000 A 
ATOM     26  C   UNL     1       7.580   4.908  14.127  0.00  0.00    +0.000 A 
ATOM     27  C   UNL     1       7.278   4.364  12.863  0.00  0.00    +0.000 A 
BRANCH  22  29
ATOM     28  C   UNL     1       4.225   2.963  11.293  0.00  0.00    +0.000 C 
ATOM     29  O   UNL     1       5.615   3.229  11.437  0.00  0.00    +0.000 OA
ENDBRANCH  22  29
ENDBRANCH  20  25
ENDBRANCH  19  20
ENDBRANCH  18  19
ENDBRANCH   1  18
BRANCH   1  30
ATOM     30  C   UNL     1       3.486   4.588  17.703  0.00  0.00    +0.000 C 
BRANCH  30  31
ATOM     31  O   UNL     1       3.699   3.419  18.489  0.00  0.00    +0.000 OA
ATOM     32  H   UNL     1       2.949   3.349  19.109  0.00  0.00    +0.000 HD
ENDBRANCH  30  31
ENDBRANCH   1  30
TORSDOF 8
ENDMDL
MODEL 2
REMARK VINA RESULT:      -7.9      1.838      2.733
REMARK  Name = 
REMARK  9 active torsions:
REMARK  status: ('A' for Active; 'I' for Inactive)
REMARK    1  A    between atoms: C_1  and  O_2
REMARK    2  A    between atoms: O_2  and  C_3
REMARK    3  A    between atoms: C_6  and  C_7
REMARK    4  A    between atoms: C_7  and  O_9
REMARK    5  A    between atoms: O_9  and  C_10
REMARK    6  A    between atoms: C_10  and  C_11
REMARK    7  A    between atoms: C_11  and  C_12
REMARK    8  A    between atoms: C_12  and  O_13
REMARK    9  A    between atoms: C_16  and  C_17
REMARK                            x       y       z     vdW  Elec       q    Type
REMARK                         _______ _______ _______ _____ _____    ______ ____
ROOT
ATOM      1  C   UNL     1       2.553   5.310  19.315  0.00  0.00    +0.000 C 
ATOM      2  C   UNL     1       2.918   6.313  18.207  0.00  0.00    +0.000 C 
ATOM      3  C   UNL     1       2.164   7.570  18.569  0.00  0.00    +0.000 C 
ATOM      4  C   UNL     1       1.933   8.628  17.748  0.00  0.00    +0.000 C 
ATOM      5  C   UNL     1       1.770   7.385  19.996  0.00  0.00    +0.000 C 
ATOM      6  O   UNL     1       1.194   8.164  20.730  0.00  0.00    +0.000 OA
ATOM      7  O   UNL     1       2.155   6.149  20.417  0.00  0.00    +0.000 OA
ENDROOT
BRANCH   4   8
ATOM      8  C   UNL     1       1.404   9.997  18.045  0.00  0.00    +0.000 A 
ATOM      9  C   UNL     1       0.087  10.160  18.413  0.00  0.00    +0.000 A 
ATOM     10  C   UNL     1      -0.426  11.422  18.675  0.00  0.00    +0.000 A 
ATOM     11  C   UNL     1       0.439  12.492  18.790  0.00  0.00    +0.000 A 
ATOM     12  C   UNL     1      -0.072  13.721  19.234  0.00  0.00    +0.000 A 
ATOM     13  C   UNL     1       0.782  14.767  19.554  0.00  0.00    +0.000 A 
ATOM     14  C   UNL     1       2.149  14.580  19.364  0.00  0.00    +0.000 A 
ATOM     15  C   UNL     1       2.643  13.365  18.842  0.00  0.00    +0.000 A 
ATOM     16  C   UNL     1       1.811  12.273  18.557  0.00  0.00    +0.000 A 
ATOM     17  N   UNL     1       2.280  11.044  18.139  0.00  0.00    +0.000 NA
ENDBRANCH   4   8
BRANCH   1  18
ATOM     18  C   UNL     1       3.732   4.424  19.796  0.00  0.00    +0.000 C 
BRANCH  18  19
ATOM     19  O   UNL     1       4.480   3.872  18.665  0.00  0.00    +0.000 OA
BRANCH  19  20
ATOM     20  C   UNL     1       5.732   4.354  18.434  0.00  0.00    +0.000 C 
ATOM     21  O   UNL     1       6.513   4.707  19.304  0.00  0.00    +0.000 OA
BRANCH  20  25
ATOM     22  C   UNL     1       6.547   4.558  14.182  0.00  0.00    +0.000 A 
ATOM     23  C   UNL     1       5.280   4.240  14.664  0.00  0.00    +0.000 A 
ATOM     24  C   UNL     1       5.030   4.193  16.044  0.00  0.00    +0.000 A 
ATOM     25  C   UNL     1       6.057   4.442  16.971  0.00  0.00    +0.000 A 
ATOM     26  C   UNL     1       7.332   4.756  16.482  0.00  0.00    +0.000 A 
ATOM     27  C   UNL     1       7.575   4.813  15.095  0.00  0.00    +0.000 A 
BRANCH  22  29
ATOM     28  C   UNL     1       6.448   3.301  12.164  0.00  0.00    +0.000 C 
ATOM     29  O   UNL     1       6.667   4.545  12.817  0.00  0.00    +0.000 OA
ENDBRANCH  22  29
ENDBRANCH  20  25
ENDBRANCH  19  20
ENDBRANCH  18  19
ENDBRANCH   1  18
BRANCH   1  30
ATOM     30  C   UNL     1       1.371   4.401  18.934  0.00  0.00    +0.000 C 
BRANCH  30  31
ATOM     31  O   UNL     1       1.503   3.874  17.617  0.00  0.00    +0.000 OA
ATOM     32  H   UNL     1       2.072   3.084  17.680  0.00  0.00    +0.000 HD
ENDBRANCH  30  31
ENDBRANCH   1  30
TORSDOF 8
ENDMDL
MODEL 3
REMARK VINA RESULT:      -7.9      1.185      1.883
REMARK  Name = 
REMARK  9 active torsions:
REMARK  status: ('A' for Active; 'I' for Inactive)
REMARK    1  A    between atoms: C_1  and  O_2
REMARK    2  A    between atoms: O_2  and  C_3
REMARK    3  A    between atoms: C_6  and  C_7
REMARK    4  A    between atoms: C_7  and  O_9
REMARK    5  A    between atoms: O_9  and  C_10
REMARK    6  A    between atoms: C_10  and  C_11
REMARK    7  A    between atoms: C_11  and  C_12
REMARK    8  A    between atoms: C_12  and  O_13
REMARK    9  A    between atoms: C_16  and  C_17
REMARK                            x       y       z     vdW  Elec       q    Type
REMARK                         _______ _______ _______ _____ _____    ______ ____
ROOT
ATOM      1  C   UNL     1       3.406   5.917  18.753  0.00  0.00    +0.000 C 
ATOM      2  C   UNL     1       3.357   7.188  17.888  0.00  0.00    +0.000 C 
ATOM      3  C   UNL     1       2.245   8.013  18.490  0.00  0.00    +0.000 C 
ATOM      4  C   UNL     1       1.631   9.076  17.904  0.00  0.00    +0.000 C 
ATOM      5  C   UNL     1       2.010   7.418  19.837  0.00  0.00    +0.000 C 
ATOM      6  O   UNL     1       1.244   7.789  20.706  0.00  0.00    +0.000 OA
ATOM      7  O   UNL     1       2.808   6.327  19.997  0.00  0.00    +0.000 OA
ENDROOT
BRANCH   4   8
ATOM      8  C   UNL     1       0.690  10.093  18.471  0.00  0.00    +0.000 A 
ATOM      9  C   UNL     1      -0.603  10.170  18.002  0.00  0.00    +0.000 A 
ATOM     10  C   UNL     1      -1.484  11.117  18.502  0.00  0.00    +0.000 A 
ATOM     11  C   UNL     1      -1.137  11.834  19.630  0.00  0.00    +0.000 A 
ATOM     12  C   UNL     1      -2.107  12.653  20.228  0.00  0.00    +0.000 A 
ATOM     13  C   UNL     1      -1.873  13.236  21.466  0.00  0.00    +0.000 A 
ATOM     14  C   UNL     1      -0.632  13.034  22.063  0.00  0.00    +0.000 A 
ATOM     15  C   UNL     1       0.364  12.273  21.413  0.00  0.00    +0.000 A 
ATOM     16  C   UNL     1       0.141  11.629  20.187  0.00  0.00    +0.000 A 
ATOM     17  N   UNL     1       1.063  10.801  19.580  0.00  0.00    +0.000 NA
ENDBRANCH   4   8
BRANCH   1  18
ATOM     18  C   UNL     1       4.837   5.403  19.062  0.00  0.00    +0.000 C 
BRANCH  18  19
ATOM     19  O   UNL     1       5.795   5.854  18.051  0.00  0.00    +0.000 OA
BRANCH  19  20
ATOM     20  C   UNL     1       6.716   4.958  17.603  0.00  0.00    +0.000 C 
ATOM     21  O   UNL     1       7.585   4.448  18.294  0.00  0.00    +0.000 OA
BRANCH  20  25
ATOM     22  C   UNL     1       6.224   4.042  13.395  0.00  0.00    +0.000 A 
ATOM     23  C   UNL     1       5.361   3.524  14.357  0.00  0.00    +0.000 A 
ATOM     24  C   UNL     1       5.526   3.843  15.714  0.00  0.00    +0.000 A 
ATOM     25  C   UNL     1       6.580   4.672  16.135  0.00  0.00    +0.000 A 
ATOM     26  C   UNL     1       7.450   5.188  15.165  0.00  0.00    +0.000 A 
ATOM     27  C   UNL     1       7.273   4.874  13.803  0.00  0.00    +0.000 A 
BRANCH  22  29
ATOM     28  C   UNL     1       4.650   3.194  11.825  0.00  0.00    +0.000 C 
ATOM     29  O   UNL     1       5.972   3.636  12.111  0.00  0.00    +0.000 OA
ENDBRANCH  22  29
ENDBRANCH  20  25
ENDBRANCH  19  20
ENDBRANCH  18  19
ENDBRANCH   1  18
BRANCH   1  30
ATOM     30  C   UNL     1       2.579   4.760  18.164  0.00  0.00    +0.000 C 
BRANCH  30  31
ATOM     31  O   UNL     1       3.098   3.487  18.534  0.00  0.00    +0.000 OA
ATOM     32  H   UNL     1       3.503   3.586  19.416  0.00  0.00    +0.000 HD
ENDBRANCH  30  31
ENDBRANCH   1  30
TORSDOF 8
ENDMDL
MODEL 4
REMARK VINA RESULT:      -7.7      1.938      3.040
REMARK  Name = 
REMARK  9 active torsions:
REMARK  status: ('A' for Active; 'I' for Inactive)
REMARK    1  A    between atoms: C_1  and  O_2
REMARK    2  A    between atoms: O_2  and  C_3
REMARK    3  A    between atoms: C_6  and  C_7
REMARK    4  A    between atoms: C_7  and  O_9
REMARK    5  A    between atoms: O_9  and  C_10
REMARK    6  A    between atoms: C_10  and  C_11
REMARK    7  A    between atoms: C_11  and  C_12
REMARK    8  A    between atoms: C_12  and  O_13
REMARK    9  A    between atoms: C_16  and  C_17
REMARK                            x       y       z     vdW  Elec       q    Type
REMARK                         _______ _______ _______ _____ _____    ______ ____
ROOT
ATOM      1  C   UNL     1       2.558   5.346  19.538  0.00  0.00    +0.000 C 
ATOM      2  C   UNL     1       2.907   6.299  18.382  0.00  0.00    +0.000 C 
ATOM      3  C   UNL     1       2.154   7.568  18.696  0.00  0.00    +0.000 C 
ATOM      4  C   UNL     1       1.910   8.588  17.830  0.00  0.00    +0.000 C 
ATOM      5  C   UNL     1       1.778   7.447  20.134  0.00  0.00    +0.000 C 
ATOM      6  O   UNL     1       1.208   8.257  20.839  0.00  0.00    +0.000 OA
ATOM      7  O   UNL     1       2.172   6.232  20.606  0.00  0.00    +0.000 OA
ENDROOT
BRANCH   4   8
ATOM      8  C   UNL     1       1.380   9.968  18.072  0.00  0.00    +0.000 A 
ATOM      9  C   UNL     1       0.056  10.147  18.404  0.00  0.00    +0.000 A 
ATOM     10  C   UNL     1      -0.457  11.419  18.614  0.00  0.00    +0.000 A 
ATOM     11  C   UNL     1       0.409  12.489  18.716  0.00  0.00    +0.000 A 
ATOM     12  C   UNL     1      -0.107  13.733  19.109  0.00  0.00    +0.000 A 
ATOM     13  C   UNL     1       0.745  14.785  19.417  0.00  0.00    +0.000 A 
ATOM     14  C   UNL     1       2.115  14.587  19.265  0.00  0.00    +0.000 A 
ATOM     15  C   UNL     1       2.615  13.354  18.793  0.00  0.00    +0.000 A 
ATOM     16  C   UNL     1       1.786  12.257  18.523  0.00  0.00    +0.000 A 
ATOM     17  N   UNL     1       2.258  11.014  18.154  0.00  0.00    +0.000 NA
ENDBRANCH   4   8
BRANCH   1  18
ATOM     18  C   UNL     1       3.746   4.485  20.043  0.00  0.00    +0.000 C 
BRANCH  18  19
ATOM     19  O   UNL     1       4.476   3.879  18.929  0.00  0.00    +0.000 OA
BRANCH  19  20
ATOM     20  C   UNL     1       5.702   4.385  18.622  0.00  0.00    +0.000 C 
ATOM     21  O   UNL     1       6.514   4.788  19.441  0.00  0.00    +0.000 OA
BRANCH  20  25
ATOM     22  C   UNL     1       6.554   4.576  14.377  0.00  0.00    +0.000 A 
ATOM     23  C   UNL     1       7.505   4.941  15.325  0.00  0.00    +0.000 A 
ATOM     24  C   UNL     1       7.218   4.859  16.697  0.00  0.00    +0.000 A 
ATOM     25  C   UNL     1       5.956   4.430  17.143  0.00  0.00    +0.000 A 
ATOM     26  C   UNL     1       4.999   4.068  16.185  0.00  0.00    +0.000 A 
ATOM     27  C   UNL     1       5.297   4.141  14.810  0.00  0.00    +0.000 A 
BRANCH  22  29
ATOM     28  C   UNL     1       8.165   5.428  12.846  0.00  0.00    +0.000 C 
ATOM     29  O   UNL     1       6.948   4.726  13.073  0.00  0.00    +0.000 OA
ENDBRANCH  22  29
ENDBRANCH  20  25
ENDBRANCH  19  20
ENDBRANCH  18  19
ENDBRANCH   1  18
BRANCH   1  30
ATOM     30  C   UNL     1       1.375   4.417  19.212  0.00  0.00    +0.000 C 
BRANCH  30  31
ATOM     31  O   UNL     1       0.665   4.021  20.381  0.00  0.00    +0.000 OA
ATOM     32  H   UNL     1       1.330   3.834  21.071  0.00  0.00    +0.000 HD
ENDBRANCH  30  31
ENDBRANCH   1  30
TORSDOF 8
ENDMDL
MODEL 5
REMARK VINA RESULT:      -7.6      2.317      3.845
REMARK  Name = 
REMARK  9 active torsions:
REMARK  status: ('A' for Active; 'I' for Inactive)
REMARK    1  A    between atoms: C_1  and  O_2
REMARK    2  A    between atoms: O_2  and  C_3
REMARK    3  A    between atoms: C_6  and  C_7
REMARK    4  A    between atoms: C_7  and  O_9
REMARK    5  A    between atoms: O_9  and  C_10
REMARK    6  A    between atoms: C_10  and  C_11
REMARK    7  A    between atoms: C_11  and  C_12
REMARK    8  A    between atoms: C_12  and  O_13
REMARK    9  A    between atoms: C_16  and  C_17
REMARK                            x       y       z     vdW  Elec       q    Type
REMARK                         _______ _______ _______ _____ _____    ______ ____
ROOT
ATOM      1  C   UNL     1       2.732   5.525  18.430  0.00  0.00    +0.000 C 
ATOM      2  C   UNL     1       2.688   6.707  17.447  0.00  0.00    +0.000 C 
ATOM      3  C   UNL     1       2.119   7.850  18.253  0.00  0.00    +0.000 C 
ATOM      4  C   UNL     1       1.620   9.011  17.752  0.00  0.00    +0.000 C 
ATOM      5  C   UNL     1       2.256   7.423  19.675  0.00  0.00    +0.000 C 
ATOM      6  O   UNL     1       1.983   8.046  20.684  0.00  0.00    +0.000 OA
ATOM      7  O   UNL     1       2.757   6.157  19.724  0.00  0.00    +0.000 OA
ENDROOT
BRANCH   4   8
ATOM      8  C   UNL     1       1.240  10.286  18.439  0.00  0.00    +0.000 A 
ATOM      9  C   UNL     1       2.067  11.384  18.355  0.00  0.00    +0.000 A 
ATOM     10  C   UNL     1       1.741  12.569  18.999  0.00  0.00    +0.000 A 
ATOM     11  C   UNL     1       0.478  12.722  19.535  0.00  0.00    +0.000 A 
ATOM     12  C   UNL     1       0.103  13.984  20.018  0.00  0.00    +0.000 A 
ATOM     13  C   UNL     1      -1.212  14.240  20.382  0.00  0.00    +0.000 A 
ATOM     14  C   UNL     1      -2.128  13.194  20.311  0.00  0.00    +0.000 A 
ATOM     15  C   UNL     1      -1.719  11.907  19.898  0.00  0.00    +0.000 A 
ATOM     16  C   UNL     1      -0.411  11.630  19.475  0.00  0.00    +0.000 A 
ATOM     17  N   UNL     1      -0.013  10.407  18.975  0.00  0.00    +0.000 NA
ENDBRANCH   4   8
BRANCH   1  18
ATOM     18  C   UNL     1       3.999   4.637  18.312  0.00  0.00    +0.000 C 
BRANCH  18  19
ATOM     19  O   UNL     1       4.361   4.408  16.913  0.00  0.00    +0.000 OA
BRANCH  19  20
ATOM     20  C   UNL     1       5.684   4.309  16.606  0.00  0.00    +0.000 C 
ATOM     21  O   UNL     1       6.169   3.446  15.890  0.00  0.00    +0.000 OA
BRANCH  20  25
ATOM     22  C   UNL     1       8.041   7.455  18.429  0.00  0.00    +0.000 A 
ATOM     23  C   UNL     1       7.195   7.712  17.354  0.00  0.00    +0.000 A 
ATOM     24  C   UNL     1       6.427   6.684  16.784  0.00  0.00    +0.000 A 
ATOM     25  C   UNL     1       6.513   5.368  17.271  0.00  0.00    +0.000 A 
ATOM     26  C   UNL     1       7.370   5.112  18.350  0.00  0.00    +0.000 A 
ATOM     27  C   UNL     1       8.130   6.151  18.925  0.00  0.00    +0.000 A 
BRANCH  22  29
ATOM     28  C   UNL     1       8.579   9.759  18.169  0.00  0.00    +0.000 C 
ATOM     29  O   UNL     1       8.754   8.537  18.876  0.00  0.00    +0.000 OA
ENDBRANCH  22  29
ENDBRANCH  20  25
ENDBRANCH  19  20
ENDBRANCH  18  19
ENDBRANCH   1  18
BRANCH   1  30
ATOM     30  C   UNL     1       1.485   4.626  18.342  0.00  0.00    +0.000 C 
BRANCH  30  31
ATOM     31  O   UNL     1       1.555   3.717  17.249  0.00  0.00    +0.000 OA
ATOM     32  H   UNL     1       2.487   3.681  16.964  0.00  0.00    +0.000 HD
ENDBRANCH  30  31
ENDBRANCH   1  30
TORSDOF 8
ENDMDL
MODEL 6
REMARK VINA RESULT:      -7.6      4.188     11.262
REMARK  Name = 
REMARK  9 active torsions:
REMARK  status: ('A' for Active; 'I' for Inactive)
REMARK    1  A    between atoms: C_1  and  O_2
REMARK    2  A    between atoms: O_2  and  C_3
REMARK    3  A    between atoms: C_6  and  C_7
REMARK    4  A    between atoms: C_7  and  O_9
REMARK    5  A    between atoms: O_9  and  C_10
REMARK    6  A    between atoms: C_10  and  C_11
REMARK    7  A    between atoms: C_11  and  C_12
REMARK    8  A    between atoms: C_12  and  O_13
REMARK    9  A    between atoms: C_16  and  C_17
REMARK                            x       y       z     vdW  Elec       q    Type
REMARK                         _______ _______ _______ _____ _____    ______ ____
ROOT
ATOM      1  C   UNL     1       0.382  11.119  19.715  0.00  0.00    +0.000 C 
ATOM      2  C   UNL     1       0.536  10.431  18.348  0.00  0.00    +0.000 C 
ATOM      3  C   UNL     1       1.304   9.166  18.644  0.00  0.00    +0.000 C 
ATOM      4  C   UNL     1       1.933   8.380  17.730  0.00  0.00    +0.000 C 
ATOM      5  C   UNL     1       1.189   8.982  20.120  0.00  0.00    +0.000 C 
ATOM      6  O   UNL     1       1.603   8.067  20.804  0.00  0.00    +0.000 OA
ATOM      7  O   UNL     1       0.519  10.038  20.658  0.00  0.00    +0.000 OA
ENDROOT
BRANCH   4   8
ATOM      8  C   UNL     1       2.527   7.011  17.864  0.00  0.00    +0.000 A 
ATOM      9  C   UNL     1       3.859   6.868  18.183  0.00  0.00    +0.000 A 
ATOM     10  C   UNL     1       4.431   5.609  18.294  0.00  0.00    +0.000 A 
ATOM     11  C   UNL     1       3.615   4.495  18.309  0.00  0.00    +0.000 A 
ATOM     12  C   UNL     1       4.189   3.249  18.604  0.00  0.00    +0.000 A 
ATOM     13  C   UNL     1       3.387   2.138  18.826  0.00  0.00    +0.000 A 
ATOM     14  C   UNL     1       2.010   2.284  18.687  0.00  0.00    +0.000 A 
ATOM     15  C   UNL     1       1.451   3.525  18.312  0.00  0.00    +0.000 A 
ATOM     16  C   UNL     1       2.229   4.678  18.131  0.00  0.00    +0.000 A 
ATOM     17  N   UNL     1       1.698   5.922  17.861  0.00  0.00    +0.000 NA
ENDBRANCH   4   8
BRANCH   1  18
ATOM     18  C   UNL     1      -1.002  11.780  19.950  0.00  0.00    +0.000 C 
BRANCH  18  19
ATOM     19  O   UNL     1      -1.533  11.448  21.273  0.00  0.00    +0.000 OA
BRANCH  19  20
ATOM     20  C   UNL     1      -1.688  12.462  22.169  0.00  0.00    +0.000 C 
ATOM     21  O   UNL     1      -0.785  13.182  22.568  0.00  0.00    +0.000 OA
BRANCH  20  25
ATOM     22  C   UNL     1      -5.729  12.798  23.698  0.00  0.00    +0.000 A 
ATOM     23  C   UNL     1      -4.657  12.512  24.538  0.00  0.00    +0.000 A 
ATOM     24  C   UNL     1      -3.352  12.420  24.029  0.00  0.00    +0.000 A 
ATOM     25  C   UNL     1      -3.102  12.593  22.656  0.00  0.00    +0.000 A 
ATOM     26  C   UNL     1      -4.184  12.876  21.813  0.00  0.00    +0.000 A 
ATOM     27  C   UNL     1      -5.491  12.978  22.331  0.00  0.00    +0.000 A 
BRANCH  22  29
ATOM     28  C   UNL     1      -7.746  13.996  24.099  0.00  0.00    +0.000 C 
ATOM     29  O   UNL     1      -6.953  12.834  24.313  0.00  0.00    +0.000 OA
ENDBRANCH  22  29
ENDBRANCH  20  25
ENDBRANCH  19  20
ENDBRANCH  18  19
ENDBRANCH   1  18
BRANCH   1  30
ATOM     30  C   UNL     1       1.482  12.159  19.990  0.00  0.00    +0.000 C 
BRANCH  30  31
ATOM     31  O   UNL     1       1.659  12.398  21.383  0.00  0.00    +0.000 OA
ATOM     32  H   UNL     1       2.039  13.291  21.475  0.00  0.00    +0.000 HD
ENDBRANCH  30  31
ENDBRANCH   1  30
TORSDOF 8
ENDMDL
MODEL 7
REMARK VINA RESULT:      -7.6      2.165      3.616
REMARK  Name = 
REMARK  9 active torsions:
REMARK  status: ('A' for Active; 'I' for Inactive)
REMARK    1  A    between atoms: C_1  and  O_2
REMARK    2  A    between atoms: O_2  and  C_3
REMARK    3  A    between atoms: C_6  and  C_7
REMARK    4  A    between atoms: C_7  and  O_9
REMARK    5  A    between atoms: O_9  and  C_10
REMARK    6  A    between atoms: C_10  and  C_11
REMARK    7  A    between atoms: C_11  and  C_12
REMARK    8  A    between atoms: C_12  and  O_13
REMARK    9  A    between atoms: C_16  and  C_17
REMARK                            x       y       z     vdW  Elec       q    Type
REMARK                         _______ _______ _______ _____ _____    ______ ____
ROOT
ATOM      1  C   UNL     1       2.239   5.609  19.920  0.00  0.00    +0.000 C 
ATOM      2  C   UNL     1       2.784   6.544  18.827  0.00  0.00    +0.000 C 
ATOM      3  C   UNL     1       1.997   7.821  18.994  0.00  0.00    +0.000 C 
ATOM      4  C   UNL     1       1.909   8.830  18.087  0.00  0.00    +0.000 C 
ATOM      5  C   UNL     1       1.384   7.721  20.350  0.00  0.00    +0.000 C 
ATOM      6  O   UNL     1       0.709   8.544  20.939  0.00  0.00    +0.000 OA
ATOM      7  O   UNL     1       1.685   6.511  20.897  0.00  0.00    +0.000 OA
ENDROOT
BRANCH   4   8
ATOM      8  C   UNL     1       1.355  10.215  18.219  0.00  0.00    +0.000 A 
ATOM      9  C   UNL     1       0.008  10.399  18.437  0.00  0.00    +0.000 A 
ATOM     10  C   UNL     1      -0.526  11.675  18.543  0.00  0.00    +0.000 A 
ATOM     11  C   UNL     1       0.324  12.756  18.660  0.00  0.00    +0.000 A 
ATOM     12  C   UNL     1      -0.226  14.014  18.950  0.00  0.00    +0.000 A 
ATOM     13  C   UNL     1       0.594  15.086  19.272  0.00  0.00    +0.000 A 
ATOM     14  C   UNL     1       1.972  14.893  19.238  0.00  0.00    +0.000 A 
ATOM     15  C   UNL     1       2.514  13.643  18.867  0.00  0.00    +0.000 A 
ATOM     16  C   UNL     1       1.713  12.527  18.587  0.00  0.00    +0.000 A 
ATOM     17  N   UNL     1       2.219  11.272  18.318  0.00  0.00    +0.000 NA
ENDBRANCH   4   8
BRANCH   1  18
ATOM     18  C   UNL     1       3.319   4.749  20.629  0.00  0.00    +0.000 C 
BRANCH  18  19
ATOM     19  O   UNL     1       3.336   3.381  20.111  0.00  0.00    +0.000 OA
BRANCH  19  20
ATOM     20  C   UNL     1       4.515   2.896  19.632  0.00  0.00    +0.000 C 
ATOM     21  O   UNL     1       5.134   1.964  20.121  0.00  0.00    +0.000 OA
BRANCH  20  25
ATOM     22  C   UNL     1       5.849   5.019  16.096  0.00  0.00    +0.000 A 
ATOM     23  C   UNL     1       4.741   4.175  16.062  0.00  0.00    +0.000 A 
ATOM     24  C   UNL     1       4.314   3.507  17.220  0.00  0.00    +0.000 A 
ATOM     25  C   UNL     1       5.008   3.655  18.434  0.00  0.00    +0.000 A 
ATOM     26  C   UNL     1       6.125   4.500  18.463  0.00  0.00    +0.000 A 
ATOM     27  C   UNL     1       6.543   5.178  17.300  0.00  0.00    +0.000 A 
BRANCH  22  29
ATOM     28  C   UNL     1       7.133   4.904  14.096  0.00  0.00    +0.000 C 
ATOM     29  O   UNL     1       6.178   5.591  14.896  0.00  0.00    +0.000 OA
ENDBRANCH  22  29
ENDBRANCH  20  25
ENDBRANCH  19  20
ENDBRANCH  18  19
ENDBRANCH   1  18
BRANCH   1  30
ATOM     30  C   UNL     1       1.121   4.681  19.412  0.00  0.00    +0.000 C 
BRANCH  30  31
ATOM     31  O   UNL     1       0.525   3.931  20.466  0.00  0.00    +0.000 OA
ATOM     32  H   UNL     1       0.636   4.449  21.285  0.00  0.00    +0.000 HD
ENDBRANCH  30  31
ENDBRANCH   1  30
TORSDOF 8
ENDMDL
MODEL 8
REMARK VINA RESULT:      -7.5      3.878     11.378
REMARK  Name = 
REMARK  9 active torsions:
REMARK  status: ('A' for Active; 'I' for Inactive)
REMARK    1  A    between atoms: C_1  and  O_2
REMARK    2  A    between atoms: O_2  and  C_3
REMARK    3  A    between atoms: C_6  and  C_7
REMARK    4  A    between atoms: C_7  and  O_9
REMARK    5  A    between atoms: O_9  and  C_10
REMARK    6  A    between atoms: C_10  and  C_11
REMARK    7  A    between atoms: C_11  and  C_12
REMARK    8  A    between atoms: C_12  and  O_13
REMARK    9  A    between atoms: C_16  and  C_17
REMARK                            x       y       z     vdW  Elec       q    Type
REMARK                         _______ _______ _______ _____ _____    ______ ____
ROOT
ATOM      1  C   UNL     1       0.466  10.259  19.780  0.00  0.00    +0.000 C 
ATOM      2  C   UNL     1       1.027   9.057  20.559  0.00  0.00    +0.000 C 
ATOM      3  C   UNL     1       1.710   8.211  19.512  0.00  0.00    +0.000 C 
ATOM      4  C   UNL     1       2.096   6.916  19.657  0.00  0.00    +0.000 C 
ATOM      5  C   UNL     1       1.873   9.114  18.335  0.00  0.00    +0.000 C 
ATOM      6  O   UNL     1       2.423   8.885  17.275  0.00  0.00    +0.000 OA
ATOM      7  O   UNL     1       1.290  10.316  18.600  0.00  0.00    +0.000 OA
ENDROOT
BRANCH   4   8
ATOM      8  C   UNL     1       2.963   6.053  18.792  0.00  0.00    +0.000 A 
ATOM      9  C   UNL     1       2.405   5.021  18.073  0.00  0.00    +0.000 A 
ATOM     10  C   UNL     1       3.194   4.200  17.281  0.00  0.00    +0.000 A 
ATOM     11  C   UNL     1       4.505   4.557  17.033  0.00  0.00    +0.000 A 
ATOM     12  C   UNL     1       5.232   3.819  16.087  0.00  0.00    +0.000 A 
ATOM     13  C   UNL     1       6.479   4.254  15.659  0.00  0.00    +0.000 A 
ATOM     14  C   UNL     1       7.007   5.405  16.237  0.00  0.00    +0.000 A 
ATOM     15  C   UNL     1       6.297   6.094  17.245  0.00  0.00    +0.000 A 
ATOM     16  C   UNL     1       5.015   5.709  17.663  0.00  0.00    +0.000 A 
ATOM     17  N   UNL     1       4.263   6.421  18.574  0.00  0.00    +0.000 NA
ENDBRANCH   4   8
BRANCH   1  18
ATOM     18  C   UNL     1       0.598  11.620  20.515  0.00  0.00    +0.000 C 
BRANCH  18  19
ATOM     19  O   UNL     1      -0.660  12.001  21.159  0.00  0.00    +0.000 OA
BRANCH  19  20
ATOM     20  C   UNL     1      -0.763  11.829  22.505  0.00  0.00    +0.000 C 
ATOM     21  O   UNL     1      -0.281  10.895  23.126  0.00  0.00    +0.000 OA
BRANCH  20  25
ATOM     22  C   UNL     1      -3.210  14.865  24.397  0.00  0.00    +0.000 A 
ATOM     23  C   UNL     1      -3.729  13.615  24.070  0.00  0.00    +0.000 A 
ATOM     24  C   UNL     1      -2.918  12.638  23.471  0.00  0.00    +0.000 A 
ATOM     25  C   UNL     1      -1.572  12.908  23.166  0.00  0.00    +0.000 A 
ATOM     26  C   UNL     1      -1.056  14.169  23.492  0.00  0.00    +0.000 A 
ATOM     27  C   UNL     1      -1.871  15.142  24.105  0.00  0.00    +0.000 A 
BRANCH  22  29
ATOM     28  C   UNL     1      -4.978  16.423  24.059  0.00  0.00    +0.000 C 
ATOM     29  O   UNL     1      -4.109  15.737  24.953  0.00  0.00    +0.000 OA
ENDBRANCH  22  29
ENDBRANCH  20  25
ENDBRANCH  19  20
ENDBRANCH  18  19
ENDBRANCH   1  18
BRANCH   1  30
ATOM     30  C   UNL     1      -0.999  10.065  19.353  0.00  0.00    +0.000 C 
BRANCH  30  31
ATOM     31  O   UNL     1      -1.465  11.132  18.533  0.00  0.00    +0.000 OA
ATOM     32  H   UNL     1      -1.797  10.736  17.706  0.00  0.00    +0.000 HD
ENDBRANCH  30  31
ENDBRANCH   1  30
TORSDOF 8
ENDMDL
MODEL 9
REMARK VINA RESULT:      -7.5      2.687      4.172
REMARK  Name = 
REMARK  9 active torsions:
REMARK  status: ('A' for Active; 'I' for Inactive)
REMARK    1  A    between atoms: C_1  and  O_2
REMARK    2  A    between atoms: O_2  and  C_3
REMARK    3  A    between atoms: C_6  and  C_7
REMARK    4  A    between atoms: C_7  and  O_9
REMARK    5  A    between atoms: O_9  and  C_10
REMARK    6  A    between atoms: C_10  and  C_11
REMARK    7  A    between atoms: C_11  and  C_12
REMARK    8  A    between atoms: C_12  and  O_13
REMARK    9  A    between atoms: C_16  and  C_17
REMARK                            x       y       z     vdW  Elec       q    Type
REMARK                         _______ _______ _______ _____ _____    ______ ____
ROOT
ATOM      1  C   UNL     1       2.214   5.675  19.854  0.00  0.00    +0.000 C 
ATOM      2  C   UNL     1       2.711   6.578  18.711  0.00  0.00    +0.000 C 
ATOM      3  C   UNL     1       1.982   7.884  18.916  0.00  0.00    +0.000 C 
ATOM      4  C   UNL     1       1.864   8.885  18.003  0.00  0.00    +0.000 C 
ATOM      5  C   UNL     1       1.466   7.822  20.313  0.00  0.00    +0.000 C 
ATOM      6  O   UNL     1       0.864   8.674  20.938  0.00  0.00    +0.000 OA
ATOM      7  O   UNL     1       1.763   6.608  20.854  0.00  0.00    +0.000 OA
ENDROOT
BRANCH   4   8
ATOM      8  C   UNL     1       1.369  10.291  18.155  0.00  0.00    +0.000 A 
ATOM      9  C   UNL     1       0.045  10.525  18.448  0.00  0.00    +0.000 A 
ATOM     10  C   UNL     1      -0.436  11.820  18.575  0.00  0.00    +0.000 A 
ATOM     11  C   UNL     1       0.459  12.870  18.634  0.00  0.00    +0.000 A 
ATOM     12  C   UNL     1      -0.028  14.149  18.944  0.00  0.00    +0.000 A 
ATOM     13  C   UNL     1       0.847  15.193  19.209  0.00  0.00    +0.000 A 
ATOM     14  C   UNL     1       2.213  14.949  19.098  0.00  0.00    +0.000 A 
ATOM     15  C   UNL     1       2.687  13.677  18.707  0.00  0.00    +0.000 A 
ATOM     16  C   UNL     1       1.832  12.589  18.482  0.00  0.00    +0.000 A 
ATOM     17  N   UNL     1       2.275  11.315  18.196  0.00  0.00    +0.000 NA
ENDBRANCH   4   8
BRANCH   1  18
ATOM     18  C   UNL     1       3.313   4.786  20.495  0.00  0.00    +0.000 C 
BRANCH  18  19
ATOM     19  O   UNL     1       3.395   3.482  19.835  0.00  0.00    +0.000 OA
BRANCH  19  20
ATOM     20  C   UNL     1       4.625   3.039  19.454  0.00  0.00    +0.000 C 
ATOM     21  O   UNL     1       5.091   1.947  19.742  0.00  0.00    +0.000 OA
BRANCH  20  25
ATOM     22  C   UNL     1       6.870   6.026  17.257  0.00  0.00    +0.000 A 
ATOM     23  C   UNL     1       7.060   5.834  18.624  0.00  0.00    +0.000 A 
ATOM     24  C   UNL     1       6.334   4.852  19.317  0.00  0.00    +0.000 A 
ATOM     25  C   UNL     1       5.384   4.057  18.653  0.00  0.00    +0.000 A 
ATOM     26  C   UNL     1       5.192   4.256  17.279  0.00  0.00    +0.000 A 
ATOM     27  C   UNL     1       5.931   5.235  16.586  0.00  0.00    +0.000 A 
BRANCH  22  29
ATOM     28  C   UNL     1       7.819   8.195  17.498  0.00  0.00    +0.000 C 
ATOM     29  O   UNL     1       7.619   7.031  16.704  0.00  0.00    +0.000 OA
ENDBRANCH  22  29
ENDBRANCH  20  25
ENDBRANCH  19  20
ENDBRANCH  18  19
ENDBRANCH   1  18
BRANCH   1  30
ATOM     30  C   UNL     1       1.031   4.782  19.440  0.00  0.00    +0.000 C 
BRANCH  30  31
ATOM     31  O   UNL     1       0.624   3.910  20.490  0.00  0.00    +0.000 OA
ATOM     32  H   UNL     1       1.061   4.219  21.306  0.00  0.00    +0.000 HD
ENDBRANCH  30  31
ENDBRANCH   1  30
TORSDOF 8
ENDMDL
