MODEL 1
REMARK VINA RESULT:      -7.6      0.000      0.000
REMARK  Name = 
REMARK  6 active torsions:
REMARK  status: ('A' for Active; 'I' for Inactive)
REMARK    1  A    between atoms: C_1  and  C_2
REMARK    2  A    between atoms: C_2  and  O_3
REMARK    3  A    between atoms: O_3  and  C_4
REMARK    4  A    between atoms: C_4  and  C_6
REMARK    5  A    between atoms: C_11  and  N_12
REMARK    6  A    between atoms: C_13  and  C_15
REMARK                            x       y       z     vdW  Elec       q    Type
REMARK                         _______ _______ _______ _____ _____    ______ ____
ROOT
ATOM      1  C   UNL     1       6.050   3.989  13.927  0.00  0.00    +0.000 A 
ATOM      2  C   UNL     1       7.198   4.760  14.106  0.00  0.00    +0.000 A 
ATOM      3  C   UNL     1       7.530   5.219  15.380  0.00  0.00    +0.000 A 
ATOM      4  C   UNL     1       6.719   4.928  16.489  0.00  0.00    +0.000 A 
ATOM      5 CL   UNL     1       7.432   5.333  18.011  0.00  0.00    +0.000 Cl
ATOM      6  C   UNL     1       5.521   4.204  16.323  0.00  0.00    +0.000 A 
ATOM      7  C   UNL     1       5.220   3.719  15.030  0.00  0.00    +0.000 A 
ENDROOT
BRANCH   6   8
ATOM      8  N   UNL     1       4.575   3.846  17.328  0.00  0.00    +0.000 N 
ATOM      9  C   UNL     1       3.648   4.657  17.960  0.00  0.00    +0.000 C 
ATOM     10  O   UNL     1       3.363   5.813  17.681  0.00  0.00    +0.000 OA
ATOM     11  H   UNL     1       4.507   2.857  17.526  0.00  0.00    +0.000 HD
BRANCH   9  12
ATOM     12  C   UNL     1       2.885   4.030  19.063  0.00  0.00    +0.000 A 
ATOM     13  C   UNL     1       1.524   4.252  19.288  0.00  0.00    +0.000 A 
ATOM     14  C   UNL     1       0.908   3.643  20.383  0.00  0.00    +0.000 A 
ATOM     15  C   UNL     1       1.670   2.832  21.211  0.00  0.00    +0.000 A 
ATOM     16  N   UNL     1       2.987   2.603  21.022  0.00  0.00    +0.000 NA
ATOM     17  C   UNL     1       3.569   3.219  19.963  0.00  0.00    +0.000 A 
ENDBRANCH   9  12
ENDBRANCH   6   8
BRANCH   1  18
ATOM     18  C   UNL     1       5.771   3.482  12.555  0.00  0.00    +0.000 C 
ATOM     19  O   UNL     1       6.615   2.939  11.861  0.00  0.00    +0.000 OA
BRANCH  18  20
ATOM     20  O   UNL     1       4.478   3.706  12.209  0.00  0.00    +0.000 OA
BRANCH  20  22
ATOM     21  C   UNL     1       3.228   3.911  10.143  0.00  0.00    +0.000 C 
ATOM     22  C   UNL     1       4.020   2.990  11.052  0.00  0.00    +0.000 C 
ENDBRANCH  20  22
ENDBRANCH  18  20
ENDBRANCH   1  18
TORSDOF 5
ENDMDL
MODEL 2
REMARK VINA RESULT:      -7.3      0.659      1.051
REMARK  Name = 
REMARK  6 active torsions:
REMARK  status: ('A' for Active; 'I' for Inactive)
REMARK    1  A    between atoms: C_1  and  C_2
REMARK    2  A    between atoms: C_2  and  O_3
REMARK    3  A    between atoms: O_3  and  C_4
REMARK    4  A    between atoms: C_4  and  C_6
REMARK    5  A    between atoms: C_11  and  N_12
REMARK    6  A    between atoms: C_13  and  C_15
REMARK                            x       y       z     vdW  Elec       q    Type
REMARK                         _______ _______ _______ _____ _____    ______ ____
ROOT
ATOM      1  C   UNL     1       6.042   4.020  14.005  0.00  0.00    +0.000 A 
ATOM      2  C   UNL     1       7.188   4.791  14.193  0.00  0.00    +0.000 A 
ATOM      3  C   UNL     1       7.507   5.254  15.469  0.00  0.00    +0.000 A 
ATOM      4  C   UNL     1       6.684   4.967  16.571  0.00  0.00    +0.000 A 
ATOM      5 CL   UNL     1       7.382   5.378  18.098  0.00  0.00    +0.000 Cl
ATOM      6  C   UNL     1       5.488   4.243  16.394  0.00  0.00    +0.000 A 
ATOM      7  C   UNL     1       5.200   3.753  15.100  0.00  0.00    +0.000 A 
ENDROOT
BRANCH   6   8
ATOM      8  N   UNL     1       4.532   3.889  17.391  0.00  0.00    +0.000 N 
ATOM      9  C   UNL     1       3.689   4.723  18.105  0.00  0.00    +0.000 C 
ATOM     10  O   UNL     1       3.500   5.918  17.922  0.00  0.00    +0.000 OA
ATOM     11  H   UNL     1       4.382   2.896  17.514  0.00  0.00    +0.000 HD
BRANCH   9  12
ATOM     12  C   UNL     1       2.893   4.078  19.174  0.00  0.00    +0.000 A 
ATOM     13  C   UNL     1       3.458   3.441  20.283  0.00  0.00    +0.000 A 
ATOM     14  C   UNL     1       2.618   2.826  21.214  0.00  0.00    +0.000 A 
ATOM     15  C   UNL     1       1.246   2.872  21.007  0.00  0.00    +0.000 A 
ATOM     16  N   UNL     1       0.673   3.475  19.943  0.00  0.00    +0.000 NA
ATOM     17  C   UNL     1       1.509   4.050  19.042  0.00  0.00    +0.000 A 
ENDBRANCH   9  12
ENDBRANCH   6   8
BRANCH   1  18
ATOM     18  C   UNL     1       5.777   3.508  12.632  0.00  0.00    +0.000 C 
ATOM     19  O   UNL     1       6.651   3.055  11.910  0.00  0.00    +0.000 OA
BRANCH  18  20
ATOM     20  O   UNL     1       4.461   3.616  12.320  0.00  0.00    +0.000 OA
BRANCH  20  22
ATOM     21  C   UNL     1       3.314   3.911  10.206  0.00  0.00    +0.000 C 
ATOM     22  C   UNL     1       4.060   2.950  11.113  0.00  0.00    +0.000 C 
ENDBRANCH  20  22
ENDBRANCH  18  20
ENDBRANCH   1  18
TORSDOF 5
ENDMDL
MODEL 3
REMARK VINA RESULT:      -7.3      4.237      5.782
REMARK  Name = 
REMARK  6 active torsions:
REMARK  status: ('A' for Active; 'I' for Inactive)
REMARK    1  A    between atoms: C_1  and  C_2
REMARK    2  A    between atoms: C_2  and  O_3
REMARK    3  A    between atoms: O_3  and  C_4
REMARK    4  A    between atoms: C_4  and  C_6
REMARK    5  A    between atoms: C_11  and  N_12
REMARK    6  A    between atoms: C_13  and  C_15
REMARK                            x       y       z     vdW  Elec       q    Type
REMARK                         _______ _______ _______ _____ _____    ______ ____
ROOT
ATOM      1  C   UNL     1       5.423   5.418  17.027  0.00  0.00    +0.000 A 
ATOM      2  C   UNL     1       4.998   4.155  16.617  0.00  0.00    +0.000 A 
ATOM      3  C   UNL     1       3.722   3.711  16.960  0.00  0.00    +0.000 A 
ATOM      4  C   UNL     1       2.857   4.511  17.725  0.00  0.00    +0.000 A 
ATOM      5 CL   UNL     1       1.235   3.919  17.806  0.00  0.00    +0.000 Cl
ATOM      6  C   UNL     1       3.288   5.765  18.203  0.00  0.00    +0.000 A 
ATOM      7  C   UNL     1       4.572   6.212  17.816  0.00  0.00    +0.000 A 
ENDROOT
BRANCH   6   8
ATOM      8  N   UNL     1       2.554   6.686  19.008  0.00  0.00    +0.000 N 
ATOM      9  C   UNL     1       2.114   7.955  18.672  0.00  0.00    +0.000 C 
ATOM     10  O   UNL     1       2.147   8.483  17.570  0.00  0.00    +0.000 OA
ATOM     11  H   UNL     1       2.230   6.323  19.894  0.00  0.00    +0.000 HD
BRANCH   9  12
ATOM     12  C   UNL     1       1.486   8.732  19.767  0.00  0.00    +0.000 A 
ATOM     13  C   UNL     1       1.444   8.302  21.096  0.00  0.00    +0.000 A 
ATOM     14  C   UNL     1       0.790   9.091  22.044  0.00  0.00    +0.000 A 
ATOM     15  C   UNL     1       0.207  10.282  21.633  0.00  0.00    +0.000 A 
ATOM     16  N   UNL     1       0.228  10.719  20.356  0.00  0.00    +0.000 NA
ATOM     17  C   UNL     1       0.852   9.927  19.449  0.00  0.00    +0.000 A 
ENDBRANCH   9  12
ENDBRANCH   6   8
BRANCH   1  18
ATOM     18  C   UNL     1       6.775   5.863  16.588  0.00  0.00    +0.000 C 
ATOM     19  O   UNL     1       7.591   5.113  16.080  0.00  0.00    +0.000 OA
BRANCH  18  20
ATOM     20  O   UNL     1       6.951   7.187  16.831  0.00  0.00    +0.000 OA
BRANCH  20  22
ATOM     21  C   UNL     1       8.162   8.987  17.912  0.00  0.00    +0.000 C 
ATOM     22  C   UNL     1       7.866   7.498  17.893  0.00  0.00    +0.000 C 
ENDBRANCH  20  22
ENDBRANCH  18  20
ENDBRANCH   1  18
TORSDOF 5
ENDMDL
MODEL 4
REMARK VINA RESULT:      -7.2      4.279      5.829
REMARK  Name = 
REMARK  6 active torsions:
REMARK  status: ('A' for Active; 'I' for Inactive)
REMARK    1  A    between atoms: C_1  and  C_2
REMARK    2  A    between atoms: C_2  and  O_3
REMARK    3  A    between atoms: O_3  and  C_4
REMARK    4  A    between atoms: C_4  and  C_6
REMARK    5  A    between atoms: C_11  and  N_12
REMARK    6  A    between atoms: C_13  and  C_15
REMARK                            x       y       z     vdW  Elec       q    Type
REMARK                         _______ _______ _______ _____ _____    ______ ____
ROOT
ATOM      1  C   UNL     1       5.423   5.765  16.937  0.00  0.00    +0.000 A 
ATOM      2  C   UNL     1       5.101   4.446  16.618  0.00  0.00    +0.000 A 
ATOM      3  C   UNL     1       3.859   3.930  16.983  0.00  0.00    +0.000 A 
ATOM      4  C   UNL     1       2.925   4.715  17.680  0.00  0.00    +0.000 A 
ATOM      5 CL   UNL     1       1.352   4.006  17.793  0.00  0.00    +0.000 Cl
ATOM      6  C   UNL     1       3.252   6.030  18.068  0.00  0.00    +0.000 A 
ATOM      7  C   UNL     1       4.502   6.545  17.658  0.00  0.00    +0.000 A 
ENDROOT
BRANCH   6   8
ATOM      8  N   UNL     1       2.439   6.947  18.796  0.00  0.00    +0.000 N 
ATOM      9  C   UNL     1       2.080   8.238  18.448  0.00  0.00    +0.000 C 
ATOM     10  O   UNL     1       2.276   8.798  17.379  0.00  0.00    +0.000 OA
ATOM     11  H   UNL     1       1.988   6.568  19.618  0.00  0.00    +0.000 HD
BRANCH   9  12
ATOM     12  C   UNL     1       1.329   9.000  19.473  0.00  0.00    +0.000 A 
ATOM     13  C   UNL     1       0.661  10.200  19.211  0.00  0.00    +0.000 A 
ATOM     14  C   UNL     1       0.018  10.861  20.259  0.00  0.00    +0.000 A 
ATOM     15  C   UNL     1       0.061  10.300  21.528  0.00  0.00    +0.000 A 
ATOM     16  N   UNL     1       0.703   9.147  21.811  0.00  0.00    +0.000 NA
ATOM     17  C   UNL     1       1.336   8.531  20.782  0.00  0.00    +0.000 A 
ENDBRANCH   9  12
ENDBRANCH   6   8
BRANCH   1  18
ATOM     18  C   UNL     1       6.742   6.280  16.477  0.00  0.00    +0.000 C 
ATOM     19  O   UNL     1       7.523   5.616  15.814  0.00  0.00    +0.000 OA
BRANCH  18  20
ATOM     20  O   UNL     1       6.935   7.558  16.893  0.00  0.00    +0.000 OA
BRANCH  20  22
ATOM     21  C   UNL     1       8.281   9.203  18.056  0.00  0.00    +0.000 C 
ATOM     22  C   UNL     1       7.955   7.731  17.888  0.00  0.00    +0.000 C 
ENDBRANCH  20  22
ENDBRANCH  18  20
ENDBRANCH   1  18
TORSDOF 5
ENDMDL
MODEL 5
REMARK VINA RESULT:      -7.2      1.071      1.106
REMARK  Name = 
REMARK  6 active torsions:
REMARK  status: ('A' for Active; 'I' for Inactive)
REMARK    1  A    between atoms: C_1  and  C_2
REMARK    2  A    between atoms: C_2  and  O_3
REMARK    3  A    between atoms: O_3  and  C_4
REMARK    4  A    between atoms: C_4  and  C_6
REMARK    5  A    between atoms: C_11  and  N_12
REMARK    6  A    between atoms: C_13  and  C_15
REMARK                            x       y       z     vdW  Elec       q    Type
REMARK                         _______ _______ _______ _____ _____    ______ ____
ROOT
ATOM      1  C   UNL     1       6.042   4.169  13.939  0.00  0.00    +0.000 A 
ATOM      2  C   UNL     1       7.225   4.900  14.041  0.00  0.00    +0.000 A 
ATOM      3  C   UNL     1       7.547   5.528  15.243  0.00  0.00    +0.000 A 
ATOM      4  C   UNL     1       6.692   5.448  16.355  0.00  0.00    +0.000 A 
ATOM      5 CL   UNL     1       7.385   6.041  17.823  0.00  0.00    +0.000 Cl
ATOM      6  C   UNL     1       5.461   4.768  16.256  0.00  0.00    +0.000 A 
ATOM      7  C   UNL     1       5.169   4.109  15.040  0.00  0.00    +0.000 A 
ENDROOT
BRANCH   6   8
ATOM      8  N   UNL     1       4.471   4.613  17.270  0.00  0.00    +0.000 N 
ATOM      9  C   UNL     1       4.602   4.018  18.513  0.00  0.00    +0.000 C 
ATOM     10  O   UNL     1       5.634   3.631  19.043  0.00  0.00    +0.000 OA
ATOM     11  H   UNL     1       3.595   5.088  17.096  0.00  0.00    +0.000 HD
BRANCH   9  12
ATOM     12  C   UNL     1       3.356   3.888  19.303  0.00  0.00    +0.000 A 
ATOM     13  C   UNL     1       2.808   4.927  20.062  0.00  0.00    +0.000 A 
ATOM     14  C   UNL     1       1.651   4.687  20.805  0.00  0.00    +0.000 A 
ATOM     15  C   UNL     1       1.080   3.423  20.762  0.00  0.00    +0.000 A 
ATOM     16  N   UNL     1       1.590   2.400  20.043  0.00  0.00    +0.000 NA
ATOM     17  C   UNL     1       2.725   2.650  19.343  0.00  0.00    +0.000 A 
ENDBRANCH   9  12
ENDBRANCH   6   8
BRANCH   1  18
ATOM     18  C   UNL     1       5.773   3.476  12.649  0.00  0.00    +0.000 C 
ATOM     19  O   UNL     1       6.644   2.931  11.990  0.00  0.00    +0.000 OA
BRANCH  18  20
ATOM     20  O   UNL     1       4.455   3.540  12.330  0.00  0.00    +0.000 OA
BRANCH  20  22
ATOM     21  C   UNL     1       3.317   3.927  10.225  0.00  0.00    +0.000 C 
ATOM     22  C   UNL     1       4.098   2.941  11.075  0.00  0.00    +0.000 C 
ENDBRANCH  20  22
ENDBRANCH  18  20
ENDBRANCH   1  18
TORSDOF 5
ENDMDL
MODEL 6
REMARK VINA RESULT:      -7.2      3.924      4.939
REMARK  Name = 
REMARK  6 active torsions:
REMARK  status: ('A' for Active; 'I' for Inactive)
REMARK    1  A    between atoms: C_1  and  C_2
REMARK    2  A    between atoms: C_2  and  O_3
REMARK    3  A    between atoms: O_3  and  C_4
REMARK    4  A    between atoms: C_4  and  C_6
REMARK    5  A    between atoms: C_11  and  N_12
REMARK    6  A    between atoms: C_13  and  C_15
REMARK                            x       y       z     vdW  Elec       q    Type
REMARK                         _______ _______ _______ _____ _____    ______ ____
ROOT
ATOM      1  C   UNL     1       5.541   5.237  16.729  0.00  0.00    +0.000 A 
ATOM      2  C   UNL     1       5.030   3.948  16.580  0.00  0.00    +0.000 A 
ATOM      3  C   UNL     1       3.751   3.653  17.048  0.00  0.00    +0.000 A 
ATOM      4  C   UNL     1       2.968   4.632  17.682  0.00  0.00    +0.000 A 
ATOM      5 CL   UNL     1       1.323   4.165  17.935  0.00  0.00    +0.000 Cl
ATOM      6  C   UNL     1       3.487   5.925  17.900  0.00  0.00    +0.000 A 
ATOM      7  C   UNL     1       4.772   6.213  17.387  0.00  0.00    +0.000 A 
ENDROOT
BRANCH   6   8
ATOM      8  N   UNL     1       2.843   7.021  18.544  0.00  0.00    +0.000 N 
ATOM      9  C   UNL     1       2.202   7.038  19.771  0.00  0.00    +0.000 C 
ATOM     10  O   UNL     1       2.182   6.148  20.609  0.00  0.00    +0.000 OA
ATOM     11  H   UNL     1       2.961   7.919  18.093  0.00  0.00    +0.000 HD
BRANCH   9  12
ATOM     12  C   UNL     1       1.509   8.300  20.122  0.00  0.00    +0.000 A 
ATOM     13  C   UNL     1       1.213   9.304  19.195  0.00  0.00    +0.000 A 
ATOM     14  C   UNL     1       0.593  10.475  19.638  0.00  0.00    +0.000 A 
ATOM     15  C   UNL     1       0.287  10.599  20.986  0.00  0.00    +0.000 A 
ATOM     16  N   UNL     1       0.565   9.648  21.903  0.00  0.00    +0.000 NA
ATOM     17  C   UNL     1       1.184   8.528  21.454  0.00  0.00    +0.000 A 
ENDBRANCH   9  12
ENDBRANCH   6   8
BRANCH   1  18
ATOM     18  C   UNL     1       6.891   5.509  16.164  0.00  0.00    +0.000 C 
ATOM     19  O   UNL     1       7.553   6.490  16.462  0.00  0.00    +0.000 OA
BRANCH  18  20
ATOM     20  O   UNL     1       7.260   4.531  15.297  0.00  0.00    +0.000 OA
BRANCH  20  22
ATOM     21  C   UNL     1       6.336   3.812  13.175  0.00  0.00    +0.000 C 
ATOM     22  C   UNL     1       7.143   4.869  13.907  0.00  0.00    +0.000 C 
ENDBRANCH  20  22
ENDBRANCH  18  20
ENDBRANCH   1  18
TORSDOF 5
ENDMDL
MODEL 7
REMARK VINA RESULT:      -7.1      3.187      7.652
REMARK  Name = 
REMARK  6 active torsions:
REMARK  status: ('A' for Active; 'I' for Inactive)
REMARK    1  A    between atoms: C_1  and  C_2
REMARK    2  A    between atoms: C_2  and  O_3
REMARK    3  A    between atoms: O_3  and  C_4
REMARK    4  A    between atoms: C_4  and  C_6
REMARK    5  A    between atoms: C_11  and  N_12
REMARK    6  A    between atoms: C_13  and  C_15
REMARK                            x       y       z     vdW  Elec       q    Type
REMARK                         _______ _______ _______ _____ _____    ______ ____
ROOT
ATOM      1  C   UNL     1       1.989   6.719  20.119  0.00  0.00    +0.000 A 
ATOM      2  C   UNL     1       1.546   5.705  20.968  0.00  0.00    +0.000 A 
ATOM      3  C   UNL     1       1.937   4.388  20.733  0.00  0.00    +0.000 A 
ATOM      4  C   UNL     1       2.763   4.060  19.646  0.00  0.00    +0.000 A 
ATOM      5 CL   UNL     1       3.367   2.441  19.681  0.00  0.00    +0.000 Cl
ATOM      6  C   UNL     1       3.172   5.058  18.738  0.00  0.00    +0.000 A 
ATOM      7  C   UNL     1       2.793   6.392  19.013  0.00  0.00    +0.000 A 
ENDROOT
BRANCH   6   8
ATOM      8  N   UNL     1       3.982   4.896  17.576  0.00  0.00    +0.000 N 
ATOM      9  C   UNL     1       5.337   4.618  17.508  0.00  0.00    +0.000 C 
ATOM     10  O   UNL     1       6.079   4.319  18.432  0.00  0.00    +0.000 OA
ATOM     11  H   UNL     1       3.481   4.881  16.698  0.00  0.00    +0.000 HD
BRANCH   9  12
ATOM     12  C   UNL     1       5.933   4.637  16.152  0.00  0.00    +0.000 A 
ATOM     13  C   UNL     1       5.432   3.901  15.075  0.00  0.00    +0.000 A 
ATOM     14  C   UNL     1       6.095   3.957  13.847  0.00  0.00    +0.000 A 
ATOM     15  C   UNL     1       7.230   4.748  13.738  0.00  0.00    +0.000 A 
ATOM     16  N   UNL     1       7.739   5.465  14.762  0.00  0.00    +0.000 NA
ATOM     17  C   UNL     1       7.090   5.381  15.950  0.00  0.00    +0.000 A 
ENDBRANCH   9  12
ENDBRANCH   6   8
BRANCH   1  18
ATOM     18  C   UNL     1       1.584   8.114  20.446  0.00  0.00    +0.000 C 
ATOM     19  O   UNL     1       1.347   8.490  21.583  0.00  0.00    +0.000 OA
BRANCH  18  20
ATOM     20  O   UNL     1       1.524   8.876  19.325  0.00  0.00    +0.000 OA
BRANCH  20  22
ATOM     21  C   UNL     1      -0.524  10.112  18.932  0.00  0.00    +0.000 C 
ATOM     22  C   UNL     1       0.889  10.154  19.486  0.00  0.00    +0.000 C 
ENDBRANCH  20  22
ENDBRANCH  18  20
ENDBRANCH   1  18
TORSDOF 5
ENDMDL
MODEL 8
REMARK VINA RESULT:      -7.1      3.190      8.014
REMARK  Name = 
REMARK  6 active torsions:
REMARK  status: ('A' for Active; 'I' for Inactive)
REMARK    1  A    between atoms: C_1  and  C_2
REMARK    2  A    between atoms: C_2  and  O_3
REMARK    3  A    between atoms: O_3  and  C_4
REMARK    4  A    between atoms: C_4  and  C_6
REMARK    5  A    between atoms: C_11  and  N_12
REMARK    6  A    between atoms: C_13  and  C_15
REMARK                            x       y       z     vdW  Elec       q    Type
REMARK                         _______ _______ _______ _____ _____    ______ ____
ROOT
ATOM      1  C   UNL     1       1.980   6.595  20.028  0.00  0.00    +0.000 A 
ATOM      2  C   UNL     1       1.535   5.581  20.875  0.00  0.00    +0.000 A 
ATOM      3  C   UNL     1       1.926   4.264  20.641  0.00  0.00    +0.000 A 
ATOM      4  C   UNL     1       2.755   3.936  19.556  0.00  0.00    +0.000 A 
ATOM      5 CL   UNL     1       3.360   2.317  19.592  0.00  0.00    +0.000 Cl
ATOM      6  C   UNL     1       3.167   4.935  18.650  0.00  0.00    +0.000 A 
ATOM      7  C   UNL     1       2.788   6.268  18.924  0.00  0.00    +0.000 A 
ENDROOT
BRANCH   6   8
ATOM      8  N   UNL     1       3.981   4.773  17.490  0.00  0.00    +0.000 N 
ATOM      9  C   UNL     1       5.362   4.767  17.407  0.00  0.00    +0.000 C 
ATOM     10  O   UNL     1       6.160   4.760  18.333  0.00  0.00    +0.000 OA
ATOM     11  H   UNL     1       3.484   4.531  16.643  0.00  0.00    +0.000 HD
BRANCH   9  12
ATOM     12  C   UNL     1       5.927   4.710  16.039  0.00  0.00    +0.000 A 
ATOM     13  C   UNL     1       5.311   4.048  14.973  0.00  0.00    +0.000 A 
ATOM     14  C   UNL     1       5.949   4.018  13.731  0.00  0.00    +0.000 A 
ATOM     15  C   UNL     1       7.176   4.653  13.597  0.00  0.00    +0.000 A 
ATOM     16  N   UNL     1       7.797   5.295  14.609  0.00  0.00    +0.000 NA
ATOM     17  C   UNL     1       7.168   5.295  15.811  0.00  0.00    +0.000 A 
ENDBRANCH   9  12
ENDBRANCH   6   8
BRANCH   1  18
ATOM     18  C   UNL     1       1.574   7.990  20.355  0.00  0.00    +0.000 C 
ATOM     19  O   UNL     1       1.484   8.872  19.517  0.00  0.00    +0.000 OA
BRANCH  18  20
ATOM     20  O   UNL     1       1.327   8.123  21.683  0.00  0.00    +0.000 OA
BRANCH  20  22
ATOM     21  C   UNL     1       0.001   9.468  23.202  0.00  0.00    +0.000 C 
ATOM     22  C   UNL     1       1.072   9.465  22.127  0.00  0.00    +0.000 C 
ENDBRANCH  20  22
ENDBRANCH  18  20
ENDBRANCH   1  18
TORSDOF 5
ENDMDL
MODEL 9
REMARK VINA RESULT:      -7.0      2.812      7.689
REMARK  Name = 
REMARK  6 active torsions:
REMARK  status: ('A' for Active; 'I' for Inactive)
REMARK    1  A    between atoms: C_1  and  C_2
REMARK    2  A    between atoms: C_2  and  O_3
REMARK    3  A    between atoms: O_3  and  C_4
REMARK    4  A    between atoms: C_4  and  C_6
REMARK    5  A    between atoms: C_11  and  N_12
REMARK    6  A    between atoms: C_13  and  C_15
REMARK                            x       y       z     vdW  Elec       q    Type
REMARK                         _______ _______ _______ _____ _____    ______ ____
ROOT
ATOM      1  C   UNL     1       2.395   5.837  19.142  0.00  0.00    +0.000 A 
ATOM      2  C   UNL     1       1.914   4.749  19.870  0.00  0.00    +0.000 A 
ATOM      3  C   UNL     1       2.252   3.454  19.480  0.00  0.00    +0.000 A 
ATOM      4  C   UNL     1       3.061   3.223  18.355  0.00  0.00    +0.000 A 
ATOM      5 CL   UNL     1       3.601   1.589  18.196  0.00  0.00    +0.000 Cl
ATOM      6  C   UNL     1       3.507   4.304  17.567  0.00  0.00    +0.000 A 
ATOM      7  C   UNL     1       3.182   5.611  17.999  0.00  0.00    +0.000 A 
ENDROOT
BRANCH   6   8
ATOM      8  N   UNL     1       4.307   4.248  16.389  0.00  0.00    +0.000 N 
ATOM      9  C   UNL     1       5.679   4.390  16.277  0.00  0.00    +0.000 C 
ATOM     10  O   UNL     1       6.494   4.453  17.186  0.00  0.00    +0.000 OA
ATOM     11  H   UNL     1       3.819   3.968  15.548  0.00  0.00    +0.000 HD
BRANCH   9  12
ATOM     12  C   UNL     1       6.217   4.415  14.896  0.00  0.00    +0.000 A 
ATOM     13  C   UNL     1       5.714   3.629  13.855  0.00  0.00    +0.000 A 
ATOM     14  C   UNL     1       6.320   3.697  12.599  0.00  0.00    +0.000 A 
ATOM     15  C   UNL     1       7.403   4.548  12.427  0.00  0.00    +0.000 A 
ATOM     16  N   UNL     1       7.913   5.314  13.415  0.00  0.00    +0.000 NA
ATOM     17  C   UNL     1       7.320   5.218  14.631  0.00  0.00    +0.000 A 
ENDBRANCH   9  12
ENDBRANCH   6   8
BRANCH   1  18
ATOM     18  C   UNL     1       2.046   7.198  19.634  0.00  0.00    +0.000 C 
ATOM     19  O   UNL     1       2.228   8.211  18.978  0.00  0.00    +0.000 OA
BRANCH  18  20
ATOM     20  O   UNL     1       1.512   7.141  20.881  0.00  0.00    +0.000 OA
BRANCH  20  22
ATOM     21  C   UNL     1      -0.271   8.612  21.609  0.00  0.00    +0.000 C 
ATOM     22  C   UNL     1       1.229   8.412  21.485  0.00  0.00    +0.000 C 
ENDBRANCH  20  22
ENDBRANCH  18  20
ENDBRANCH   1  18
TORSDOF 5
ENDMDL
