MODEL 1
REMARK VINA RESULT:      -8.2      0.000      0.000
REMARK  Name = 
REMARK  13 active torsions:
REMARK  status: ('A' for Active; 'I' for Inactive)
REMARK    1  A    between atoms: C_1  and  C_2
REMARK    2  A    between atoms: C_2  and  C_3
REMARK    3  A    between atoms: C_3  and  C_4
REMARK    4  A    between atoms: C_5  and  C_6
REMARK    5  A    between atoms: C_8  and  C_9
REMARK    6  A    between atoms: C_12  and  C_13
REMARK    7  A    between atoms: C_13  and  N_14
REMARK    8  A    between atoms: C_16  and  C_17
REMARK    9  A    between atoms: C_17  and  O_19
REMARK   10  A    between atoms: C_27  and  C_28
REMARK   11  A    between atoms: C_28  and  C_29
REMARK   12  A    between atoms: C_29  and  C_30
REMARK   13  A    between atoms: C_29  and  C_31
REMARK                            x       y       z     vdW  Elec       q    Type
REMARK                         _______ _______ _______ _____ _____    ______ ____
ROOT
ATOM      1  C   UNL     1       2.115   8.225  18.695  0.00  0.00    +0.000 A 
ATOM      2  N   UNL     1       1.435   8.467  19.798  0.00  0.00    +0.000 NA
ATOM      3  C   UNL     1       0.848   9.680  19.546  0.00  0.00    +0.000 A 
ATOM      4  N   UNL     1       1.101  10.169  18.322  0.00  0.00    +0.000 NA
ATOM      5  O   UNL     1       1.971   9.230  17.771  0.00  0.00    +0.000 OA
ENDROOT
BRANCH   3   6
ATOM      6  C   UNL     1       0.066  10.383  20.548  0.00  0.00    +0.000 A 
ATOM      7  C   UNL     1      -0.872  11.350  20.164  0.00  0.00    +0.000 A 
ATOM      8  C   UNL     1      -1.668  11.992  21.123  0.00  0.00    +0.000 A 
ATOM      9  C   UNL     1      -1.540  11.674  22.481  0.00  0.00    +0.000 A 
ATOM     10  C   UNL     1      -0.558  10.741  22.860  0.00  0.00    +0.000 A 
ATOM     11  C   UNL     1       0.228  10.092  21.905  0.00  0.00    +0.000 A 
BRANCH   9  12
ATOM     12  C   UNL     1      -2.372  12.333  23.566  0.00  0.00    +0.000 C 
BRANCH  12  13
ATOM     13  N   UNL     1      -3.825  12.049  23.534  0.00  0.00    +0.000 NA
ATOM     14  C   UNL     1      -4.480  12.496  24.787  0.00  0.00    +0.000 C 
ATOM     15  C   UNL     1      -5.534  13.232  23.940  0.00  0.00    +0.000 C 
ATOM     16  C   UNL     1      -4.509  13.142  22.795  0.00  0.00    +0.000 C 
BRANCH  15  17
ATOM     17  C   UNL     1      -6.907  12.563  23.751  0.00  0.00    +0.000 C 
ATOM     18  O   UNL     1      -7.135  11.366  23.907  0.00  0.00    +0.000 OA
BRANCH  17  19
ATOM     19  O   UNL     1      -7.916  13.411  23.398  0.00  0.00    +0.000 OA
ATOM     20  H   UNL     1      -7.683  13.943  22.604  0.00  0.00    +0.000 HD
ENDBRANCH  17  19
ENDBRANCH  15  17
ENDBRANCH  12  13
ENDBRANCH   9  12
ENDBRANCH   3   6
BRANCH   1  22
ATOM     21  C   UNL     1       2.975   5.814  19.263  0.00  0.00    +0.000 A 
ATOM     22  C   UNL     1       2.953   7.005  18.475  0.00  0.00    +0.000 A 
ATOM     23  N   UNL     1       3.785   6.913  17.431  0.00  0.00    +0.000 NA
ATOM     24  O   UNL     1       4.415   5.698  17.554  0.00  0.00    +0.000 OA
ATOM     25  C   UNL     1       3.939   5.039  18.642  0.00  0.00    +0.000 A 
BRANCH  21  26
ATOM     26  C   UNL     1       2.099   5.440  20.414  0.00  0.00    +0.000 C 
BRANCH  26  28
ATOM     27  C   UNL     1       1.472   3.044  21.063  0.00  0.00    +0.000 C 
ATOM     28  C   UNL     1       1.210   4.220  20.131  0.00  0.00    +0.000 C 
ENDBRANCH  26  28
ENDBRANCH  21  26
BRANCH  25  29
ATOM     29  C   UNL     1       4.497   3.674  18.859  0.00  0.00    +0.000 C 
BRANCH  29  30
ATOM     30  C   UNL     1       3.960   2.637  17.852  0.00  0.00    +0.000 C 
ATOM     31  C   UNL     1       3.733   1.267  18.496  0.00  0.00    +0.000 C 
ATOM     32  C   UNL     1       2.653   3.132  17.228  0.00  0.00    +0.000 C 
ENDBRANCH  29  30
ENDBRANCH  25  29
ENDBRANCH   1  22
TORSDOF 10
ENDMDL
MODEL 2
REMARK VINA RESULT:      -8.0      0.531      1.171
REMARK  Name = 
REMARK  13 active torsions:
REMARK  status: ('A' for Active; 'I' for Inactive)
REMARK    1  A    between atoms: C_1  and  C_2
REMARK    2  A    between atoms: C_2  and  C_3
REMARK    3  A    between atoms: C_3  and  C_4
REMARK    4  A    between atoms: C_5  and  C_6
REMARK    5  A    between atoms: C_8  and  C_9
REMARK    6  A    between atoms: C_12  and  C_13
REMARK    7  A    between atoms: C_13  and  N_14
REMARK    8  A    between atoms: C_16  and  C_17
REMARK    9  A    between atoms: C_17  and  O_19
REMARK   10  A    between atoms: C_27  and  C_28
REMARK   11  A    between atoms: C_28  and  C_29
REMARK   12  A    between atoms: C_29  and  C_30
REMARK   13  A    between atoms: C_29  and  C_31
REMARK                            x       y       z     vdW  Elec       q    Type
REMARK                         _______ _______ _______ _____ _____    ______ ____
ROOT
ATOM      1  C   UNL     1       2.186   8.239  18.523  0.00  0.00    +0.000 A 
ATOM      2  N   UNL     1       1.524   8.467  19.640  0.00  0.00    +0.000 NA
ATOM      3  C   UNL     1       0.804   9.598  19.354  0.00  0.00    +0.000 A 
ATOM      4  N   UNL     1       0.959  10.046  18.099  0.00  0.00    +0.000 NA
ATOM      5  O   UNL     1       1.904   9.174  17.559  0.00  0.00    +0.000 OA
ENDROOT
BRANCH   3   6
ATOM      6  C   UNL     1      -0.011  10.266  20.353  0.00  0.00    +0.000 A 
ATOM      7  C   UNL     1      -0.037   9.800  21.674  0.00  0.00    +0.000 A 
ATOM      8  C   UNL     1      -0.780  10.473  22.654  0.00  0.00    +0.000 A 
ATOM      9  C   UNL     1      -1.506  11.625  22.329  0.00  0.00    +0.000 A 
ATOM     10  C   UNL     1      -1.517  12.053  20.989  0.00  0.00    +0.000 A 
ATOM     11  C   UNL     1      -0.768  11.390  20.014  0.00  0.00    +0.000 A 
BRANCH   9  12
ATOM     12  C   UNL     1      -2.329  12.398  23.344  0.00  0.00    +0.000 C 
BRANCH  12  13
ATOM     13  N   UNL     1      -3.778  12.094  23.374  0.00  0.00    +0.000 NA
ATOM     14  C   UNL     1      -4.361  12.423  24.697  0.00  0.00    +0.000 C 
ATOM     15  C   UNL     1      -5.472  13.210  23.979  0.00  0.00    +0.000 C 
ATOM     16  C   UNL     1      -4.517  13.234  22.772  0.00  0.00    +0.000 C 
BRANCH  15  17
ATOM     17  C   UNL     1      -6.846  12.537  23.815  0.00  0.00    +0.000 C 
ATOM     18  O   UNL     1      -7.094  11.366  24.085  0.00  0.00    +0.000 OA
BRANCH  17  19
ATOM     19  O   UNL     1      -7.833  13.354  23.345  0.00  0.00    +0.000 OA
ATOM     20  H   UNL     1      -8.634  12.846  23.086  0.00  0.00    +0.000 HD
ENDBRANCH  17  19
ENDBRANCH  15  17
ENDBRANCH  12  13
ENDBRANCH   9  12
ENDBRANCH   3   6
BRANCH   1  22
ATOM     21  C   UNL     1       3.281   5.939  19.143  0.00  0.00    +0.000 A 
ATOM     22  C   UNL     1       3.140   7.103  18.327  0.00  0.00    +0.000 A 
ATOM     23  N   UNL     1       3.973   7.068  17.281  0.00  0.00    +0.000 NA
ATOM     24  O   UNL     1       4.721   5.924  17.429  0.00  0.00    +0.000 OA
ATOM     25  C   UNL     1       4.316   5.248  18.536  0.00  0.00    +0.000 A 
BRANCH  21  26
ATOM     26  C   UNL     1       2.450   5.508  20.308  0.00  0.00    +0.000 C 
BRANCH  26  28
ATOM     27  C   UNL     1       1.091   3.438  20.954  0.00  0.00    +0.000 C 
ATOM     28  C   UNL     1       1.324   4.538  19.926  0.00  0.00    +0.000 C 
ENDBRANCH  26  28
ENDBRANCH  21  26
BRANCH  25  29
ATOM     29  C   UNL     1       5.006   3.951  18.782  0.00  0.00    +0.000 C 
BRANCH  29  30
ATOM     30  C   UNL     1       4.037   2.819  19.178  0.00  0.00    +0.000 C 
ATOM     31  C   UNL     1       3.672   1.925  17.990  0.00  0.00    +0.000 C 
ATOM     32  C   UNL     1       4.647   1.965  20.293  0.00  0.00    +0.000 C 
ENDBRANCH  29  30
ENDBRANCH  25  29
ENDBRANCH   1  22
TORSDOF 10
ENDMDL
MODEL 3
REMARK VINA RESULT:      -7.8      2.905      4.112
REMARK  Name = 
REMARK  13 active torsions:
REMARK  status: ('A' for Active; 'I' for Inactive)
REMARK    1  A    between atoms: C_1  and  C_2
REMARK    2  A    between atoms: C_2  and  C_3
REMARK    3  A    between atoms: C_3  and  C_4
REMARK    4  A    between atoms: C_5  and  C_6
REMARK    5  A    between atoms: C_8  and  C_9
REMARK    6  A    between atoms: C_12  and  C_13
REMARK    7  A    between atoms: C_13  and  N_14
REMARK    8  A    between atoms: C_16  and  C_17
REMARK    9  A    between atoms: C_17  and  O_19
REMARK   10  A    between atoms: C_27  and  C_28
REMARK   11  A    between atoms: C_28  and  C_29
REMARK   12  A    between atoms: C_29  and  C_30
REMARK   13  A    between atoms: C_29  and  C_31
REMARK                            x       y       z     vdW  Elec       q    Type
REMARK                         _______ _______ _______ _____ _____    ______ ____
ROOT
ATOM      1  C   UNL     1       3.272   5.748  18.836  0.00  0.00    +0.000 A 
ATOM      2  N   UNL     1       2.825   6.987  18.782  0.00  0.00    +0.000 NA
ATOM      3  C   UNL     1       2.173   7.138  19.978  0.00  0.00    +0.000 A 
ATOM      4  N   UNL     1       2.240   6.065  20.781  0.00  0.00    +0.000 NA
ATOM      5  O   UNL     1       2.930   5.129  20.012  0.00  0.00    +0.000 OA
ENDROOT
BRANCH   3   6
ATOM      6  C   UNL     1       1.437   8.346  20.308  0.00  0.00    +0.000 A 
ATOM      7  C   UNL     1       0.984   8.565  21.616  0.00  0.00    +0.000 A 
ATOM      8  C   UNL     1       0.321   9.752  21.953  0.00  0.00    +0.000 A 
ATOM      9  C   UNL     1       0.103  10.743  20.987  0.00  0.00    +0.000 A 
ATOM     10  C   UNL     1       0.514  10.490  19.665  0.00  0.00    +0.000 A 
ATOM     11  C   UNL     1       1.185   9.312  19.331  0.00  0.00    +0.000 A 
BRANCH   9  12
ATOM     12  C   UNL     1      -0.608  12.050  21.289  0.00  0.00    +0.000 C 
BRANCH  12  13
ATOM     13  N   UNL     1      -1.577  12.020  22.408  0.00  0.00    +0.000 NA
ATOM     14  C   UNL     1      -1.416  13.208  23.281  0.00  0.00    +0.000 C 
ATOM     15  C   UNL     1      -2.932  13.452  23.180  0.00  0.00    +0.000 C 
ATOM     16  C   UNL     1      -2.877  12.558  21.928  0.00  0.00    +0.000 C 
BRANCH  15  17
ATOM     17  C   UNL     1      -3.817  13.011  24.359  0.00  0.00    +0.000 C 
ATOM     18  O   UNL     1      -4.399  11.933  24.439  0.00  0.00    +0.000 OA
BRANCH  17  19
ATOM     19  O   UNL     1      -3.915  13.919  25.374  0.00  0.00    +0.000 OA
ATOM     20  H   UNL     1      -4.664  13.711  25.976  0.00  0.00    +0.000 HD
ENDBRANCH  17  19
ENDBRANCH  15  17
ENDBRANCH  12  13
ENDBRANCH   9  12
ENDBRANCH   3   6
BRANCH   1  22
ATOM     21  C   UNL     1       5.409   5.331  17.376  0.00  0.00    +0.000 A 
ATOM     22  C   UNL     1       4.051   5.086  17.743  0.00  0.00    +0.000 A 
ATOM     23  N   UNL     1       3.509   4.122  16.989  0.00  0.00    +0.000 NA
ATOM     24  O   UNL     1       4.473   3.769  16.075  0.00  0.00    +0.000 OA
ATOM     25  C   UNL     1       5.605   4.486  16.298  0.00  0.00    +0.000 A 
BRANCH  21  26
ATOM     26  C   UNL     1       6.416   6.205  18.051  0.00  0.00    +0.000 C 
BRANCH  26  28
ATOM     27  C   UNL     1       7.972   8.225  17.833  0.00  0.00    +0.000 C 
ATOM     28  C   UNL     1       6.960   7.318  17.145  0.00  0.00    +0.000 C 
ENDBRANCH  26  28
ENDBRANCH  21  26
BRANCH  25  29
ATOM     29  C   UNL     1       6.756   4.157  15.410  0.00  0.00    +0.000 C 
BRANCH  29  30
ATOM     30  C   UNL     1       6.575   4.681  13.971  0.00  0.00    +0.000 C 
ATOM     31  C   UNL     1       7.866   5.279  13.405  0.00  0.00    +0.000 C 
ATOM     32  C   UNL     1       6.088   3.556  13.054  0.00  0.00    +0.000 C 
ENDBRANCH  29  30
ENDBRANCH  25  29
ENDBRANCH   1  22
TORSDOF 10
ENDMDL
MODEL 4
REMARK VINA RESULT:      -7.8      2.782      3.923
REMARK  Name = 
REMARK  13 active torsions:
REMARK  status: ('A' for Active; 'I' for Inactive)
REMARK    1  A    between atoms: C_1  and  C_2
REMARK    2  A    between atoms: C_2  and  C_3
REMARK    3  A    between atoms: C_3  and  C_4
REMARK    4  A    between atoms: C_5  and  C_6
REMARK    5  A    between atoms: C_8  and  C_9
REMARK    6  A    between atoms: C_12  and  C_13
REMARK    7  A    between atoms: C_13  and  N_14
REMARK    8  A    between atoms: C_16  and  C_17
REMARK    9  A    between atoms: C_17  and  O_19
REMARK   10  A    between atoms: C_27  and  C_28
REMARK   11  A    between atoms: C_28  and  C_29
REMARK   12  A    between atoms: C_29  and  C_30
REMARK   13  A    between atoms: C_29  and  C_31
REMARK                            x       y       z     vdW  Elec       q    Type
REMARK                         _______ _______ _______ _____ _____    ______ ____
ROOT
ATOM      1  C   UNL     1       3.257   5.509  18.860  0.00  0.00    +0.000 A 
ATOM      2  N   UNL     1       3.036   6.808  18.899  0.00  0.00    +0.000 NA
ATOM      3  C   UNL     1       2.172   6.948  19.955  0.00  0.00    +0.000 A 
ATOM      4  N   UNL     1       1.893   5.801  20.592  0.00  0.00    +0.000 NA
ATOM      5  O   UNL     1       2.575   4.841  19.846  0.00  0.00    +0.000 OA
ENDROOT
BRANCH   3   6
ATOM      6  C   UNL     1       1.584   8.229  20.306  0.00  0.00    +0.000 A 
ATOM      7  C   UNL     1       1.309   9.178  19.312  0.00  0.00    +0.000 A 
ATOM      8  C   UNL     1       0.692  10.393  19.638  0.00  0.00    +0.000 A 
ATOM      9  C   UNL     1       0.338  10.678  20.963  0.00  0.00    +0.000 A 
ATOM     10  C   UNL     1       0.668   9.742  21.959  0.00  0.00    +0.000 A 
ATOM     11  C   UNL     1       1.272   8.525  21.635  0.00  0.00    +0.000 A 
BRANCH   9  12
ATOM     12  C   UNL     1      -0.333  11.975  21.379  0.00  0.00    +0.000 C 
BRANCH  12  13
ATOM     13  N   UNL     1      -1.776  11.888  21.698  0.00  0.00    +0.000 NA
ATOM     14  C   UNL     1      -1.988  11.734  23.158  0.00  0.00    +0.000 C 
ATOM     15  C   UNL     1      -3.004  12.888  23.103  0.00  0.00    +0.000 C 
ATOM     16  C   UNL     1      -2.333  13.264  21.769  0.00  0.00    +0.000 C 
BRANCH  15  17
ATOM     17  C   UNL     1      -4.502  12.535  23.097  0.00  0.00    +0.000 C 
ATOM     18  O   UNL     1      -5.182  12.362  22.089  0.00  0.00    +0.000 OA
BRANCH  17  19
ATOM     19  O   UNL     1      -5.065  12.398  24.333  0.00  0.00    +0.000 OA
ATOM     20  H   UNL     1      -4.461  11.938  24.958  0.00  0.00    +0.000 HD
ENDBRANCH  17  19
ENDBRANCH  15  17
ENDBRANCH  12  13
ENDBRANCH   9  12
ENDBRANCH   3   6
BRANCH   1  22
ATOM     21  C   UNL     1       5.291   5.381  17.210  0.00  0.00    +0.000 A 
ATOM     22  C   UNL     1       4.139   4.836  17.856  0.00  0.00    +0.000 A 
ATOM     23  N   UNL     1       3.924   3.571  17.479  0.00  0.00    +0.000 NA
ATOM     24  O   UNL     1       4.881   3.288  16.534  0.00  0.00    +0.000 OA
ATOM     25  C   UNL     1       5.697   4.361  16.368  0.00  0.00    +0.000 A 
BRANCH  21  26
ATOM     26  C   UNL     1       5.967   6.692  17.455  0.00  0.00    +0.000 C 
BRANCH  26  28
ATOM     27  C   UNL     1       7.727   5.931  19.151  0.00  0.00    +0.000 C 
ATOM     28  C   UNL     1       7.459   6.554  17.787  0.00  0.00    +0.000 C 
ENDBRANCH  26  28
ENDBRANCH  21  26
BRANCH  25  29
ATOM     29  C   UNL     1       6.822   4.168  15.409  0.00  0.00    +0.000 C 
BRANCH  29  30
ATOM     30  C   UNL     1       6.518   4.723  14.004  0.00  0.00    +0.000 C 
ATOM     31  C   UNL     1       7.773   5.250  13.304  0.00  0.00    +0.000 C 
ATOM     32  C   UNL     1       5.863   3.645  13.137  0.00  0.00    +0.000 C 
ENDBRANCH  29  30
ENDBRANCH  25  29
ENDBRANCH   1  22
TORSDOF 10
ENDMDL
MODEL 5
REMARK VINA RESULT:      -7.8      1.856      2.674
REMARK  Name = 
REMARK  13 active torsions:
REMARK  status: ('A' for Active; 'I' for Inactive)
REMARK    1  A    between atoms: C_1  and  C_2
REMARK    2  A    between atoms: C_2  and  C_3
REMARK    3  A    between atoms: C_3  and  C_4
REMARK    4  A    between atoms: C_5  and  C_6
REMARK    5  A    between atoms: C_8  and  C_9
REMARK    6  A    between atoms: C_12  and  C_13
REMARK    7  A    between atoms: C_13  and  N_14
REMARK    8  A    between atoms: C_16  and  C_17
REMARK    9  A    between atoms: C_17  and  O_19
REMARK   10  A    between atoms: C_27  and  C_28
REMARK   11  A    between atoms: C_28  and  C_29
REMARK   12  A    between atoms: C_29  and  C_30
REMARK   13  A    between atoms: C_29  and  C_31
REMARK                            x       y       z     vdW  Elec       q    Type
REMARK                         _______ _______ _______ _____ _____    ______ ____
ROOT
ATOM      1  C   UNL     1       2.448   6.818  19.370  0.00  0.00    +0.000 A 
ATOM      2  N   UNL     1       2.040   8.056  19.564  0.00  0.00    +0.000 NA
ATOM      3  C   UNL     1       1.293   7.965  20.710  0.00  0.00    +0.000 A 
ATOM      4  N   UNL     1       1.263   6.737  21.251  0.00  0.00    +0.000 NA
ATOM      5  O   UNL     1       1.992   5.967  20.346  0.00  0.00    +0.000 OA
ENDROOT
BRANCH   3   6
ATOM      6  C   UNL     1       0.562   9.100  21.247  0.00  0.00    +0.000 A 
ATOM      7  C   UNL     1       0.031   9.051  22.543  0.00  0.00    +0.000 A 
ATOM      8  C   UNL     1      -0.627  10.162  23.086  0.00  0.00    +0.000 A 
ATOM      9  C   UNL     1      -0.762  11.342  22.344  0.00  0.00    +0.000 A 
ATOM     10  C   UNL     1      -0.273  11.362  21.025  0.00  0.00    +0.000 A 
ATOM     11  C   UNL     1       0.394  10.259  20.486  0.00  0.00    +0.000 A 
BRANCH   9  12
ATOM     12  C   UNL     1      -1.463  12.579  22.876  0.00  0.00    +0.000 C 
BRANCH  12  13
ATOM     13  N   UNL     1      -2.821  12.369  23.428  0.00  0.00    +0.000 NA
ATOM     14  C   UNL     1      -3.306  13.589  24.119  0.00  0.00    +0.000 C 
ATOM     15  C   UNL     1      -4.613  13.492  23.312  0.00  0.00    +0.000 C 
ATOM     16  C   UNL     1      -3.816  12.595  22.347  0.00  0.00    +0.000 C 
BRANCH  15  17
ATOM     17  C   UNL     1      -5.852  12.902  24.008  0.00  0.00    +0.000 C 
ATOM     18  O   UNL     1      -6.995  13.339  23.903  0.00  0.00    +0.000 OA
BRANCH  17  19
ATOM     19  O   UNL     1      -5.610  11.799  24.774  0.00  0.00    +0.000 OA
ATOM     20  H   UNL     1      -6.443  11.344  25.030  0.00  0.00    +0.000 HD
ENDBRANCH  17  19
ENDBRANCH  15  17
ENDBRANCH  12  13
ENDBRANCH   9  12
ENDBRANCH   3   6
BRANCH   1  22
ATOM     21  C   UNL     1       3.399   5.074  17.659  0.00  0.00    +0.000 A 
ATOM     22  C   UNL     1       3.301   6.384  18.220  0.00  0.00    +0.000 A 
ATOM     23  N   UNL     1       4.069   7.256  17.557  0.00  0.00    +0.000 NA
ATOM     24  O   UNL     1       4.735   6.525  16.601  0.00  0.00    +0.000 OA
ATOM     25  C   UNL     1       4.342   5.226  16.657  0.00  0.00    +0.000 A 
BRANCH  21  26
ATOM     26  C   UNL     1       2.604   3.853  17.992  0.00  0.00    +0.000 C 
BRANCH  26  28
ATOM     27  C   UNL     1       3.716   1.551  18.121  0.00  0.00    +0.000 C 
ATOM     28  C   UNL     1       3.375   2.842  18.853  0.00  0.00    +0.000 C 
ENDBRANCH  26  28
ENDBRANCH  21  26
BRANCH  25  29
ATOM     29  C   UNL     1       4.945   4.331  15.630  0.00  0.00    +0.000 C 
BRANCH  29  30
ATOM     30  C   UNL     1       6.453   4.092  15.849  0.00  0.00    +0.000 C 
ATOM     31  C   UNL     1       7.315   4.886  14.866  0.00  0.00    +0.000 C 
ATOM     32  C   UNL     1       6.844   4.456  17.283  0.00  0.00    +0.000 C 
ENDBRANCH  29  30
ENDBRANCH  25  29
ENDBRANCH   1  22
TORSDOF 10
ENDMDL
MODEL 6
REMARK VINA RESULT:      -7.7      2.996      4.246
REMARK  Name = 
REMARK  13 active torsions:
REMARK  status: ('A' for Active; 'I' for Inactive)
REMARK    1  A    between atoms: C_1  and  C_2
REMARK    2  A    between atoms: C_2  and  C_3
REMARK    3  A    between atoms: C_3  and  C_4
REMARK    4  A    between atoms: C_5  and  C_6
REMARK    5  A    between atoms: C_8  and  C_9
REMARK    6  A    between atoms: C_12  and  C_13
REMARK    7  A    between atoms: C_13  and  N_14
REMARK    8  A    between atoms: C_16  and  C_17
REMARK    9  A    between atoms: C_17  and  O_19
REMARK   10  A    between atoms: C_27  and  C_28
REMARK   11  A    between atoms: C_28  and  C_29
REMARK   12  A    between atoms: C_29  and  C_30
REMARK   13  A    between atoms: C_29  and  C_31
REMARK                            x       y       z     vdW  Elec       q    Type
REMARK                         _______ _______ _______ _____ _____    ______ ____
ROOT
ATOM      1  C   UNL     1       3.465   5.836  18.571  0.00  0.00    +0.000 A 
ATOM      2  N   UNL     1       3.021   7.061  18.371  0.00  0.00    +0.000 NA
ATOM      3  C   UNL     1       2.258   7.305  19.483  0.00  0.00    +0.000 A 
ATOM      4  N   UNL     1       2.253   6.304  20.377  0.00  0.00    +0.000 NA
ATOM      5  O   UNL     1       3.016   5.315  19.759  0.00  0.00    +0.000 OA
ENDROOT
BRANCH   3   6
ATOM      6  C   UNL     1       1.489   8.528  19.639  0.00  0.00    +0.000 A 
ATOM      7  C   UNL     1       1.363   9.426  18.571  0.00  0.00    +0.000 A 
ATOM      8  C   UNL     1       0.579  10.580  18.699  0.00  0.00    +0.000 A 
ATOM      9  C   UNL     1      -0.094  10.854  19.897  0.00  0.00    +0.000 A 
ATOM     10  C   UNL     1       0.084   9.974  20.979  0.00  0.00    +0.000 A 
ATOM     11  C   UNL     1       0.856   8.817  20.850  0.00  0.00    +0.000 A 
BRANCH   9  12
ATOM     12  C   UNL     1      -0.958  12.086  20.097  0.00  0.00    +0.000 C 
BRANCH  12  13
ATOM     13  N   UNL     1      -1.869  12.058  21.264  0.00  0.00    +0.000 NA
ATOM     14  C   UNL     1      -1.528  13.132  22.228  0.00  0.00    +0.000 C 
ATOM     15  C   UNL     1      -3.009  13.554  22.238  0.00  0.00    +0.000 C 
ATOM     16  C   UNL     1      -3.119  12.782  20.911  0.00  0.00    +0.000 C 
BRANCH  15  17
ATOM     17  C   UNL     1      -3.882  13.104  23.423  0.00  0.00    +0.000 C 
ATOM     18  O   UNL     1      -4.789  13.765  23.921  0.00  0.00    +0.000 OA
BRANCH  17  19
ATOM     19  O   UNL     1      -3.594  11.862  23.909  0.00  0.00    +0.000 OA
ATOM     20  H   UNL     1      -2.675  11.809  24.254  0.00  0.00    +0.000 HD
ENDBRANCH  17  19
ENDBRANCH  15  17
ENDBRANCH  12  13
ENDBRANCH   9  12
ENDBRANCH   3   6
BRANCH   1  22
ATOM     21  C   UNL     1       5.450   5.614  16.873  0.00  0.00    +0.000 A 
ATOM     22  C   UNL     1       4.346   5.095  17.616  0.00  0.00    +0.000 A 
ATOM     23  N   UNL     1       4.179   3.787  17.390  0.00  0.00    +0.000 NA
ATOM     24  O   UNL     1       5.119   3.442  16.448  0.00  0.00    +0.000 OA
ATOM     25  C   UNL     1       5.877   4.524  16.134  0.00  0.00    +0.000 A 
BRANCH  21  26
ATOM     26  C   UNL     1       6.069   6.972  16.947  0.00  0.00    +0.000 C 
BRANCH  26  28
ATOM     27  C   UNL     1       8.056   8.366  17.760  0.00  0.00    +0.000 C 
ATOM     28  C   UNL     1       7.393   6.995  17.724  0.00  0.00    +0.000 C 
ENDBRANCH  26  28
ENDBRANCH  21  26
BRANCH  25  29
ATOM     29  C   UNL     1       6.979   4.274  15.163  0.00  0.00    +0.000 C 
BRANCH  29  30
ATOM     30  C   UNL     1       6.637   4.735  13.731  0.00  0.00    +0.000 C 
ATOM     31  C   UNL     1       7.836   5.371  13.025  0.00  0.00    +0.000 C 
ATOM     32  C   UNL     1       6.121   3.555  12.903  0.00  0.00    +0.000 C 
ENDBRANCH  29  30
ENDBRANCH  25  29
ENDBRANCH   1  22
TORSDOF 10
ENDMDL
MODEL 7
REMARK VINA RESULT:      -7.7      2.274      2.958
REMARK  Name = 
REMARK  13 active torsions:
REMARK  status: ('A' for Active; 'I' for Inactive)
REMARK    1  A    between atoms: C_1  and  C_2
REMARK    2  A    between atoms: C_2  and  C_3
REMARK    3  A    between atoms: C_3  and  C_4
REMARK    4  A    between atoms: C_5  and  C_6
REMARK    5  A    between atoms: C_8  and  C_9
REMARK    6  A    between atoms: C_12  and  C_13
REMARK    7  A    between atoms: C_13  and  N_14
REMARK    8  A    between atoms: C_16  and  C_17
REMARK    9  A    between atoms: C_17  and  O_19
REMARK   10  A    between atoms: C_27  and  C_28
REMARK   11  A    between atoms: C_28  and  C_29
REMARK   12  A    between atoms: C_29  and  C_30
REMARK   13  A    between atoms: C_29  and  C_31
REMARK                            x       y       z     vdW  Elec       q    Type
REMARK                         _______ _______ _______ _____ _____    ______ ____
ROOT
ATOM      1  C   UNL     1       3.020   6.754  18.652  0.00  0.00    +0.000 A 
ATOM      2  N   UNL     1       2.496   7.963  18.650  0.00  0.00    +0.000 NA
ATOM      3  C   UNL     1       1.751   7.985  19.801  0.00  0.00    +0.000 A 
ATOM      4  N   UNL     1       1.832   6.862  20.529  0.00  0.00    +0.000 NA
ATOM      5  O   UNL     1       2.637   6.029  19.753  0.00  0.00    +0.000 OA
ENDROOT
BRANCH   3   6
ATOM      6  C   UNL     1       0.914   9.118  20.157  0.00  0.00    +0.000 A 
ATOM      7  C   UNL     1       0.491  10.022  19.174  0.00  0.00    +0.000 A 
ATOM      8  C   UNL     1      -0.361  11.086  19.502  0.00  0.00    +0.000 A 
ATOM      9  C   UNL     1      -0.806  11.260  20.819  0.00  0.00    +0.000 A 
ATOM     10  C   UNL     1      -0.331  10.378  21.807  0.00  0.00    +0.000 A 
ATOM     11  C   UNL     1       0.509   9.311  21.479  0.00  0.00    +0.000 A 
BRANCH   9  12
ATOM     12  C   UNL     1      -1.728  12.391  21.237  0.00  0.00    +0.000 C 
BRANCH  12  13
ATOM     13  N   UNL     1      -2.670  12.087  22.338  0.00  0.00    +0.000 NA
ATOM     14  C   UNL     1      -2.282  12.798  23.580  0.00  0.00    +0.000 C 
ATOM     15  C   UNL     1      -3.729  13.307  23.707  0.00  0.00    +0.000 C 
ATOM     16  C   UNL     1      -3.857  12.973  22.210  0.00  0.00    +0.000 C 
BRANCH  15  17
ATOM     17  C   UNL     1      -4.663  12.594  24.700  0.00  0.00    +0.000 C 
ATOM     18  O   UNL     1      -5.677  11.973  24.393  0.00  0.00    +0.000 OA
BRANCH  17  19
ATOM     19  O   UNL     1      -4.281  12.675  26.008  0.00  0.00    +0.000 OA
ATOM     20  H   UNL     1      -3.302  12.704  26.100  0.00  0.00    +0.000 HD
ENDBRANCH  17  19
ENDBRANCH  15  17
ENDBRANCH  12  13
ENDBRANCH   9  12
ENDBRANCH   3   6
BRANCH   1  22
ATOM     21  C   UNL     1       4.202   4.857  17.281  0.00  0.00    +0.000 A 
ATOM     22  C   UNL     1       3.918   6.225  17.579  0.00  0.00    +0.000 A 
ATOM     23  N   UNL     1       4.548   7.048  16.732  0.00  0.00    +0.000 NA
ATOM     24  O   UNL     1       5.306   6.243  15.914  0.00  0.00    +0.000 OA
ATOM     25  C   UNL     1       5.106   4.939  16.237  0.00  0.00    +0.000 A 
BRANCH  21  26
ATOM     26  C   UNL     1       3.595   3.627  17.874  0.00  0.00    +0.000 C 
BRANCH  26  28
ATOM     27  C   UNL     1       1.199   2.920  18.431  0.00  0.00    +0.000 C 
ATOM     28  C   UNL     1       2.185   3.328  17.345  0.00  0.00    +0.000 C 
ENDBRANCH  26  28
ENDBRANCH  21  26
BRANCH  25  29
ATOM     29  C   UNL     1       5.825   3.951  15.383  0.00  0.00    +0.000 C 
BRANCH  29  30
ATOM     30  C   UNL     1       6.113   4.480  13.963  0.00  0.00    +0.000 C 
ATOM     31  C   UNL     1       7.578   4.887  13.782  0.00  0.00    +0.000 C 
ATOM     32  C   UNL     1       5.743   3.424  12.919  0.00  0.00    +0.000 C 
ENDBRANCH  29  30
ENDBRANCH  25  29
ENDBRANCH   1  22
TORSDOF 10
ENDMDL
MODEL 8
REMARK VINA RESULT:      -7.7      1.915      2.464
REMARK  Name = 
REMARK  13 active torsions:
REMARK  status: ('A' for Active; 'I' for Inactive)
REMARK    1  A    between atoms: C_1  and  C_2
REMARK    2  A    between atoms: C_2  and  C_3
REMARK    3  A    between atoms: C_3  and  C_4
REMARK    4  A    between atoms: C_5  and  C_6
REMARK    5  A    between atoms: C_8  and  C_9
REMARK    6  A    between atoms: C_12  and  C_13
REMARK    7  A    between atoms: C_13  and  N_14
REMARK    8  A    between atoms: C_16  and  C_17
REMARK    9  A    between atoms: C_17  and  O_19
REMARK   10  A    between atoms: C_27  and  C_28
REMARK   11  A    between atoms: C_28  and  C_29
REMARK   12  A    between atoms: C_29  and  C_30
REMARK   13  A    between atoms: C_29  and  C_31
REMARK                            x       y       z     vdW  Elec       q    Type
REMARK                         _______ _______ _______ _____ _____    ______ ____
ROOT
ATOM      1  C   UNL     1       2.350   6.898  19.501  0.00  0.00    +0.000 A 
ATOM      2  N   UNL     1       1.957   8.139  19.710  0.00  0.00    +0.000 NA
ATOM      3  C   UNL     1       1.175   8.037  20.831  0.00  0.00    +0.000 A 
ATOM      4  N   UNL     1       1.110   6.798  21.344  0.00  0.00    +0.000 NA
ATOM      5  O   UNL     1       1.851   6.035  20.444  0.00  0.00    +0.000 OA
ENDROOT
BRANCH   3   6
ATOM      6  C   UNL     1       0.449   9.172  21.373  0.00  0.00    +0.000 A 
ATOM      7  C   UNL     1       0.134  10.266  20.555  0.00  0.00    +0.000 A 
ATOM      8  C   UNL     1      -0.612  11.340  21.058  0.00  0.00    +0.000 A 
ATOM      9  C   UNL     1      -1.059  11.337  22.385  0.00  0.00    +0.000 A 
ATOM     10  C   UNL     1      -0.691  10.259  23.211  0.00  0.00    +0.000 A 
ATOM     11  C   UNL     1       0.043   9.182  22.709  0.00  0.00    +0.000 A 
BRANCH   9  12
ATOM     12  C   UNL     1      -1.871  12.469  22.988  0.00  0.00    +0.000 C 
BRANCH  12  13
ATOM     13  N   UNL     1      -3.320  12.213  23.154  0.00  0.00    +0.000 NA
ATOM     14  C   UNL     1      -3.936  13.219  24.053  0.00  0.00    +0.000 C 
ATOM     15  C   UNL     1      -5.030  13.452  22.995  0.00  0.00    +0.000 C 
ATOM     16  C   UNL     1      -4.045  12.808  22.001  0.00  0.00    +0.000 C 
BRANCH  15  17
ATOM     17  C   UNL     1      -6.399  12.782  23.208  0.00  0.00    +0.000 C 
ATOM     18  O   UNL     1      -7.432  13.084  22.617  0.00  0.00    +0.000 OA
BRANCH  17  19
ATOM     19  O   UNL     1      -6.406  11.770  24.124  0.00  0.00    +0.000 OA
ATOM     20  H   UNL     1      -7.322  11.493  24.353  0.00  0.00    +0.000 HD
ENDBRANCH  17  19
ENDBRANCH  15  17
ENDBRANCH  12  13
ENDBRANCH   9  12
ENDBRANCH   3   6
BRANCH   1  22
ATOM     21  C   UNL     1       3.284   5.188  17.746  0.00  0.00    +0.000 A 
ATOM     22  C   UNL     1       3.228   6.474  18.366  0.00  0.00    +0.000 A 
ATOM     23  N   UNL     1       4.067   7.335  17.778  0.00  0.00    +0.000 NA
ATOM     24  O   UNL     1       4.735   6.616  16.815  0.00  0.00    +0.000 OA
ATOM     25  C   UNL     1       4.275   5.337  16.792  0.00  0.00    +0.000 A 
BRANCH  21  26
ATOM     26  C   UNL     1       2.415   3.997  17.988  0.00  0.00    +0.000 C 
BRANCH  26  28
ATOM     27  C   UNL     1       4.216   3.138  19.591  0.00  0.00    +0.000 C 
ATOM     28  C   UNL     1       3.184   2.783  18.528  0.00  0.00    +0.000 C 
ENDBRANCH  26  28
ENDBRANCH  21  26
BRANCH  25  29
ATOM     29  C   UNL     1       4.876   4.460  15.748  0.00  0.00    +0.000 C 
BRANCH  29  30
ATOM     30  C   UNL     1       6.275   4.929  15.299  0.00  0.00    +0.000 C 
ATOM     31  C   UNL     1       7.367   4.530  16.295  0.00  0.00    +0.000 C 
ATOM     32  C   UNL     1       6.608   4.357  13.919  0.00  0.00    +0.000 C 
ENDBRANCH  29  30
ENDBRANCH  25  29
ENDBRANCH   1  22
TORSDOF 10
ENDMDL
MODEL 9
REMARK VINA RESULT:      -7.6      0.744      1.058
REMARK  Name = 
REMARK  13 active torsions:
REMARK  status: ('A' for Active; 'I' for Inactive)
REMARK    1  A    between atoms: C_1  and  C_2
REMARK    2  A    between atoms: C_2  and  C_3
REMARK    3  A    between atoms: C_3  and  C_4
REMARK    4  A    between atoms: C_5  and  C_6
REMARK    5  A    between atoms: C_8  and  C_9
REMARK    6  A    between atoms: C_12  and  C_13
REMARK    7  A    between atoms: C_13  and  N_14
REMARK    8  A    between atoms: C_16  and  C_17
REMARK    9  A    between atoms: C_17  and  O_19
REMARK   10  A    between atoms: C_27  and  C_28
REMARK   11  A    between atoms: C_28  and  C_29
REMARK   12  A    between atoms: C_29  and  C_30
REMARK   13  A    between atoms: C_29  and  C_31
REMARK                            x       y       z     vdW  Elec       q    Type
REMARK                         _______ _______ _______ _____ _____    ______ ____
ROOT
ATOM      1  C   UNL     1       2.207   7.910  18.670  0.00  0.00    +0.000 A 
ATOM      2  N   UNL     1       1.680   8.269  19.824  0.00  0.00    +0.000 NA
ATOM      3  C   UNL     1       0.893   9.341  19.489  0.00  0.00    +0.000 A 
ATOM      4  N   UNL     1       0.879   9.624  18.178  0.00  0.00    +0.000 NA
ATOM      5  O   UNL     1       1.779   8.706  17.638  0.00  0.00    +0.000 OA
ENDROOT
BRANCH   3   6
ATOM      6  C   UNL     1       0.184  10.119  20.490  0.00  0.00    +0.000 A 
ATOM      7  C   UNL     1      -0.289  11.402  20.184  0.00  0.00    +0.000 A 
ATOM      8  C   UNL     1      -1.020  12.136  21.128  0.00  0.00    +0.000 A 
ATOM      9  C   UNL     1      -1.293  11.598  22.392  0.00  0.00    +0.000 A 
ATOM     10  C   UNL     1      -0.768  10.331  22.706  0.00  0.00    +0.000 A 
ATOM     11  C   UNL     1      -0.048   9.594  21.763  0.00  0.00    +0.000 A 
BRANCH   9  12
ATOM     12  C   UNL     1      -2.080  12.342  23.456  0.00  0.00    +0.000 C 
BRANCH  12  13
ATOM     13  N   UNL     1      -3.540  12.098  23.474  0.00  0.00    +0.000 NA
ATOM     14  C   UNL     1      -4.152  12.636  24.713  0.00  0.00    +0.000 C 
ATOM     15  C   UNL     1      -5.206  13.351  23.848  0.00  0.00    +0.000 C 
ATOM     16  C   UNL     1      -4.212  13.165  22.687  0.00  0.00    +0.000 C 
BRANCH  15  17
ATOM     17  C   UNL     1      -6.600  12.712  23.730  0.00  0.00    +0.000 C 
ATOM     18  O   UNL     1      -6.917  11.857  22.908  0.00  0.00    +0.000 OA
BRANCH  17  19
ATOM     19  O   UNL     1      -7.514  13.153  24.643  0.00  0.00    +0.000 OA
ATOM     20  H   UNL     1      -8.378  12.696  24.543  0.00  0.00    +0.000 HD
ENDBRANCH  17  19
ENDBRANCH  15  17
ENDBRANCH  12  13
ENDBRANCH   9  12
ENDBRANCH   3   6
BRANCH   1  22
ATOM     21  C   UNL     1       3.331   5.642  19.358  0.00  0.00    +0.000 A 
ATOM     22  C   UNL     1       3.168   6.775  18.502  0.00  0.00    +0.000 A 
ATOM     23  N   UNL     1       3.986   6.708  17.445  0.00  0.00    +0.000 NA
ATOM     24  O   UNL     1       4.745   5.575  17.624  0.00  0.00    +0.000 OA
ATOM     25  C   UNL     1       4.362   4.938  18.761  0.00  0.00    +0.000 A 
BRANCH  21  26
ATOM     26  C   UNL     1       2.521   5.249  20.550  0.00  0.00    +0.000 C 
BRANCH  26  28
ATOM     27  C   UNL     1       1.160   4.070  18.731  0.00  0.00    +0.000 C 
ATOM     28  C   UNL     1       1.226   4.508  20.188  0.00  0.00    +0.000 C 
ENDBRANCH  26  28
ENDBRANCH  21  26
BRANCH  25  29
ATOM     29  C   UNL     1       5.067   3.656  19.044  0.00  0.00    +0.000 C 
BRANCH  29  30
ATOM     30  C   UNL     1       4.109   2.522  19.463  0.00  0.00    +0.000 C 
ATOM     31  C   UNL     1       3.734   1.616  18.288  0.00  0.00    +0.000 C 
ATOM     32  C   UNL     1       4.738   1.681  20.577  0.00  0.00    +0.000 C 
ENDBRANCH  29  30
ENDBRANCH  25  29
ENDBRANCH   1  22
TORSDOF 10
ENDMDL
