MODEL 1
REMARK VINA RESULT:      -8.4      0.000      0.000
REMARK  Name = 
REMARK  10 active torsions:
REMARK  status: ('A' for Active; 'I' for Inactive)
REMARK    1  A    between atoms: C_1  and  O_2
REMARK    2  A    between atoms: O_2  and  C_3
REMARK    3  A    between atoms: C_8  and  C_9
REMARK    4  A    between atoms: C_12  and  C_13
REMARK    5  A    between atoms: C_13  and  N_14
REMARK    6  A    between atoms: C_16  and  C_17
REMARK    7  A    between atoms: C_18  and  C_19
REMARK    8  A    between atoms: C_19  and  C_20
REMARK    9  A    between atoms: C_20  and  O_22
REMARK   10  A    between atoms: C_23  and  C_24
REMARK                            x       y       z     vdW  Elec       q    Type
REMARK                         _______ _______ _______ _____ _____    ______ ____
ROOT
ATOM      1  C   UNL     1       7.879   8.250  18.279  0.00  0.00    +0.000 A 
ATOM      2  C   UNL     1       8.186   7.067  18.961  0.00  0.00    +0.000 A 
ATOM      3  C   UNL     1       7.445   5.898  18.735  0.00  0.00    +0.000 A 
ATOM      4  C   UNL     1       6.374   5.886  17.830  0.00  0.00    +0.000 A 
ATOM      5  C   UNL     1       6.066   7.073  17.168  0.00  0.00    +0.000 A 
ATOM      6  F   UNL     1       5.049   7.104  16.294  0.00  0.00    +0.000 F 
ATOM      7  C   UNL     1       6.800   8.236  17.380  0.00  0.00    +0.000 A 
ENDROOT
BRANCH   1  13
ATOM      8  C   UNL     1      10.743  13.497  18.262  0.00  0.00    +0.000 A 
ATOM      9  C   UNL     1      11.301  13.039  19.460  0.00  0.00    +0.000 A 
ATOM     10  C   UNL     1      10.966  11.784  19.992  0.00  0.00    +0.000 A 
ATOM     11  C   UNL     1      10.051  11.019  19.267  0.00  0.00    +0.000 A 
ATOM     12  N   UNL     1       9.502   9.779  19.474  0.00  0.00    +0.000 N 
ATOM     13  C   UNL     1       8.640   9.493  18.435  0.00  0.00    +0.000 A 
ATOM     14  N   UNL     1       8.615  10.510  17.589  0.00  0.00    +0.000 NA
ATOM     15  C   UNL     1       9.474  11.453  18.082  0.00  0.00    +0.000 A 
ATOM     16  C   UNL     1       9.814  12.711  17.570  0.00  0.00    +0.000 A 
ATOM     17  H   UNL     1       9.699   9.177  20.257  0.00  0.00    +0.000 HD
BRANCH   8  19
ATOM     18  C   UNL     1      12.331  14.956  17.278  0.00  0.00    +0.000 C 
ATOM     19  O   UNL     1      10.991  14.718  17.692  0.00  0.00    +0.000 OA
ENDBRANCH   8  19
ENDBRANCH   1  13
BRANCH   4  20
ATOM     20  C   UNL     1       5.611   4.624  17.516  0.00  0.00    +0.000 C 
BRANCH  20  21
ATOM     21  N   UNL     1       4.431   4.465  18.362  0.00  0.00    +0.000 N 
ATOM     22  N   UNL     1       3.903   5.561  18.947  0.00  0.00    +0.000 NA
ATOM     23  C   UNL     1       2.861   5.106  19.645  0.00  0.00    +0.000 A 
ATOM     24  C   UNL     1       1.998   6.050  20.401  0.00  0.00    +0.000 C 
ATOM     25  C   UNL     1       2.708   3.701  19.501  0.00  0.00    +0.000 A 
ATOM     26  C   UNL     1       3.745   3.312  18.664  0.00  0.00    +0.000 A 
ATOM     27  C   UNL     1       4.119   1.965  18.156  0.00  0.00    +0.000 C 
BRANCH  25  28
ATOM     28  C   UNL     1       1.633   2.851  20.100  0.00  0.00    +0.000 C 
BRANCH  28  29
ATOM     29  C   UNL     1       1.859   2.506  21.559  0.00  0.00    +0.000 C 
ATOM     30  O   UNL     1       0.943   2.411  22.365  0.00  0.00    +0.000 OA
BRANCH  29  31
ATOM     31  O   UNL     1       3.150   2.364  21.943  0.00  0.00    +0.000 OA
ATOM     32  H   UNL     1       3.266   1.948  22.820  0.00  0.00    +0.000 HD
ENDBRANCH  29  31
ENDBRANCH  28  29
ENDBRANCH  25  28
ENDBRANCH  20  21
ENDBRANCH   4  20
TORSDOF 7
ENDMDL
MODEL 2
REMARK VINA RESULT:      -8.3      1.167      1.606
REMARK  Name = 
REMARK  10 active torsions:
REMARK  status: ('A' for Active; 'I' for Inactive)
REMARK    1  A    between atoms: C_1  and  O_2
REMARK    2  A    between atoms: O_2  and  C_3
REMARK    3  A    between atoms: C_8  and  C_9
REMARK    4  A    between atoms: C_12  and  C_13
REMARK    5  A    between atoms: C_13  and  N_14
REMARK    6  A    between atoms: C_16  and  C_17
REMARK    7  A    between atoms: C_18  and  C_19
REMARK    8  A    between atoms: C_19  and  C_20
REMARK    9  A    between atoms: C_20  and  O_22
REMARK   10  A    between atoms: C_23  and  C_24
REMARK                            x       y       z     vdW  Elec       q    Type
REMARK                         _______ _______ _______ _____ _____    ______ ____
ROOT
ATOM      1  C   UNL     1       7.566   7.742  18.001  0.00  0.00    +0.000 A 
ATOM      2  C   UNL     1       7.958   6.501  18.514  0.00  0.00    +0.000 A 
ATOM      3  C   UNL     1       7.272   5.330  18.158  0.00  0.00    +0.000 A 
ATOM      4  C   UNL     1       6.172   5.375  17.289  0.00  0.00    +0.000 A 
ATOM      5  C   UNL     1       5.780   6.618  16.796  0.00  0.00    +0.000 A 
ATOM      6  F   UNL     1       4.733   6.704  15.961  0.00  0.00    +0.000 F 
ATOM      7  C   UNL     1       6.459   7.783  17.138  0.00  0.00    +0.000 A 
ENDROOT
BRANCH   1  13
ATOM      8  C   UNL     1      10.194  13.083  18.566  0.00  0.00    +0.000 A 
ATOM      9  C   UNL     1      10.732  12.539  19.737  0.00  0.00    +0.000 A 
ATOM     10  C   UNL     1      10.436  11.227  20.140  0.00  0.00    +0.000 A 
ATOM     11  C   UNL     1       9.580  10.496  19.315  0.00  0.00    +0.000 A 
ATOM     12  N   UNL     1       9.080   9.220  19.388  0.00  0.00    +0.000 N 
ATOM     13  C   UNL     1       8.266   8.997  18.297  0.00  0.00    +0.000 A 
ATOM     14  N   UNL     1       8.223  10.085  17.547  0.00  0.00    +0.000 NA
ATOM     15  C   UNL     1       9.023  11.013  18.155  0.00  0.00    +0.000 A 
ATOM     16  C   UNL     1       9.324  12.326  17.771  0.00  0.00    +0.000 A 
ATOM     17  H   UNL     1       9.278   8.557  20.120  0.00  0.00    +0.000 HD
BRANCH   8  19
ATOM     18  C   UNL     1      11.726  14.660  17.684  0.00  0.00    +0.000 C 
ATOM     19  O   UNL     1      10.406  14.360  18.118  0.00  0.00    +0.000 OA
ENDBRANCH   8  19
ENDBRANCH   1  13
BRANCH   4  20
ATOM     20  C   UNL     1       5.466   4.123  16.834  0.00  0.00    +0.000 C 
BRANCH  20  21
ATOM     21  N   UNL     1       4.686   3.507  17.903  0.00  0.00    +0.000 N 
ATOM     22  N   UNL     1       5.341   2.942  18.939  0.00  0.00    +0.000 NA
ATOM     23  C   UNL     1       4.381   2.470  19.734  0.00  0.00    +0.000 A 
ATOM     24  C   UNL     1       4.731   1.807  21.017  0.00  0.00    +0.000 C 
ATOM     25  C   UNL     1       3.088   2.741  19.211  0.00  0.00    +0.000 A 
ATOM     26  C   UNL     1       3.319   3.413  18.018  0.00  0.00    +0.000 A 
ATOM     27  C   UNL     1       2.361   3.947  17.013  0.00  0.00    +0.000 C 
BRANCH  25  28
ATOM     28  C   UNL     1       1.777   2.400  19.844  0.00  0.00    +0.000 C 
BRANCH  28  29
ATOM     29  C   UNL     1       1.428   3.257  21.045  0.00  0.00    +0.000 C 
ATOM     30  O   UNL     1       1.424   2.821  22.189  0.00  0.00    +0.000 OA
BRANCH  29  31
ATOM     31  O   UNL     1       1.061   4.532  20.778  0.00  0.00    +0.000 OA
ATOM     32  H   UNL     1       0.094   4.675  20.749  0.00  0.00    +0.000 HD
ENDBRANCH  29  31
ENDBRANCH  28  29
ENDBRANCH  25  28
ENDBRANCH  20  21
ENDBRANCH   4  20
TORSDOF 7
ENDMDL
MODEL 3
REMARK VINA RESULT:      -8.3      1.550      1.894
REMARK  Name = 
REMARK  10 active torsions:
REMARK  status: ('A' for Active; 'I' for Inactive)
REMARK    1  A    between atoms: C_1  and  O_2
REMARK    2  A    between atoms: O_2  and  C_3
REMARK    3  A    between atoms: C_8  and  C_9
REMARK    4  A    between atoms: C_12  and  C_13
REMARK    5  A    between atoms: C_13  and  N_14
REMARK    6  A    between atoms: C_16  and  C_17
REMARK    7  A    between atoms: C_18  and  C_19
REMARK    8  A    between atoms: C_19  and  C_20
REMARK    9  A    between atoms: C_20  and  O_22
REMARK   10  A    between atoms: C_23  and  C_24
REMARK                            x       y       z     vdW  Elec       q    Type
REMARK                         _______ _______ _______ _____ _____    ______ ____
ROOT
ATOM      1  C   UNL     1       8.284   8.526  18.358  0.00  0.00    +0.000 A 
ATOM      2  C   UNL     1       7.344   8.360  17.334  0.00  0.00    +0.000 A 
ATOM      3  C   UNL     1       6.708   7.125  17.140  0.00  0.00    +0.000 A 
ATOM      4  C   UNL     1       7.006   6.024  17.957  0.00  0.00    +0.000 A 
ATOM      5  C   UNL     1       7.955   6.195  18.963  0.00  0.00    +0.000 A 
ATOM      6  F   UNL     1       8.268   5.168  19.767  0.00  0.00    +0.000 F 
ATOM      7  C   UNL     1       8.585   7.419  19.168  0.00  0.00    +0.000 A 
ENDROOT
BRANCH   1  13
ATOM      8  C   UNL     1      10.978  13.844  18.812  0.00  0.00    +0.000 A 
ATOM      9  C   UNL     1      11.140  13.492  20.156  0.00  0.00    +0.000 A 
ATOM     10  C   UNL     1      10.663  12.269  20.656  0.00  0.00    +0.000 A 
ATOM     11  C   UNL     1      10.024  11.426  19.747  0.00  0.00    +0.000 A 
ATOM     12  N   UNL     1       9.446  10.188  19.871  0.00  0.00    +0.000 N 
ATOM     13  C   UNL     1       8.951   9.801  18.643  0.00  0.00    +0.000 A 
ATOM     14  N   UNL     1       9.183  10.751  17.752  0.00  0.00    +0.000 NA
ATOM     15  C   UNL     1       9.841  11.753  18.411  0.00  0.00    +0.000 A 
ATOM     16  C   UNL     1      10.316  12.980  17.931  0.00  0.00    +0.000 A 
ATOM     17  H   UNL     1       9.393   9.651  20.722  0.00  0.00    +0.000 HD
BRANCH   8  19
ATOM     18  C   UNL     1      11.126  16.200  19.013  0.00  0.00    +0.000 C 
ATOM     19  O   UNL     1      11.384  15.027  18.251  0.00  0.00    +0.000 OA
ENDBRANCH   8  19
ENDBRANCH   1  13
BRANCH   4  20
ATOM     20  C   UNL     1       6.283   4.709  17.816  0.00  0.00    +0.000 C 
BRANCH  20  21
ATOM     21  N   UNL     1       4.866   4.816  18.155  0.00  0.00    +0.000 N 
ATOM     22  N   UNL     1       4.470   5.819  18.968  0.00  0.00    +0.000 NA
ATOM     23  C   UNL     1       3.153   5.655  19.096  0.00  0.00    +0.000 A 
ATOM     24  C   UNL     1       2.355   6.615  19.901  0.00  0.00    +0.000 C 
ATOM     25  C   UNL     1       2.690   4.538  18.349  0.00  0.00    +0.000 A 
ATOM     26  C   UNL     1       3.827   4.011  17.752  0.00  0.00    +0.000 A 
ATOM     27  C   UNL     1       3.987   2.832  16.860  0.00  0.00    +0.000 C 
BRANCH  25  28
ATOM     28  C   UNL     1       1.275   4.073  18.219  0.00  0.00    +0.000 C 
BRANCH  28  29
ATOM     29  C   UNL     1       0.940   2.867  19.074  0.00  0.00    +0.000 C 
ATOM     30  O   UNL     1       1.113   1.717  18.692  0.00  0.00    +0.000 OA
BRANCH  29  31
ATOM     31  O   UNL     1       0.377   3.130  20.277  0.00  0.00    +0.000 OA
ATOM     32  H   UNL     1       1.014   3.381  20.974  0.00  0.00    +0.000 HD
ENDBRANCH  29  31
ENDBRANCH  28  29
ENDBRANCH  25  28
ENDBRANCH  20  21
ENDBRANCH   4  20
TORSDOF 7
ENDMDL
MODEL 4
REMARK VINA RESULT:      -8.3      1.380      2.066
REMARK  Name = 
REMARK  10 active torsions:
REMARK  status: ('A' for Active; 'I' for Inactive)
REMARK    1  A    between atoms: C_1  and  O_2
REMARK    2  A    between atoms: O_2  and  C_3
REMARK    3  A    between atoms: C_8  and  C_9
REMARK    4  A    between atoms: C_12  and  C_13
REMARK    5  A    between atoms: C_13  and  N_14
REMARK    6  A    between atoms: C_16  and  C_17
REMARK    7  A    between atoms: C_18  and  C_19
REMARK    8  A    between atoms: C_19  and  C_20
REMARK    9  A    between atoms: C_20  and  O_22
REMARK   10  A    between atoms: C_23  and  C_24
REMARK                            x       y       z     vdW  Elec       q    Type
REMARK                         _______ _______ _______ _____ _____    ______ ____
ROOT
ATOM      1  C   UNL     1       7.825   8.357  17.996  0.00  0.00    +0.000 A 
ATOM      2  C   UNL     1       6.723   8.369  17.133  0.00  0.00    +0.000 A 
ATOM      3  C   UNL     1       6.044   7.182  16.823  0.00  0.00    +0.000 A 
ATOM      4  C   UNL     1       6.456   5.954  17.361  0.00  0.00    +0.000 A 
ATOM      5  C   UNL     1       7.565   5.950  18.206  0.00  0.00    +0.000 A 
ATOM      6  F   UNL     1       7.991   4.797  18.741  0.00  0.00    +0.000 F 
ATOM      7  C   UNL     1       8.240   7.125  18.525  0.00  0.00    +0.000 A 
ENDROOT
BRANCH   1  13
ATOM      8  C   UNL     1      10.623  13.549  18.974  0.00  0.00    +0.000 A 
ATOM      9  C   UNL     1      11.044  12.940  20.161  0.00  0.00    +0.000 A 
ATOM     10  C   UNL     1      10.661  11.629  20.488  0.00  0.00    +0.000 A 
ATOM     11  C   UNL     1       9.843  10.967  19.571  0.00  0.00    +0.000 A 
ATOM     12  N   UNL     1       9.285   9.714  19.554  0.00  0.00    +0.000 N 
ATOM     13  C   UNL     1       8.552   9.567  18.395  0.00  0.00    +0.000 A 
ATOM     14  N   UNL     1       8.614  10.683  17.687  0.00  0.00    +0.000 NA
ATOM     15  C   UNL     1       9.403  11.551  18.392  0.00  0.00    +0.000 A 
ATOM     16  C   UNL     1       9.788  12.862  18.085  0.00  0.00    +0.000 A 
ATOM     17  H   UNL     1       9.395   9.017  20.273  0.00  0.00    +0.000 HD
BRANCH   8  19
ATOM     18  C   UNL     1       9.869  15.570  17.992  0.00  0.00    +0.000 C 
ATOM     19  O   UNL     1      10.924  14.831  18.595  0.00  0.00    +0.000 OA
ENDBRANCH   8  19
ENDBRANCH   1  13
BRANCH   4  20
ATOM     20  C   UNL     1       5.698   4.677  17.102  0.00  0.00    +0.000 C 
BRANCH  20  21
ATOM     21  N   UNL     1       4.882   4.276  18.246  0.00  0.00    +0.000 N 
ATOM     22  N   UNL     1       5.240   3.177  18.943  0.00  0.00    +0.000 NA
ATOM     23  C   UNL     1       4.320   3.067  19.902  0.00  0.00    +0.000 A 
ATOM     24  C   UNL     1       4.415   1.976  20.906  0.00  0.00    +0.000 C 
ATOM     25  C   UNL     1       3.361   4.112  19.830  0.00  0.00    +0.000 A 
ATOM     26  C   UNL     1       3.750   4.880  18.741  0.00  0.00    +0.000 A 
ATOM     27  C   UNL     1       3.137   6.103  18.157  0.00  0.00    +0.000 C 
BRANCH  25  28
ATOM     28  C   UNL     1       2.211   4.337  20.759  0.00  0.00    +0.000 C 
BRANCH  28  29
ATOM     29  C   UNL     1       1.202   3.206  20.779  0.00  0.00    +0.000 C 
ATOM     30  O   UNL     1       0.545   2.889  19.797  0.00  0.00    +0.000 OA
BRANCH  29  31
ATOM     31  O   UNL     1       1.021   2.594  21.973  0.00  0.00    +0.000 OA
ATOM     32  H   UNL     1       0.119   2.683  22.339  0.00  0.00    +0.000 HD
ENDBRANCH  29  31
ENDBRANCH  28  29
ENDBRANCH  25  28
ENDBRANCH  20  21
ENDBRANCH   4  20
TORSDOF 7
ENDMDL
MODEL 5
REMARK VINA RESULT:      -8.1      7.350     10.779
REMARK  Name = 
REMARK  10 active torsions:
REMARK  status: ('A' for Active; 'I' for Inactive)
REMARK    1  A    between atoms: C_1  and  O_2
REMARK    2  A    between atoms: O_2  and  C_3
REMARK    3  A    between atoms: C_8  and  C_9
REMARK    4  A    between atoms: C_12  and  C_13
REMARK    5  A    between atoms: C_13  and  N_14
REMARK    6  A    between atoms: C_16  and  C_17
REMARK    7  A    between atoms: C_18  and  C_19
REMARK    8  A    between atoms: C_19  and  C_20
REMARK    9  A    between atoms: C_20  and  O_22
REMARK   10  A    between atoms: C_23  and  C_24
REMARK                            x       y       z     vdW  Elec       q    Type
REMARK                         _______ _______ _______ _____ _____    ______ ____
ROOT
ATOM      1  C   UNL     1       0.649   9.331  21.283  0.00  0.00    +0.000 A 
ATOM      2  C   UNL     1      -0.156   9.093  22.403  0.00  0.00    +0.000 A 
ATOM      3  C   UNL     1      -0.862  10.140  23.013  0.00  0.00    +0.000 A 
ATOM      4  C   UNL     1      -0.771  11.452  22.524  0.00  0.00    +0.000 A 
ATOM      5  C   UNL     1       0.046  11.681  21.418  0.00  0.00    +0.000 A 
ATOM      6  F   UNL     1       0.159  12.921  20.920  0.00  0.00    +0.000 F 
ATOM      7  C   UNL     1       0.744  10.647  20.803  0.00  0.00    +0.000 A 
ENDROOT
BRANCH   1  13
ATOM      8  C   UNL     1       3.647   5.480  17.830  0.00  0.00    +0.000 A 
ATOM      9  C   UNL     1       3.431   4.583  18.882  0.00  0.00    +0.000 A 
ATOM     10  C   UNL     1       2.737   4.966  20.040  0.00  0.00    +0.000 A 
ATOM     11  C   UNL     1       2.275   6.282  20.089  0.00  0.00    +0.000 A 
ATOM     12  N   UNL     1       1.578   6.991  21.035  0.00  0.00    +0.000 N 
ATOM     13  C   UNL     1       1.377   8.275  20.572  0.00  0.00    +0.000 A 
ATOM     14  N   UNL     1       1.931   8.407  19.378  0.00  0.00    +0.000 NA
ATOM     15  C   UNL     1       2.484   7.195  19.067  0.00  0.00    +0.000 A 
ATOM     16  C   UNL     1       3.185   6.799  17.920  0.00  0.00    +0.000 A 
ATOM     17  H   UNL     1       1.265   6.629  21.922  0.00  0.00    +0.000 HD
BRANCH   8  19
ATOM     18  C   UNL     1       5.189   4.058  16.727  0.00  0.00    +0.000 C 
ATOM     19  O   UNL     1       4.339   5.198  16.682  0.00  0.00    +0.000 OA
ENDBRANCH   8  19
ENDBRANCH   1  13
BRANCH   4  20
ATOM     20  C   UNL     1      -1.578  12.579  23.116  0.00  0.00    +0.000 C 
BRANCH  20  21
ATOM     21  N   UNL     1      -2.908  12.681  22.520  0.00  0.00    +0.000 N 
ATOM     22  N   UNL     1      -3.023  12.597  21.178  0.00  0.00    +0.000 NA
ATOM     23  C   UNL     1      -4.329  12.727  20.939  0.00  0.00    +0.000 A 
ATOM     24  C   UNL     1      -4.846  12.642  19.549  0.00  0.00    +0.000 C 
ATOM     25  C   UNL     1      -5.067  12.888  22.143  0.00  0.00    +0.000 A 
ATOM     26  C   UNL     1      -4.116  12.858  23.153  0.00  0.00    +0.000 A 
ATOM     27  C   UNL     1      -4.271  12.988  24.626  0.00  0.00    +0.000 C 
BRANCH  25  28
ATOM     28  C   UNL     1      -6.551  13.022  22.271  0.00  0.00    +0.000 C 
BRANCH  28  29
ATOM     29  C   UNL     1      -7.255  11.741  22.674  0.00  0.00    +0.000 C 
ATOM     30  O   UNL     1      -7.529  11.475  23.836  0.00  0.00    +0.000 OA
BRANCH  29  31
ATOM     31  O   UNL     1      -7.518  10.868  21.673  0.00  0.00    +0.000 OA
ATOM     32  H   UNL     1      -8.174  10.180  21.900  0.00  0.00    +0.000 HD
ENDBRANCH  29  31
ENDBRANCH  28  29
ENDBRANCH  25  28
ENDBRANCH  20  21
ENDBRANCH   4  20
TORSDOF 7
ENDMDL
MODEL 6
REMARK VINA RESULT:      -8.1      1.420      1.861
REMARK  Name = 
REMARK  10 active torsions:
REMARK  status: ('A' for Active; 'I' for Inactive)
REMARK    1  A    between atoms: C_1  and  O_2
REMARK    2  A    between atoms: O_2  and  C_3
REMARK    3  A    between atoms: C_8  and  C_9
REMARK    4  A    between atoms: C_12  and  C_13
REMARK    5  A    between atoms: C_13  and  N_14
REMARK    6  A    between atoms: C_16  and  C_17
REMARK    7  A    between atoms: C_18  and  C_19
REMARK    8  A    between atoms: C_19  and  C_20
REMARK    9  A    between atoms: C_20  and  O_22
REMARK   10  A    between atoms: C_23  and  C_24
REMARK                            x       y       z     vdW  Elec       q    Type
REMARK                         _______ _______ _______ _____ _____    ______ ____
ROOT
ATOM      1  C   UNL     1       8.244   8.407  18.388  0.00  0.00    +0.000 A 
ATOM      2  C   UNL     1       8.485   7.255  19.145  0.00  0.00    +0.000 A 
ATOM      3  C   UNL     1       7.857   6.042  18.823  0.00  0.00    +0.000 A 
ATOM      4  C   UNL     1       6.964   5.957  17.744  0.00  0.00    +0.000 A 
ATOM      5  C   UNL     1       6.718   7.114  17.007  0.00  0.00    +0.000 A 
ATOM      6  F   UNL     1       5.872   7.074  15.968  0.00  0.00    +0.000 F 
ATOM      7  C   UNL     1       7.343   8.318  17.315  0.00  0.00    +0.000 A 
ENDROOT
BRANCH   1  13
ATOM      8  C   UNL     1      10.808  13.796  18.732  0.00  0.00    +0.000 A 
ATOM      9  C   UNL     1      11.140  13.402  20.033  0.00  0.00    +0.000 A 
ATOM     10  C   UNL     1      10.765  12.147  20.536  0.00  0.00    +0.000 A 
ATOM     11  C   UNL     1      10.048  11.314  19.676  0.00  0.00    +0.000 A 
ATOM     12  N   UNL     1       9.526  10.053  19.818  0.00  0.00    +0.000 N 
ATOM     13  C   UNL     1       8.901   9.693  18.643  0.00  0.00    +0.000 A 
ATOM     14  N   UNL     1       8.995  10.683  17.770  0.00  0.00    +0.000 NA
ATOM     15  C   UNL     1       9.696  11.683  18.386  0.00  0.00    +0.000 A 
ATOM     16  C   UNL     1      10.072  12.943  17.902  0.00  0.00    +0.000 A 
ATOM     17  H   UNL     1       9.593   9.485  20.647  0.00  0.00    +0.000 HD
BRANCH   8  19
ATOM     18  C   UNL     1       9.998  15.843  17.854  0.00  0.00    +0.000 C 
ATOM     19  O   UNL     1      11.107  15.012  18.176  0.00  0.00    +0.000 OA
ENDBRANCH   8  19
ENDBRANCH   1  13
BRANCH   4  20
ATOM     20  C   UNL     1       6.335   4.650  17.334  0.00  0.00    +0.000 C 
BRANCH  20  21
ATOM     21  N   UNL     1       5.264   4.243  18.240  0.00  0.00    +0.000 N 
ATOM     22  N   UNL     1       5.487   3.213  19.084  0.00  0.00    +0.000 NA
ATOM     23  C   UNL     1       4.348   3.077  19.764  0.00  0.00    +0.000 A 
ATOM     24  C   UNL     1       4.234   2.049  20.831  0.00  0.00    +0.000 C 
ATOM     25  C   UNL     1       3.380   4.036  19.363  0.00  0.00    +0.000 A 
ATOM     26  C   UNL     1       4.003   4.777  18.368  0.00  0.00    +0.000 A 
ATOM     27  C   UNL     1       3.497   5.915  17.555  0.00  0.00    +0.000 C 
BRANCH  25  28
ATOM     28  C   UNL     1       2.008   4.214  19.929  0.00  0.00    +0.000 C 
BRANCH  28  29
ATOM     29  C   UNL     1       0.968   3.288  19.331  0.00  0.00    +0.000 C 
ATOM     30  O   UNL     1       0.249   2.571  20.015  0.00  0.00    +0.000 OA
BRANCH  29  31
ATOM     31  O   UNL     1       0.912   3.251  17.979  0.00  0.00    +0.000 OA
ATOM     32  H   UNL     1       0.573   4.070  17.567  0.00  0.00    +0.000 HD
ENDBRANCH  29  31
ENDBRANCH  28  29
ENDBRANCH  25  28
ENDBRANCH  20  21
ENDBRANCH   4  20
TORSDOF 7
ENDMDL
MODEL 7
REMARK VINA RESULT:      -8.0      6.931     10.351
REMARK  Name = 
REMARK  10 active torsions:
REMARK  status: ('A' for Active; 'I' for Inactive)
REMARK    1  A    between atoms: C_1  and  O_2
REMARK    2  A    between atoms: O_2  and  C_3
REMARK    3  A    between atoms: C_8  and  C_9
REMARK    4  A    between atoms: C_12  and  C_13
REMARK    5  A    between atoms: C_13  and  N_14
REMARK    6  A    between atoms: C_16  and  C_17
REMARK    7  A    between atoms: C_18  and  C_19
REMARK    8  A    between atoms: C_19  and  C_20
REMARK    9  A    between atoms: C_20  and  O_22
REMARK   10  A    between atoms: C_23  and  C_24
REMARK                            x       y       z     vdW  Elec       q    Type
REMARK                         _______ _______ _______ _____ _____    ______ ____
ROOT
ATOM      1  C   UNL     1       1.046   9.180  19.310  0.00  0.00    +0.000 A 
ATOM      2  C   UNL     1       0.712  10.159  18.368  0.00  0.00    +0.000 A 
ATOM      3  C   UNL     1      -0.159  11.206  18.701  0.00  0.00    +0.000 A 
ATOM      4  C   UNL     1      -0.726  11.292  19.981  0.00  0.00    +0.000 A 
ATOM      5  C   UNL     1      -0.401  10.303  20.908  0.00  0.00    +0.000 A 
ATOM      6  F   UNL     1      -0.922  10.349  22.143  0.00  0.00    +0.000 F 
ATOM      7  C   UNL     1       0.469   9.265  20.588  0.00  0.00    +0.000 A 
ENDROOT
BRANCH   1  13
ATOM      8  C   UNL     1       4.736   4.495  18.882  0.00  0.00    +0.000 A 
ATOM      9  C   UNL     1       5.078   5.054  17.646  0.00  0.00    +0.000 A 
ATOM     10  C   UNL     1       4.482   6.240  17.187  0.00  0.00    +0.000 A 
ATOM     11  C   UNL     1       3.534   6.830  18.024  0.00  0.00    +0.000 A 
ATOM     12  N   UNL     1       2.766   7.961  17.911  0.00  0.00    +0.000 N 
ATOM     13  C   UNL     1       1.984   8.085  19.041  0.00  0.00    +0.000 A 
ATOM     14  N   UNL     1       2.220   7.070  19.856  0.00  0.00    +0.000 NA
ATOM     15  C   UNL     1       3.168   6.292  19.249  0.00  0.00    +0.000 A 
ATOM     16  C   UNL     1       3.767   5.105  19.688  0.00  0.00    +0.000 A 
ATOM     17  H   UNL     1       2.774   8.596  17.129  0.00  0.00    +0.000 HD
BRANCH   8  19
ATOM     18  C   UNL     1       4.299   2.419  19.938  0.00  0.00    +0.000 C 
ATOM     19  O   UNL     1       5.245   3.328  19.388  0.00  0.00    +0.000 OA
ENDBRANCH   8  19
ENDBRANCH   1  13
BRANCH   4  20
ATOM     20  C   UNL     1      -1.606  12.447  20.386  0.00  0.00    +0.000 C 
BRANCH  20  21
ATOM     21  N   UNL     1      -2.972  12.304  19.889  0.00  0.00    +0.000 N 
ATOM     22  N   UNL     1      -3.158  11.877  18.622  0.00  0.00    +0.000 NA
ATOM     23  C   UNL     1      -4.481  11.852  18.461  0.00  0.00    +0.000 A 
ATOM     24  C   UNL     1      -5.070  11.385  17.179  0.00  0.00    +0.000 C 
ATOM     25  C   UNL     1      -5.160  12.258  19.642  0.00  0.00    +0.000 A 
ATOM     26  C   UNL     1      -4.152  12.549  20.551  0.00  0.00    +0.000 A 
ATOM     27  C   UNL     1      -4.233  13.033  21.955  0.00  0.00    +0.000 C 
BRANCH  25  28
ATOM     28  C   UNL     1      -6.640  12.316  19.848  0.00  0.00    +0.000 C 
BRANCH  28  29
ATOM     29  C   UNL     1      -7.232  11.050  20.436  0.00  0.00    +0.000 C 
ATOM     30  O   UNL     1      -7.331  10.865  21.642  0.00  0.00    +0.000 OA
BRANCH  29  31
ATOM     31  O   UNL     1      -7.599  10.098  19.547  0.00  0.00    +0.000 OA
ATOM     32  H   UNL     1      -6.856   9.708  19.045  0.00  0.00    +0.000 HD
ENDBRANCH  29  31
ENDBRANCH  28  29
ENDBRANCH  25  28
ENDBRANCH  20  21
ENDBRANCH   4  20
TORSDOF 7
ENDMDL
MODEL 8
REMARK VINA RESULT:      -8.0      1.265      1.412
REMARK  Name = 
REMARK  10 active torsions:
REMARK  status: ('A' for Active; 'I' for Inactive)
REMARK    1  A    between atoms: C_1  and  O_2
REMARK    2  A    between atoms: O_2  and  C_3
REMARK    3  A    between atoms: C_8  and  C_9
REMARK    4  A    between atoms: C_12  and  C_13
REMARK    5  A    between atoms: C_13  and  N_14
REMARK    6  A    between atoms: C_16  and  C_17
REMARK    7  A    between atoms: C_18  and  C_19
REMARK    8  A    between atoms: C_19  and  C_20
REMARK    9  A    between atoms: C_20  and  O_22
REMARK   10  A    between atoms: C_23  and  C_24
REMARK                            x       y       z     vdW  Elec       q    Type
REMARK                         _______ _______ _______ _____ _____    ______ ____
ROOT
ATOM      1  C   UNL     1       8.273   8.491  18.500  0.00  0.00    +0.000 A 
ATOM      2  C   UNL     1       8.582   7.339  19.231  0.00  0.00    +0.000 A 
ATOM      3  C   UNL     1       7.939   6.123  18.957  0.00  0.00    +0.000 A 
ATOM      4  C   UNL     1       6.965   6.033  17.952  0.00  0.00    +0.000 A 
ATOM      5  C   UNL     1       6.653   7.189  17.240  0.00  0.00    +0.000 A 
ATOM      6  F   UNL     1       5.727   7.145  16.270  0.00  0.00    +0.000 F 
ATOM      7  C   UNL     1       7.291   8.398  17.500  0.00  0.00    +0.000 A 
ENDROOT
BRANCH   1  13
ATOM      8  C   UNL     1      10.773  13.919  18.673  0.00  0.00    +0.000 A 
ATOM      9  C   UNL     1      11.291  13.489  19.899  0.00  0.00    +0.000 A 
ATOM     10  C   UNL     1      11.012  12.209  20.405  0.00  0.00    +0.000 A 
ATOM     11  C   UNL     1      10.193  11.391  19.625  0.00  0.00    +0.000 A 
ATOM     12  N   UNL     1       9.718  10.115  19.793  0.00  0.00    +0.000 N 
ATOM     13  C   UNL     1       8.938   9.782  18.705  0.00  0.00    +0.000 A 
ATOM     14  N   UNL     1       8.893  10.802  17.864  0.00  0.00    +0.000 NA
ATOM     15  C   UNL     1       9.657  11.795  18.411  0.00  0.00    +0.000 A 
ATOM     16  C   UNL     1       9.940  13.078  17.925  0.00  0.00    +0.000 A 
ATOM     17  H   UNL     1       9.910   9.521  20.584  0.00  0.00    +0.000 HD
BRANCH   8  19
ATOM     18  C   UNL     1      11.280  15.187  16.736  0.00  0.00    +0.000 C 
ATOM     19  O   UNL     1      10.970  15.159  18.124  0.00  0.00    +0.000 OA
ENDBRANCH   8  19
ENDBRANCH   1  13
BRANCH   4  20
ATOM     20  C   UNL     1       6.314   4.722  17.589  0.00  0.00    +0.000 C 
BRANCH  20  21
ATOM     21  N   UNL     1       4.935   4.638  18.062  0.00  0.00    +0.000 N 
ATOM     22  N   UNL     1       4.610   5.253  19.219  0.00  0.00    +0.000 NA
ATOM     23  C   UNL     1       3.312   4.999  19.387  0.00  0.00    +0.000 A 
ATOM     24  C   UNL     1       2.586   5.561  20.556  0.00  0.00    +0.000 C 
ATOM     25  C   UNL     1       2.789   4.219  18.321  0.00  0.00    +0.000 A 
ATOM     26  C   UNL     1       3.869   3.997  17.477  0.00  0.00    +0.000 A 
ATOM     27  C   UNL     1       3.953   3.239  16.201  0.00  0.00    +0.000 C 
BRANCH  25  28
ATOM     28  C   UNL     1       1.371   3.777  18.148  0.00  0.00    +0.000 C 
BRANCH  28  29
ATOM     29  C   UNL     1       1.025   2.504  18.894  0.00  0.00    +0.000 C 
ATOM     30  O   UNL     1       1.507   2.224  19.984  0.00  0.00    +0.000 OA
BRANCH  29  31
ATOM     31  O   UNL     1       0.188   1.651  18.258  0.00  0.00    +0.000 OA
ATOM     32  H   UNL     1      -0.687   1.552  18.683  0.00  0.00    +0.000 HD
ENDBRANCH  29  31
ENDBRANCH  28  29
ENDBRANCH  25  28
ENDBRANCH  20  21
ENDBRANCH   4  20
TORSDOF 7
ENDMDL
MODEL 9
REMARK VINA RESULT:      -8.0      1.154      1.781
REMARK  Name = 
REMARK  10 active torsions:
REMARK  status: ('A' for Active; 'I' for Inactive)
REMARK    1  A    between atoms: C_1  and  O_2
REMARK    2  A    between atoms: O_2  and  C_3
REMARK    3  A    between atoms: C_8  and  C_9
REMARK    4  A    between atoms: C_12  and  C_13
REMARK    5  A    between atoms: C_13  and  N_14
REMARK    6  A    between atoms: C_16  and  C_17
REMARK    7  A    between atoms: C_18  and  C_19
REMARK    8  A    between atoms: C_19  and  C_20
REMARK    9  A    between atoms: C_20  and  O_22
REMARK   10  A    between atoms: C_23  and  C_24
REMARK                            x       y       z     vdW  Elec       q    Type
REMARK                         _______ _______ _______ _____ _____    ______ ____
ROOT
ATOM      1  C   UNL     1       7.686   8.191  17.925  0.00  0.00    +0.000 A 
ATOM      2  C   UNL     1       6.558   8.058  17.107  0.00  0.00    +0.000 A 
ATOM      3  C   UNL     1       5.913   6.820  16.974  0.00  0.00    +0.000 A 
ATOM      4  C   UNL     1       6.386   5.683  17.646  0.00  0.00    +0.000 A 
ATOM      5  C   UNL     1       7.520   5.823  18.445  0.00  0.00    +0.000 A 
ATOM      6  F   UNL     1       8.004   4.761  19.105  0.00  0.00    +0.000 F 
ATOM      7  C   UNL     1       8.161   7.049  18.589  0.00  0.00    +0.000 A 
ENDROOT
BRANCH   1  13
ATOM      8  C   UNL     1      10.855  13.054  19.355  0.00  0.00    +0.000 A 
ATOM      9  C   UNL     1      10.058  13.686  18.395  0.00  0.00    +0.000 A 
ATOM     10  C   UNL     1       9.074  12.984  17.682  0.00  0.00    +0.000 A 
ATOM     11  C   UNL     1       8.931  11.628  17.979  0.00  0.00    +0.000 A 
ATOM     12  N   UNL     1       8.098  10.650  17.497  0.00  0.00    +0.000 N 
ATOM     13  C   UNL     1       8.380   9.464  18.143  0.00  0.00    +0.000 A 
ATOM     14  N   UNL     1       9.366   9.653  19.005  0.00  0.00    +0.000 NA
ATOM     15  C   UNL     1       9.714  10.973  18.918  0.00  0.00    +0.000 A 
ATOM     16  C   UNL     1      10.697  11.688  19.616  0.00  0.00    +0.000 A 
ATOM     17  H   UNL     1       7.396  10.780  16.786  0.00  0.00    +0.000 HD
BRANCH   8  19
ATOM     18  C   UNL     1      12.104  15.025  19.771  0.00  0.00    +0.000 C 
ATOM     19  O   UNL     1      11.857  13.657  20.071  0.00  0.00    +0.000 OA
ENDBRANCH   8  19
ENDBRANCH   1  13
BRANCH   4  20
ATOM     20  C   UNL     1       5.667   4.360  17.577  0.00  0.00    +0.000 C 
BRANCH  20  21
ATOM     21  N   UNL     1       4.472   4.335  18.417  0.00  0.00    +0.000 N 
ATOM     22  N   UNL     1       4.040   5.492  18.960  0.00  0.00    +0.000 NA
ATOM     23  C   UNL     1       2.957   5.155  19.663  0.00  0.00    +0.000 A 
ATOM     24  C   UNL     1       2.177   6.197  20.379  0.00  0.00    +0.000 C 
ATOM     25  C   UNL     1       2.682   3.765  19.564  0.00  0.00    +0.000 A 
ATOM     26  C   UNL     1       3.686   3.258  18.751  0.00  0.00    +0.000 A 
ATOM     27  C   UNL     1       3.942   1.867  18.292  0.00  0.00    +0.000 C 
BRANCH  25  28
ATOM     28  C   UNL     1       1.532   3.034  20.182  0.00  0.00    +0.000 C 
BRANCH  28  29
ATOM     29  C   UNL     1       1.780   2.582  21.607  0.00  0.00    +0.000 C 
ATOM     30  O   UNL     1       0.886   2.493  22.438  0.00  0.00    +0.000 OA
BRANCH  29  31
ATOM     31  O   UNL     1       3.070   2.332  21.934  0.00  0.00    +0.000 OA
ATOM     32  H   UNL     1       3.650   3.119  21.920  0.00  0.00    +0.000 HD
ENDBRANCH  29  31
ENDBRANCH  28  29
ENDBRANCH  25  28
ENDBRANCH  20  21
ENDBRANCH   4  20
TORSDOF 7
ENDMDL
