MODEL 1
REMARK VINA RESULT:      -7.4      0.000      0.000
REMARK  Name = 
REMARK  4 active torsions:
REMARK  status: ('A' for Active; 'I' for Inactive)
REMARK    1  A    between atoms: C_1  and  N_2
REMARK    2  A    between atoms: C_7  and  O_8
REMARK    3  A    between atoms: C_15  and  O_16
REMARK    4  A    between atoms: C_17  and  O_18
REMARK                            x       y       z     vdW  Elec       q    Type
REMARK                         _______ _______ _______ _____ _____    ______ ____
ROOT
ATOM      1  C   UNL     1       1.984   2.233  17.568  0.00  0.00    +0.000 C 
ATOM      2  N   UNL     1       2.803   2.222  18.769  0.00  0.00    +0.000 NA
ATOM      3  C   UNL     1       2.077   1.589  19.891  0.00  0.00    +0.000 C 
ATOM      4  C   UNL     1       1.758   2.650  20.943  0.00  0.00    +0.000 C 
ATOM      5  C   UNL     1       2.363   3.891  20.385  0.00  0.00    +0.000 C 
ATOM      6  C   UNL     1       2.093   5.139  20.794  0.00  0.00    +0.000 C 
ATOM      7  C   UNL     1       2.729   6.353  20.181  0.00  0.00    +0.000 C 
ATOM      8  C   UNL     1       3.752   6.041  19.069  0.00  0.00    +0.000 C 
ATOM      9  O   UNL     1       5.022   5.960  19.765  0.00  0.00    +0.000 OA
ATOM     10  C   UNL     1       6.097   5.374  19.214  0.00  0.00    +0.000 C 
ATOM     11  O   UNL     1       7.163   5.292  19.812  0.00  0.00    +0.000 OA
ATOM     12  C   UNL     1       5.937   4.902  17.832  0.00  0.00    +0.000 A 
ATOM     13  C   UNL     1       7.081   4.861  17.029  0.00  0.00    +0.000 A 
ATOM     14  C   UNL     1       6.933   4.598  15.682  0.00  0.00    +0.000 A 
ATOM     15  C   UNL     1       5.670   4.327  15.160  0.00  0.00    +0.000 A 
ATOM     16  C   UNL     1       4.536   4.302  15.970  0.00  0.00    +0.000 A 
ATOM     17  C   UNL     1       4.658   4.601  17.332  0.00  0.00    +0.000 A 
ATOM     18  C   UNL     1       3.469   4.736  18.271  0.00  0.00    +0.000 C 
ATOM     19  C   UNL     1       3.287   3.535  19.253  0.00  0.00    +0.000 C 
ENDROOT
BRANCH   7  20
ATOM     20  O   UNL     1       1.715   7.216  19.686  0.00  0.00    +0.000 OA
ATOM     21  H   UNL     1       1.703   7.141  18.718  0.00  0.00    +0.000 HD
ENDBRANCH   7  20
BRANCH  14  22
ATOM     22  O   UNL     1       7.995   4.652  14.825  0.00  0.00    +0.000 OA
ATOM     23  H   UNL     1       8.514   5.449  15.041  0.00  0.00    +0.000 HD
ENDBRANCH  14  22
BRANCH  15  24
ATOM     24  O   UNL     1       5.527   4.126  13.817  0.00  0.00    +0.000 OA
ATOM     25  H   UNL     1       4.901   3.377  13.748  0.00  0.00    +0.000 HD
ENDBRANCH  15  24
TORSDOF 3
ENDMDL
MODEL 2
REMARK VINA RESULT:      -7.4      2.377      5.561
REMARK  Name = 
REMARK  4 active torsions:
REMARK  status: ('A' for Active; 'I' for Inactive)
REMARK    1  A    between atoms: C_1  and  N_2
REMARK    2  A    between atoms: C_7  and  O_8
REMARK    3  A    between atoms: C_15  and  O_16
REMARK    4  A    between atoms: C_17  and  O_18
REMARK                            x       y       z     vdW  Elec       q    Type
REMARK                         _______ _______ _______ _____ _____    ______ ____
ROOT
ATOM      1  C   UNL     1       1.030   3.594  20.624  0.00  0.00    +0.000 C 
ATOM      2  N   UNL     1       1.208   3.761  19.191  0.00  0.00    +0.000 NA
ATOM      3  C   UNL     1       1.269   2.446  18.516  0.00  0.00    +0.000 C 
ATOM      4  C   UNL     1       2.680   2.225  17.975  0.00  0.00    +0.000 C 
ATOM      5  C   UNL     1       3.396   3.479  18.340  0.00  0.00    +0.000 C 
ATOM      6  C   UNL     1       4.727   3.641  18.346  0.00  0.00    +0.000 C 
ATOM      7  C   UNL     1       5.390   4.929  18.736  0.00  0.00    +0.000 C 
ATOM      8  C   UNL     1       4.409   6.066  19.091  0.00  0.00    +0.000 C 
ATOM      9  O   UNL     1       4.209   6.769  17.838  0.00  0.00    +0.000 OA
ATOM     10  C   UNL     1       3.172   7.600  17.648  0.00  0.00    +0.000 C 
ATOM     11  O   UNL     1       2.997   8.178  16.582  0.00  0.00    +0.000 OA
ATOM     12  C   UNL     1       2.306   7.827  18.813  0.00  0.00    +0.000 A 
ATOM     13  C   UNL     1       1.639   9.054  18.891  0.00  0.00    +0.000 A 
ATOM     14  C   UNL     1       0.966   9.367  20.055  0.00  0.00    +0.000 A 
ATOM     15  C   UNL     1       0.916   8.445  21.099  0.00  0.00    +0.000 A 
ATOM     16  C   UNL     1       1.524   7.195  20.999  0.00  0.00    +0.000 A 
ATOM     17  C   UNL     1       2.242   6.871  19.842  0.00  0.00    +0.000 A 
ATOM     18  C   UNL     1       3.053   5.594  19.688  0.00  0.00    +0.000 C 
ATOM     19  C   UNL     1       2.399   4.526  18.756  0.00  0.00    +0.000 C 
ENDROOT
BRANCH   7  20
ATOM     20  O   UNL     1       6.278   4.692  19.821  0.00  0.00    +0.000 OA
ATOM     21  H   UNL     1       6.894   3.990  19.556  0.00  0.00    +0.000 HD
ENDBRANCH   7  20
BRANCH  14  22
ATOM     22  O   UNL     1       0.389  10.591  20.236  0.00  0.00    +0.000 OA
ATOM     23  H   UNL     1      -0.231  10.521  20.986  0.00  0.00    +0.000 HD
ENDBRANCH  14  22
BRANCH  15  24
ATOM     24  O   UNL     1       0.297   8.788  22.267  0.00  0.00    +0.000 OA
ATOM     25  H   UNL     1       1.031   8.940  22.896  0.00  0.00    +0.000 HD
ENDBRANCH  15  24
TORSDOF 3
ENDMDL
MODEL 3
REMARK VINA RESULT:      -6.9      1.484      1.650
REMARK  Name = 
REMARK  4 active torsions:
REMARK  status: ('A' for Active; 'I' for Inactive)
REMARK    1  A    between atoms: C_1  and  N_2
REMARK    2  A    between atoms: C_7  and  O_8
REMARK    3  A    between atoms: C_15  and  O_16
REMARK    4  A    between atoms: C_17  and  O_18
REMARK                            x       y       z     vdW  Elec       q    Type
REMARK                         _______ _______ _______ _____ _____    ______ ____
ROOT
ATOM      1  C   UNL     1       3.228   2.267  17.694  0.00  0.00    +0.000 C 
ATOM      2  N   UNL     1       4.050   2.931  18.692  0.00  0.00    +0.000 NA
ATOM      3  C   UNL     1       3.562   2.630  20.055  0.00  0.00    +0.000 C 
ATOM      4  C   UNL     1       2.986   3.902  20.674  0.00  0.00    +0.000 C 
ATOM      5  C   UNL     1       3.204   4.933  19.622  0.00  0.00    +0.000 C 
ATOM      6  C   UNL     1       2.605   6.133  19.573  0.00  0.00    +0.000 C 
ATOM      7  C   UNL     1       2.858   7.126  18.477  0.00  0.00    +0.000 C 
ATOM      8  C   UNL     1       3.897   6.667  17.431  0.00  0.00    +0.000 C 
ATOM      9  O   UNL     1       5.157   7.183  17.931  0.00  0.00    +0.000 OA
ATOM     10  C   UNL     1       6.338   6.714  17.496  0.00  0.00    +0.000 C 
ATOM     11  O   UNL     1       7.400   7.141  17.934  0.00  0.00    +0.000 OA
ATOM     12  C   UNL     1       6.279   5.716  16.421  0.00  0.00    +0.000 A 
ATOM     13  C   UNL     1       7.367   5.648  15.544  0.00  0.00    +0.000 A 
ATOM     14  C   UNL     1       7.261   4.851  14.422  0.00  0.00    +0.000 A 
ATOM     15  C   UNL     1       6.111   4.093  14.211  0.00  0.00    +0.000 A 
ATOM     16  C   UNL     1       5.052   4.108  15.118  0.00  0.00    +0.000 A 
ATOM     17  C   UNL     1       5.122   4.936  16.244  0.00  0.00    +0.000 A 
ATOM     18  C   UNL     1       3.970   5.128  17.217  0.00  0.00    +0.000 C 
ATOM     19  C   UNL     1       4.159   4.404  18.587  0.00  0.00    +0.000 C 
ENDROOT
BRANCH   7  20
ATOM     20  O   UNL     1       1.629   7.445  17.838  0.00  0.00    +0.000 OA
ATOM     21  H   UNL     1       1.831   7.943  17.030  0.00  0.00    +0.000 HD
ENDBRANCH   7  20
BRANCH  14  22
ATOM     22  O   UNL     1       8.242   4.826  13.472  0.00  0.00    +0.000 OA
ATOM     23  H   UNL     1       8.353   5.734  13.133  0.00  0.00    +0.000 HD
ENDBRANCH  14  22
BRANCH  15  24
ATOM     24  O   UNL     1       5.994   3.353  13.070  0.00  0.00    +0.000 OA
ATOM     25  H   UNL     1       6.858   3.456  12.623  0.00  0.00    +0.000 HD
ENDBRANCH  15  24
TORSDOF 3
ENDMDL
MODEL 4
REMARK VINA RESULT:      -6.8      2.809      5.747
REMARK  Name = 
REMARK  4 active torsions:
REMARK  status: ('A' for Active; 'I' for Inactive)
REMARK    1  A    between atoms: C_1  and  N_2
REMARK    2  A    between atoms: C_7  and  O_8
REMARK    3  A    between atoms: C_15  and  O_16
REMARK    4  A    between atoms: C_17  and  O_18
REMARK                            x       y       z     vdW  Elec       q    Type
REMARK                         _______ _______ _______ _____ _____    ______ ____
ROOT
ATOM      1  C   UNL     1       5.591   7.300  16.488  0.00  0.00    +0.000 C 
ATOM      2  N   UNL     1       5.832   6.536  17.700  0.00  0.00    +0.000 NA
ATOM      3  C   UNL     1       7.066   5.730  17.573  0.00  0.00    +0.000 C 
ATOM      4  C   UNL     1       6.695   4.249  17.530  0.00  0.00    +0.000 C 
ATOM      5  C   UNL     1       5.213   4.254  17.674  0.00  0.00    +0.000 C 
ATOM      6  C   UNL     1       4.401   3.223  17.397  0.00  0.00    +0.000 C 
ATOM      7  C   UNL     1       2.910   3.295  17.552  0.00  0.00    +0.000 C 
ATOM      8  C   UNL     1       2.392   4.642  18.097  0.00  0.00    +0.000 C 
ATOM      9  O   UNL     1       2.343   4.450  19.534  0.00  0.00    +0.000 OA
ATOM     10  C   UNL     1       2.273   5.486  20.386  0.00  0.00    +0.000 C 
ATOM     11  O   UNL     1       2.249   5.319  21.599  0.00  0.00    +0.000 OA
ATOM     12  C   UNL     1       2.158   6.817  19.775  0.00  0.00    +0.000 A 
ATOM     13  C   UNL     1       1.498   7.807  20.510  0.00  0.00    +0.000 A 
ATOM     14  C   UNL     1       1.216   9.009  19.892  0.00  0.00    +0.000 A 
ATOM     15  C   UNL     1       1.635   9.234  18.582  0.00  0.00    +0.000 A 
ATOM     16  C   UNL     1       2.352   8.273  17.870  0.00  0.00    +0.000 A 
ATOM     17  C   UNL     1       2.618   7.034  18.465  0.00  0.00    +0.000 A 
ATOM     18  C   UNL     1       3.268   5.874  17.729  0.00  0.00    +0.000 C 
ATOM     19  C   UNL     1       4.756   5.613  18.128  0.00  0.00    +0.000 C 
ENDROOT
BRANCH   7  20
ATOM     20  O   UNL     1       2.293   3.001  16.306  0.00  0.00    +0.000 OA
ATOM     21  H   UNL     1       1.366   2.769  16.477  0.00  0.00    +0.000 HD
ENDBRANCH   7  20
BRANCH  14  22
ATOM     22  O   UNL     1       0.478   9.974  20.516  0.00  0.00    +0.000 OA
ATOM     23  H   UNL     1       0.830  10.083  21.419  0.00  0.00    +0.000 HD
ENDBRANCH  14  22
BRANCH  15  24
ATOM     24  O   UNL     1       1.300  10.403  17.962  0.00  0.00    +0.000 OA
ATOM     25  H   UNL     1       0.326  10.367  17.883  0.00  0.00    +0.000 HD
ENDBRANCH  15  24
TORSDOF 3
ENDMDL
MODEL 5
REMARK VINA RESULT:      -6.4     11.142     14.281
REMARK  Name = 
REMARK  4 active torsions:
REMARK  status: ('A' for Active; 'I' for Inactive)
REMARK    1  A    between atoms: C_1  and  N_2
REMARK    2  A    between atoms: C_7  and  O_8
REMARK    3  A    between atoms: C_15  and  O_16
REMARK    4  A    between atoms: C_17  and  O_18
REMARK                            x       y       z     vdW  Elec       q    Type
REMARK                         _______ _______ _______ _____ _____    ______ ____
ROOT
ATOM      1  C   UNL     1      -2.454  13.680  20.518  0.00  0.00    +0.000 C 
ATOM      2  N   UNL     1      -2.864  12.298  20.334  0.00  0.00    +0.000 NA
ATOM      3  C   UNL     1      -1.901  11.576  19.475  0.00  0.00    +0.000 C 
ATOM      4  C   UNL     1      -2.571  11.235  18.146  0.00  0.00    +0.000 C 
ATOM      5  C   UNL     1      -3.956  11.760  18.307  0.00  0.00    +0.000 C 
ATOM      6  C   UNL     1      -4.830  11.966  17.311  0.00  0.00    +0.000 C 
ATOM      7  C   UNL     1      -6.210  12.510  17.537  0.00  0.00    +0.000 C 
ATOM      8  C   UNL     1      -6.554  12.774  19.019  0.00  0.00    +0.000 C 
ATOM      9  O   UNL     1      -7.172  11.540  19.466  0.00  0.00    +0.000 OA
ATOM     10  C   UNL     1      -7.300  11.243  20.769  0.00  0.00    +0.000 C 
ATOM     11  O   UNL     1      -7.807  10.191  21.142  0.00  0.00    +0.000 OA
ATOM     12  C   UNL     1      -6.862  12.279  21.713  0.00  0.00    +0.000 A 
ATOM     13  C   UNL     1      -7.488  12.318  22.963  0.00  0.00    +0.000 A 
ATOM     14  C   UNL     1      -7.228  13.386  23.798  0.00  0.00    +0.000 A 
ATOM     15  C   UNL     1      -6.317  14.367  23.412  0.00  0.00    +0.000 A 
ATOM     16  C   UNL     1      -5.640  14.295  22.195  0.00  0.00    +0.000 A 
ATOM     17  C   UNL     1      -5.915  13.240  21.317  0.00  0.00    +0.000 A 
ATOM     18  C   UNL     1      -5.338  13.144  19.914  0.00  0.00    +0.000 C 
ATOM     19  C   UNL     1      -4.209  12.077  19.755  0.00  0.00    +0.000 C 
ENDROOT
BRANCH   7  20
ATOM     20  O   UNL     1      -6.378  13.699  16.777  0.00  0.00    +0.000 OA
ATOM     21  H   UNL     1      -5.752  14.361  17.112  0.00  0.00    +0.000 HD
ENDBRANCH   7  20
BRANCH  14  22
ATOM     22  O   UNL     1      -7.890  13.541  24.983  0.00  0.00    +0.000 OA
ATOM     23  H   UNL     1      -8.354  12.706  25.178  0.00  0.00    +0.000 HD
ENDBRANCH  14  22
BRANCH  15  24
ATOM     24  O   UNL     1      -6.111  15.448  24.220  0.00  0.00    +0.000 OA
ATOM     25  H   UNL     1      -6.459  16.205  23.708  0.00  0.00    +0.000 HD
ENDBRANCH  15  24
TORSDOF 3
ENDMDL
MODEL 6
REMARK VINA RESULT:      -6.4      2.213      5.391
REMARK  Name = 
REMARK  4 active torsions:
REMARK  status: ('A' for Active; 'I' for Inactive)
REMARK    1  A    between atoms: C_1  and  N_2
REMARK    2  A    between atoms: C_7  and  O_8
REMARK    3  A    between atoms: C_15  and  O_16
REMARK    4  A    between atoms: C_17  and  O_18
REMARK                            x       y       z     vdW  Elec       q    Type
REMARK                         _______ _______ _______ _____ _____    ______ ____
ROOT
ATOM      1  C   UNL     1       5.543   2.854  15.523  0.00  0.00    +0.000 C 
ATOM      2  N   UNL     1       5.241   4.275  15.480  0.00  0.00    +0.000 NA
ATOM      3  C   UNL     1       6.100   4.963  14.492  0.00  0.00    +0.000 C 
ATOM      4  C   UNL     1       7.068   5.888  15.226  0.00  0.00    +0.000 C 
ATOM      5  C   UNL     1       6.695   5.720  16.659  0.00  0.00    +0.000 C 
ATOM      6  C   UNL     1       7.446   6.091  17.706  0.00  0.00    +0.000 C 
ATOM      7  C   UNL     1       7.018   5.883  19.130  0.00  0.00    +0.000 C 
ATOM      8  C   UNL     1       5.623   5.243  19.287  0.00  0.00    +0.000 C 
ATOM      9  O   UNL     1       4.720   6.375  19.380  0.00  0.00    +0.000 OA
ATOM     10  C   UNL     1       3.398   6.246  19.182  0.00  0.00    +0.000 C 
ATOM     11  O   UNL     1       2.642   7.207  19.244  0.00  0.00    +0.000 OA
ATOM     12  C   UNL     1       2.910   4.879  18.957  0.00  0.00    +0.000 A 
ATOM     13  C   UNL     1       1.596   4.592  19.342  0.00  0.00    +0.000 A 
ATOM     14  C   UNL     1       1.171   3.280  19.311  0.00  0.00    +0.000 A 
ATOM     15  C   UNL     1       2.027   2.280  18.852  0.00  0.00    +0.000 A 
ATOM     16  C   UNL     1       3.315   2.572  18.405  0.00  0.00    +0.000 A 
ATOM     17  C   UNL     1       3.779   3.892  18.460  0.00  0.00    +0.000 A 
ATOM     18  C   UNL     1       5.208   4.293  18.128  0.00  0.00    +0.000 C 
ATOM     19  C   UNL     1       5.368   5.019  16.755  0.00  0.00    +0.000 C 
ENDROOT
BRANCH   7  20
ATOM     20  O   UNL     1       7.994   5.101  19.805  0.00  0.00    +0.000 OA
ATOM     21  H   UNL     1       8.144   4.295  19.287  0.00  0.00    +0.000 HD
ENDBRANCH   7  20
BRANCH  14  22
ATOM     22  O   UNL     1      -0.061   2.919  19.778  0.00  0.00    +0.000 OA
ATOM     23  H   UNL     1       0.013   2.023  20.156  0.00  0.00    +0.000 HD
ENDBRANCH  14  22
BRANCH  15  24
ATOM     24  O   UNL     1       1.616   0.979  18.880  0.00  0.00    +0.000 OA
ATOM     25  H   UNL     1       1.428   0.762  17.945  0.00  0.00    +0.000 HD
ENDBRANCH  15  24
TORSDOF 3
ENDMDL
MODEL 7
REMARK VINA RESULT:      -6.4      7.548     10.961
REMARK  Name = 
REMARK  4 active torsions:
REMARK  status: ('A' for Active; 'I' for Inactive)
REMARK    1  A    between atoms: C_1  and  N_2
REMARK    2  A    between atoms: C_7  and  O_8
REMARK    3  A    between atoms: C_15  and  O_16
REMARK    4  A    between atoms: C_17  and  O_18
REMARK                            x       y       z     vdW  Elec       q    Type
REMARK                         _______ _______ _______ _____ _____    ______ ____
ROOT
ATOM      1  C   UNL     1      -0.248  14.835  18.987  0.00  0.00    +0.000 C 
ATOM      2  N   UNL     1       0.834  14.237  19.750  0.00  0.00    +0.000 NA
ATOM      3  C   UNL     1       2.146  14.599  19.170  0.00  0.00    +0.000 C 
ATOM      4  C   UNL     1       2.791  13.350  18.573  0.00  0.00    +0.000 C 
ATOM      5  C   UNL     1       1.810  12.270  18.874  0.00  0.00    +0.000 C 
ATOM      6  C   UNL     1       1.784  11.060  18.297  0.00  0.00    +0.000 C 
ATOM      7  C   UNL     1       0.760  10.017  18.635  0.00  0.00    +0.000 C 
ATOM      8  C   UNL     1      -0.238  10.439  19.734  0.00  0.00    +0.000 C 
ATOM      9  O   UNL     1       0.368   9.972  20.966  0.00  0.00    +0.000 OA
ATOM     10  C   UNL     1      -0.013  10.438  22.165  0.00  0.00    +0.000 C 
ATOM     11  O   UNL     1       0.515  10.054  23.202  0.00  0.00    +0.000 OA
ATOM     12  C   UNL     1      -1.140  11.380  22.163  0.00  0.00    +0.000 A 
ATOM     13  C   UNL     1      -1.947  11.422  23.305  0.00  0.00    +0.000 A 
ATOM     14  C   UNL     1      -3.113  12.159  23.262  0.00  0.00    +0.000 A 
ATOM     15  C   UNL     1      -3.437  12.885  22.118  0.00  0.00    +0.000 A 
ATOM     16  C   UNL     1      -2.601  12.898  21.001  0.00  0.00    +0.000 A 
ATOM     17  C   UNL     1      -1.432  12.129  21.010  0.00  0.00    +0.000 A 
ATOM     18  C   UNL     1      -0.527  11.966  19.799  0.00  0.00    +0.000 C 
ATOM     19  C   UNL     1       0.813  12.763  19.887  0.00  0.00    +0.000 C 
ENDROOT
BRANCH   7  20
ATOM     20  O   UNL     1       0.060   9.644  17.455  0.00  0.00    +0.000 OA
ATOM     21  H   UNL     1       0.710   9.325  16.809  0.00  0.00    +0.000 HD
ENDBRANCH   7  20
BRANCH  14  22
ATOM     22  O   UNL     1      -3.998  12.152  24.303  0.00  0.00    +0.000 OA
ATOM     23  H   UNL     1      -4.674  11.475  24.116  0.00  0.00    +0.000 HD
ENDBRANCH  14  22
BRANCH  15  24
ATOM     24  O   UNL     1      -4.620  13.564  22.065  0.00  0.00    +0.000 OA
ATOM     25  H   UNL     1      -4.403  14.397  21.602  0.00  0.00    +0.000 HD
ENDBRANCH  15  24
TORSDOF 3
ENDMDL
MODEL 8
REMARK VINA RESULT:      -6.4      8.565     11.025
REMARK  Name = 
REMARK  4 active torsions:
REMARK  status: ('A' for Active; 'I' for Inactive)
REMARK    1  A    between atoms: C_1  and  N_2
REMARK    2  A    between atoms: C_7  and  O_8
REMARK    3  A    between atoms: C_15  and  O_16
REMARK    4  A    between atoms: C_17  and  O_18
REMARK                            x       y       z     vdW  Elec       q    Type
REMARK                         _______ _______ _______ _____ _____    ______ ____
ROOT
ATOM      1  C   UNL     1      -5.261  13.501  20.818  0.00  0.00    +0.000 C 
ATOM      2  N   UNL     1      -4.963  12.538  21.865  0.00  0.00    +0.000 NA
ATOM      3  C   UNL     1      -5.962  12.622  22.952  0.00  0.00    +0.000 C 
ATOM      4  C   UNL     1      -5.290  13.169  24.209  0.00  0.00    +0.000 C 
ATOM      5  C   UNL     1      -3.871  13.353  23.797  0.00  0.00    +0.000 C 
ATOM      6  C   UNL     1      -2.958  14.084  24.454  0.00  0.00    +0.000 C 
ATOM      7  C   UNL     1      -1.544  14.241  23.979  0.00  0.00    +0.000 C 
ATOM      8  C   UNL     1      -1.215  13.456  22.691  0.00  0.00    +0.000 C 
ATOM      9  O   UNL     1      -0.714  12.181  23.169  0.00  0.00    +0.000 OA
ATOM     10  C   UNL     1      -0.643  11.103  22.371  0.00  0.00    +0.000 C 
ATOM     11  O   UNL     1      -0.236  10.024  22.784  0.00  0.00    +0.000 OA
ATOM     12  C   UNL     1      -1.017  11.314  20.967  0.00  0.00    +0.000 A 
ATOM     13  C   UNL     1      -0.420  10.486  20.010  0.00  0.00    +0.000 A 
ATOM     14  C   UNL     1      -0.610  10.777  18.675  0.00  0.00    +0.000 A 
ATOM     15  C   UNL     1      -1.427  11.844  18.303  0.00  0.00    +0.000 A 
ATOM     16  C   UNL     1      -2.076  12.630  19.254  0.00  0.00    +0.000 A 
ATOM     17  C   UNL     1      -1.869  12.375  20.615  0.00  0.00    +0.000 A 
ATOM     18  C   UNL     1      -2.418  13.255  21.726  0.00  0.00    +0.000 C 
ATOM     19  C   UNL     1      -3.628  12.637  22.496  0.00  0.00    +0.000 C 
ENDROOT
BRANCH   7  20
ATOM     20  O   UNL     1      -1.258  15.621  23.797  0.00  0.00    +0.000 OA
ATOM     21  H   UNL     1      -2.018  16.028  23.351  0.00  0.00    +0.000 HD
ENDBRANCH   7  20
BRANCH  14  22
ATOM     22  O   UNL     1       0.033  10.076  17.694  0.00  0.00    +0.000 OA
ATOM     23  H   UNL     1       0.925   9.855  18.021  0.00  0.00    +0.000 HD
ENDBRANCH  14  22
BRANCH  15  24
ATOM     24  O   UNL     1      -1.561  12.158  16.982  0.00  0.00    +0.000 OA
ATOM     25  H   UNL     1      -0.676  11.992  16.600  0.00  0.00    +0.000 HD
ENDBRANCH  15  24
TORSDOF 3
ENDMDL
MODEL 9
REMARK VINA RESULT:      -6.2      5.982      8.240
REMARK  Name = 
REMARK  4 active torsions:
REMARK  status: ('A' for Active; 'I' for Inactive)
REMARK    1  A    between atoms: C_1  and  N_2
REMARK    2  A    between atoms: C_7  and  O_8
REMARK    3  A    between atoms: C_15  and  O_16
REMARK    4  A    between atoms: C_17  and  O_18
REMARK                            x       y       z     vdW  Elec       q    Type
REMARK                         _______ _______ _______ _____ _____    ______ ____
ROOT
ATOM      1  C   UNL     1      -1.891  10.349  16.678  0.00  0.00    +0.000 C 
ATOM      2  N   UNL     1      -2.587  10.155  17.939  0.00  0.00    +0.000 NA
ATOM      3  C   UNL     1      -3.974  10.662  17.853  0.00  0.00    +0.000 C 
ATOM      4  C   UNL     1      -4.114  11.890  18.750  0.00  0.00    +0.000 C 
ATOM      5  C   UNL     1      -2.767  12.028  19.369  0.00  0.00    +0.000 C 
ATOM      6  C   UNL     1      -2.307  13.122  19.995  0.00  0.00    +0.000 C 
ATOM      7  C   UNL     1      -0.931  13.204  20.589  0.00  0.00    +0.000 C 
ATOM      8  C   UNL     1      -0.103  11.908  20.454  0.00  0.00    +0.000 C 
ATOM      9  O   UNL     1      -0.381  11.178  21.677  0.00  0.00    +0.000 OA
ATOM     10  C   UNL     1      -0.128   9.865  21.792  0.00  0.00    +0.000 C 
ATOM     11  O   UNL     1      -0.381   9.249  22.820  0.00  0.00    +0.000 OA
ATOM     12  C   UNL     1       0.531   9.232  20.642  0.00  0.00    +0.000 A 
ATOM     13  C   UNL     1       1.337   8.118  20.895  0.00  0.00    +0.000 A 
ATOM     14  C   UNL     1       2.109   7.615  19.867  0.00  0.00    +0.000 A 
ATOM     15  C   UNL     1       2.033   8.182  18.597  0.00  0.00    +0.000 A 
ATOM     16  C   UNL     1       1.180   9.251  18.325  0.00  0.00    +0.000 A 
ATOM     17  C   UNL     1       0.415   9.800  19.361  0.00  0.00    +0.000 A 
ATOM     18  C   UNL     1      -0.439  11.048  19.203  0.00  0.00    +0.000 C 
ATOM     19  C   UNL     1      -1.974  10.771  19.137  0.00  0.00    +0.000 C 
ENDROOT
BRANCH   7  20
ATOM     20  O   UNL     1      -0.231  14.295  20.006  0.00  0.00    +0.000 OA
ATOM     21  H   UNL     1      -0.339  14.240  19.043  0.00  0.00    +0.000 HD
ENDBRANCH   7  20
BRANCH  14  22
ATOM     22  O   UNL     1       3.000   6.600  20.076  0.00  0.00    +0.000 OA
ATOM     23  H   UNL     1       3.845   6.997  20.358  0.00  0.00    +0.000 HD
ENDBRANCH  14  22
BRANCH  15  24
ATOM     24  O   UNL     1       2.844   7.714  17.603  0.00  0.00    +0.000 OA
ATOM     25  H   UNL     1       3.751   7.860  17.939  0.00  0.00    +0.000 HD
ENDBRANCH  15  24
TORSDOF 3
ENDMDL
