MODEL 1
REMARK VINA RESULT:      -8.1      0.000      0.000
REMARK  Name = 
REMARK  16 active torsions:
REMARK  status: ('A' for Active; 'I' for Inactive)
REMARK    1  A    between atoms: C_1  and  C_2
REMARK    2  A    between atoms: C_3  and  C_4
REMARK    3  A    between atoms: C_4  and  C_5
REMARK    4  A    between atoms: C_5  and  C_6
REMARK    5  A    between atoms: C_6  and  C_7
REMARK    6  A    between atoms: C_8  and  C_9
REMARK    7  A    between atoms: C_9  and  C_10
REMARK    8  A    between atoms: C_10  and  C_11
REMARK    9  A    between atoms: C_11  and  C_12
REMARK   10  A    between atoms: C_13  and  C_14
REMARK   11  A    between atoms: C_14  and  C_15
REMARK   12  A    between atoms: C_15  and  C_16
REMARK   13  A    between atoms: C_16  and  C_17
REMARK   14  A    between atoms: C_18  and  C_19
REMARK   15  A    between atoms: C_19  and  C_20
REMARK   16  A    between atoms: C_21  and  C_22
REMARK                            x       y       z     vdW  Elec       q    Type
REMARK                         _______ _______ _______ _____ _____    ______ ____
ROOT
ATOM      1  C   UNL     1       1.325   3.880  20.040  0.00  0.00    +0.000 C 
ATOM      2  C   UNL     1       1.570   3.337  21.423  0.00  0.00    +0.000 C 
ATOM      3  C   UNL     1       1.332   5.205  19.778  0.00  0.00    +0.000 C 
ENDROOT
BRANCH   1   4
ATOM      4  C   UNL     1       1.145   2.856  18.928  0.00  0.00    +0.000 C 
BRANCH   4   5
ATOM      5  C   UNL     1       2.418   2.638  18.106  0.00  0.00    +0.000 C 
BRANCH   5   8
ATOM      6  C   UNL     1       4.494   3.760  18.963  0.00  0.00    +0.000 C 
ATOM      7  C   UNL     1       4.752   2.550  19.834  0.00  0.00    +0.000 C 
ATOM      8  C   UNL     1       3.403   3.781  18.166  0.00  0.00    +0.000 C 
BRANCH   6   9
ATOM      9  C   UNL     1       5.456   4.945  18.974  0.00  0.00    +0.000 C 
BRANCH   9  10
ATOM     10  C   UNL     1       6.851   4.620  18.434  0.00  0.00    +0.000 C 
BRANCH  10  13
ATOM     11  C   UNL     1       6.731   5.329  16.045  0.00  0.00    +0.000 C 
ATOM     12  C   UNL     1       6.332   6.717  16.490  0.00  0.00    +0.000 C 
ATOM     13  C   UNL     1       6.972   4.361  16.958  0.00  0.00    +0.000 C 
BRANCH  11  14
ATOM     14  C   UNL     1       6.830   5.037  14.559  0.00  0.00    +0.000 C 
BRANCH  14  15
ATOM     15  C   UNL     1       6.156   3.734  14.105  0.00  0.00    +0.000 C 
BRANCH  15  18
ATOM     16  C   UNL     1       4.038   3.299  10.871  0.00  0.00    +0.000 C 
ATOM     17  C   UNL     1       4.498   3.274  12.293  0.00  0.00    +0.000 C 
ATOM     18  C   UNL     1       5.652   3.821  12.695  0.00  0.00    +0.000 C 
ENDBRANCH  15  18
ENDBRANCH  14  15
ENDBRANCH  11  14
ENDBRANCH  10  13
ENDBRANCH   9  10
ENDBRANCH   6   9
ENDBRANCH   5   8
ENDBRANCH   4   5
ENDBRANCH   1   4
BRANCH   3  19
ATOM     19  C   UNL     1       1.686   6.306  20.750  0.00  0.00    +0.000 C 
BRANCH  19  20
ATOM     20  C   UNL     1       1.517   7.703  20.192  0.00  0.00    +0.000 C 
ATOM     21  C   UNL     1       2.013   8.141  19.017  0.00  0.00    +0.000 C 
ATOM     22  C   UNL     1       2.884   7.357  18.074  0.00  0.00    +0.000 C 
ATOM     23  C   UNL     1       1.705   9.513  18.512  0.00  0.00    +0.000 C 
ATOM     24  O   UNL     1       2.158   9.916  17.446  0.00  0.00    +0.000 OA
ATOM     25  C   UNL     1       0.828  10.378  19.312  0.00  0.00    +0.000 A 
ATOM     26  C   UNL     1       0.503  11.658  18.840  0.00  0.00    +0.000 A 
ATOM     27  C   UNL     1      -0.326  12.491  19.592  0.00  0.00    +0.000 A 
ATOM     28  C   UNL     1      -0.834  12.049  20.813  0.00  0.00    +0.000 A 
ATOM     29  C   UNL     1      -0.514  10.773  21.278  0.00  0.00    +0.000 A 
ATOM     30  C   UNL     1       0.320   9.935  20.524  0.00  0.00    +0.000 A 
ATOM     31  C   UNL     1       0.640   8.587  21.021  0.00  0.00    +0.000 C 
ATOM     32  O   UNL     1       0.174   8.207  22.091  0.00  0.00    +0.000 OA
ENDBRANCH  19  20
ENDBRANCH   3  19
TORSDOF 11
ENDMDL
MODEL 2
REMARK VINA RESULT:      -8.0      2.629      4.836
REMARK  Name = 
REMARK  16 active torsions:
REMARK  status: ('A' for Active; 'I' for Inactive)
REMARK    1  A    between atoms: C_1  and  C_2
REMARK    2  A    between atoms: C_3  and  C_4
REMARK    3  A    between atoms: C_4  and  C_5
REMARK    4  A    between atoms: C_5  and  C_6
REMARK    5  A    between atoms: C_6  and  C_7
REMARK    6  A    between atoms: C_8  and  C_9
REMARK    7  A    between atoms: C_9  and  C_10
REMARK    8  A    between atoms: C_10  and  C_11
REMARK    9  A    between atoms: C_11  and  C_12
REMARK   10  A    between atoms: C_13  and  C_14
REMARK   11  A    between atoms: C_14  and  C_15
REMARK   12  A    between atoms: C_15  and  C_16
REMARK   13  A    between atoms: C_16  and  C_17
REMARK   14  A    between atoms: C_18  and  C_19
REMARK   15  A    between atoms: C_19  and  C_20
REMARK   16  A    between atoms: C_21  and  C_22
REMARK                            x       y       z     vdW  Elec       q    Type
REMARK                         _______ _______ _______ _____ _____    ______ ____
ROOT
ATOM      1  C   UNL     1       1.250  10.364  18.760  0.00  0.00    +0.000 C 
ATOM      2  C   UNL     1       2.079  11.500  18.220  0.00  0.00    +0.000 C 
ATOM      3  C   UNL     1       0.524  10.481  19.891  0.00  0.00    +0.000 C 
ENDROOT
BRANCH   1   4
ATOM      4  C   UNL     1       1.207   9.094  17.921  0.00  0.00    +0.000 C 
BRANCH   4   5
ATOM      5  C   UNL     1       2.577   8.425  17.780  0.00  0.00    +0.000 C 
BRANCH   5   8
ATOM      6  C   UNL     1       3.671   6.166  17.848  0.00  0.00    +0.000 C 
ATOM      7  C   UNL     1       5.015   6.847  17.711  0.00  0.00    +0.000 C 
ATOM      8  C   UNL     1       2.548   6.919  17.878  0.00  0.00    +0.000 C 
BRANCH   6   9
ATOM      9  C   UNL     1       3.577   4.647  17.958  0.00  0.00    +0.000 C 
BRANCH   9  10
ATOM     10  C   UNL     1       4.772   3.904  17.355  0.00  0.00    +0.000 C 
BRANCH  10  13
ATOM     11  C   UNL     1       6.207   4.337  15.360  0.00  0.00    +0.000 C 
ATOM     12  C   UNL     1       7.395   4.532  16.273  0.00  0.00    +0.000 C 
ATOM     13  C   UNL     1       4.990   4.043  15.874  0.00  0.00    +0.000 C 
BRANCH  11  14
ATOM     14  C   UNL     1       6.397   4.502  13.864  0.00  0.00    +0.000 C 
BRANCH  14  15
ATOM     15  C   UNL     1       5.821   3.367  13.004  0.00  0.00    +0.000 C 
BRANCH  15  18
ATOM     16  C   UNL     1       3.200   3.571  10.137  0.00  0.00    +0.000 C 
ATOM     17  C   UNL     1       4.131   3.061  11.190  0.00  0.00    +0.000 C 
ATOM     18  C   UNL     1       4.828   3.869  11.998  0.00  0.00    +0.000 C 
ENDBRANCH  15  18
ENDBRANCH  14  15
ENDBRANCH  11  14
ENDBRANCH  10  13
ENDBRANCH   9  10
ENDBRANCH   6   9
ENDBRANCH   5   8
ENDBRANCH   4   5
ENDBRANCH   1   4
BRANCH   3  19
ATOM     19  C   UNL     1       0.332  11.741  20.704  0.00  0.00    +0.000 C 
BRANCH  19  20
ATOM     20  C   UNL     1      -1.116  12.127  20.917  0.00  0.00    +0.000 C 
ATOM     21  C   UNL     1      -2.021  12.336  19.940  0.00  0.00    +0.000 C 
ATOM     22  C   UNL     1      -1.753  12.298  18.460  0.00  0.00    +0.000 C 
ATOM     23  C   UNL     1      -3.452  12.619  20.260  0.00  0.00    +0.000 C 
ATOM     24  O   UNL     1      -4.277  12.814  19.373  0.00  0.00    +0.000 OA
ATOM     25  C   UNL     1      -3.868  12.643  21.669  0.00  0.00    +0.000 A 
ATOM     26  C   UNL     1      -5.213  12.877  21.989  0.00  0.00    +0.000 A 
ATOM     27  C   UNL     1      -5.620  12.907  23.323  0.00  0.00    +0.000 A 
ATOM     28  C   UNL     1      -4.688  12.702  24.339  0.00  0.00    +0.000 A 
ATOM     29  C   UNL     1      -3.350  12.464  24.019  0.00  0.00    +0.000 A 
ATOM     30  C   UNL     1      -2.940  12.435  22.679  0.00  0.00    +0.000 A 
ATOM     31  C   UNL     1      -1.529  12.171  22.354  0.00  0.00    +0.000 C 
ATOM     32  O   UNL     1      -0.723  11.979  23.259  0.00  0.00    +0.000 OA
ENDBRANCH  19  20
ENDBRANCH   3  19
TORSDOF 11
ENDMDL
MODEL 3
REMARK VINA RESULT:      -8.0      5.585      9.398
REMARK  Name = 
REMARK  16 active torsions:
REMARK  status: ('A' for Active; 'I' for Inactive)
REMARK    1  A    between atoms: C_1  and  C_2
REMARK    2  A    between atoms: C_3  and  C_4
REMARK    3  A    between atoms: C_4  and  C_5
REMARK    4  A    between atoms: C_5  and  C_6
REMARK    5  A    between atoms: C_6  and  C_7
REMARK    6  A    between atoms: C_8  and  C_9
REMARK    7  A    between atoms: C_9  and  C_10
REMARK    8  A    between atoms: C_10  and  C_11
REMARK    9  A    between atoms: C_11  and  C_12
REMARK   10  A    between atoms: C_13  and  C_14
REMARK   11  A    between atoms: C_14  and  C_15
REMARK   12  A    between atoms: C_15  and  C_16
REMARK   13  A    between atoms: C_16  and  C_17
REMARK   14  A    between atoms: C_18  and  C_19
REMARK   15  A    between atoms: C_19  and  C_20
REMARK   16  A    between atoms: C_21  and  C_22
REMARK                            x       y       z     vdW  Elec       q    Type
REMARK                         _______ _______ _______ _____ _____    ______ ____
ROOT
ATOM      1  C   UNL     1       6.976   7.231  17.321  0.00  0.00    +0.000 C 
ATOM      2  C   UNL     1       7.449   6.349  16.195  0.00  0.00    +0.000 C 
ATOM      3  C   UNL     1       5.668   7.497  17.523  0.00  0.00    +0.000 C 
ENDROOT
BRANCH   1   4
ATOM      4  C   UNL     1       8.044   7.747  18.276  0.00  0.00    +0.000 C 
BRANCH   4   5
ATOM      5  C   UNL     1       8.282   9.254  18.147  0.00  0.00    +0.000 C 
BRANCH   5   8
ATOM      6  C   UNL     1       9.932  10.997  18.882  0.00  0.00    +0.000 C 
ATOM      7  C   UNL     1       9.538  11.831  17.682  0.00  0.00    +0.000 C 
ATOM      8  C   UNL     1       9.335   9.801  19.081  0.00  0.00    +0.000 C 
BRANCH   6   9
ATOM      9  C   UNL     1      10.986  11.499  19.865  0.00  0.00    +0.000 C 
BRANCH   9  10
ATOM     10  C   UNL     1      10.561  12.742  20.652  0.00  0.00    +0.000 C 
BRANCH  10  13
ATOM     11  C   UNL     1       8.334  13.106  21.718  0.00  0.00    +0.000 C 
ATOM     12  C   UNL     1       7.922  13.953  20.537  0.00  0.00    +0.000 C 
ATOM     13  C   UNL     1       9.564  12.545  21.761  0.00  0.00    +0.000 C 
BRANCH  11  14
ATOM     14  C   UNL     1       7.356  12.917  22.863  0.00  0.00    +0.000 C 
BRANCH  14  15
ATOM     15  C   UNL     1       7.672  11.745  23.804  0.00  0.00    +0.000 C 
BRANCH  15  18
ATOM     16  C   UNL     1       8.778  13.960  26.805  0.00  0.00    +0.000 C 
ATOM     17  C   UNL     1       8.170  13.488  25.523  0.00  0.00    +0.000 C 
ATOM     18  C   UNL     1       8.212  12.212  25.123  0.00  0.00    +0.000 C 
ENDBRANCH  15  18
ENDBRANCH  14  15
ENDBRANCH  11  14
ENDBRANCH  10  13
ENDBRANCH   9  10
ENDBRANCH   6   9
ENDBRANCH   5   8
ENDBRANCH   4   5
ENDBRANCH   1   4
BRANCH   3  19
ATOM     19  C   UNL     1       4.507   6.894  16.767  0.00  0.00    +0.000 C 
BRANCH  19  20
ATOM     20  C   UNL     1       3.955   5.628  17.385  0.00  0.00    +0.000 C 
ATOM     21  C   UNL     1       4.290   4.372  17.026  0.00  0.00    +0.000 C 
ATOM     22  C   UNL     1       5.215   3.988  15.903  0.00  0.00    +0.000 C 
ATOM     23  C   UNL     1       3.759   3.188  17.767  0.00  0.00    +0.000 C 
ATOM     24  O   UNL     1       4.060   2.045  17.440  0.00  0.00    +0.000 OA
ATOM     25  C   UNL     1       2.876   3.416  18.919  0.00  0.00    +0.000 A 
ATOM     26  C   UNL     1       2.392   2.319  19.645  0.00  0.00    +0.000 A 
ATOM     27  C   UNL     1       1.548   2.521  20.738  0.00  0.00    +0.000 A 
ATOM     28  C   UNL     1       1.189   3.816  21.109  0.00  0.00    +0.000 A 
ATOM     29  C   UNL     1       1.676   4.907  20.388  0.00  0.00    +0.000 A 
ATOM     30  C   UNL     1       2.523   4.705  19.288  0.00  0.00    +0.000 A 
ATOM     31  C   UNL     1       3.039   5.865  18.544  0.00  0.00    +0.000 C 
ATOM     32  O   UNL     1       2.724   6.999  18.891  0.00  0.00    +0.000 OA
ENDBRANCH  19  20
ENDBRANCH   3  19
TORSDOF 11
ENDMDL
MODEL 4
REMARK VINA RESULT:      -7.9      2.049      3.701
REMARK  Name = 
REMARK  16 active torsions:
REMARK  status: ('A' for Active; 'I' for Inactive)
REMARK    1  A    between atoms: C_1  and  C_2
REMARK    2  A    between atoms: C_3  and  C_4
REMARK    3  A    between atoms: C_4  and  C_5
REMARK    4  A    between atoms: C_5  and  C_6
REMARK    5  A    between atoms: C_6  and  C_7
REMARK    6  A    between atoms: C_8  and  C_9
REMARK    7  A    between atoms: C_9  and  C_10
REMARK    8  A    between atoms: C_10  and  C_11
REMARK    9  A    between atoms: C_11  and  C_12
REMARK   10  A    between atoms: C_13  and  C_14
REMARK   11  A    between atoms: C_14  and  C_15
REMARK   12  A    between atoms: C_15  and  C_16
REMARK   13  A    between atoms: C_16  and  C_17
REMARK   14  A    between atoms: C_18  and  C_19
REMARK   15  A    between atoms: C_19  and  C_20
REMARK   16  A    between atoms: C_21  and  C_22
REMARK                            x       y       z     vdW  Elec       q    Type
REMARK                         _______ _______ _______ _____ _____    ______ ____
ROOT
ATOM      1  C   UNL     1       1.506   4.010  20.776  0.00  0.00    +0.000 C 
ATOM      2  C   UNL     1       2.540   3.632  21.804  0.00  0.00    +0.000 C 
ATOM      3  C   UNL     1       1.437   5.252  20.252  0.00  0.00    +0.000 C 
ENDROOT
BRANCH   1   4
ATOM      4  C   UNL     1       0.587   2.897  20.292  0.00  0.00    +0.000 C 
BRANCH   4   5
ATOM      5  C   UNL     1       0.926   2.413  18.880  0.00  0.00    +0.000 C 
BRANCH   5   8
ATOM      6  C   UNL     1       2.506   3.813  17.520  0.00  0.00    +0.000 C 
ATOM      7  C   UNL     1       1.317   4.584  16.989  0.00  0.00    +0.000 C 
ATOM      8  C   UNL     1       2.303   2.807  18.400  0.00  0.00    +0.000 C 
BRANCH   6   9
ATOM      9  C   UNL     1       3.923   4.167  17.078  0.00  0.00    +0.000 C 
BRANCH   9  10
ATOM     10  C   UNL     1       4.862   4.534  18.231  0.00  0.00    +0.000 C 
BRANCH  10  13
ATOM     11  C   UNL     1       7.021   5.699  17.776  0.00  0.00    +0.000 C 
ATOM     12  C   UNL     1       7.694   4.357  17.607  0.00  0.00    +0.000 C 
ATOM     13  C   UNL     1       5.702   5.770  18.065  0.00  0.00    +0.000 C 
BRANCH  11  14
ATOM     14  C   UNL     1       7.855   6.959  17.642  0.00  0.00    +0.000 C 
BRANCH  14  15
ATOM     15  C   UNL     1       7.078   8.274  17.799  0.00  0.00    +0.000 C 
BRANCH  15  18
ATOM     16  C   UNL     1       9.710  10.971  18.767  0.00  0.00    +0.000 C 
ATOM     17  C   UNL     1       8.864   9.738  18.753  0.00  0.00    +0.000 C 
ATOM     18  C   UNL     1       7.984   9.471  17.781  0.00  0.00    +0.000 C 
ENDBRANCH  15  18
ENDBRANCH  14  15
ENDBRANCH  11  14
ENDBRANCH  10  13
ENDBRANCH   9  10
ENDBRANCH   6   9
ENDBRANCH   5   8
ENDBRANCH   4   5
ENDBRANCH   1   4
BRANCH   3  19
ATOM     19  C   UNL     1       2.406   6.384  20.505  0.00  0.00    +0.000 C 
BRANCH  19  20
ATOM     20  C   UNL     1       1.922   7.734  20.022  0.00  0.00    +0.000 C 
ATOM     21  C   UNL     1       2.168   8.264  18.806  0.00  0.00    +0.000 C 
ATOM     22  C   UNL     1       3.023   7.654  17.729  0.00  0.00    +0.000 C 
ATOM     23  C   UNL     1       1.562   9.565  18.393  0.00  0.00    +0.000 C 
ATOM     24  O   UNL     1       1.787  10.051  17.290  0.00  0.00    +0.000 OA
ATOM     25  C   UNL     1       0.666  10.255  19.332  0.00  0.00    +0.000 A 
ATOM     26  C   UNL     1       0.063  11.461  18.951  0.00  0.00    +0.000 A 
ATOM     27  C   UNL     1      -0.786  12.129  19.835  0.00  0.00    +0.000 A 
ATOM     28  C   UNL     1      -1.036  11.593  21.097  0.00  0.00    +0.000 A 
ATOM     29  C   UNL     1      -0.440  10.388  21.473  0.00  0.00    +0.000 A 
ATOM     30  C   UNL     1       0.415   9.717  20.586  0.00  0.00    +0.000 A 
ATOM     31  C   UNL     1       1.029   8.442  20.990  0.00  0.00    +0.000 C 
ATOM     32  O   UNL     1       0.787   7.977  22.099  0.00  0.00    +0.000 OA
ENDBRANCH  19  20
ENDBRANCH   3  19
TORSDOF 11
ENDMDL
MODEL 5
REMARK VINA RESULT:      -7.9      2.805      5.464
REMARK  Name = 
REMARK  16 active torsions:
REMARK  status: ('A' for Active; 'I' for Inactive)
REMARK    1  A    between atoms: C_1  and  C_2
REMARK    2  A    between atoms: C_3  and  C_4
REMARK    3  A    between atoms: C_4  and  C_5
REMARK    4  A    between atoms: C_5  and  C_6
REMARK    5  A    between atoms: C_6  and  C_7
REMARK    6  A    between atoms: C_8  and  C_9
REMARK    7  A    between atoms: C_9  and  C_10
REMARK    8  A    between atoms: C_10  and  C_11
REMARK    9  A    between atoms: C_11  and  C_12
REMARK   10  A    between atoms: C_13  and  C_14
REMARK   11  A    between atoms: C_14  and  C_15
REMARK   12  A    between atoms: C_15  and  C_16
REMARK   13  A    between atoms: C_16  and  C_17
REMARK   14  A    between atoms: C_18  and  C_19
REMARK   15  A    between atoms: C_19  and  C_20
REMARK   16  A    between atoms: C_21  and  C_22
REMARK                            x       y       z     vdW  Elec       q    Type
REMARK                         _______ _______ _______ _____ _____    ______ ____
ROOT
ATOM      1  C   UNL     1       0.808   9.457  20.319  0.00  0.00    +0.000 C 
ATOM      2  C   UNL     1       0.963   9.744  18.849  0.00  0.00    +0.000 C 
ATOM      3  C   UNL     1       0.496  10.423  21.209  0.00  0.00    +0.000 C 
ENDROOT
BRANCH   1   4
ATOM      4  C   UNL     1       0.943   8.002  20.747  0.00  0.00    +0.000 C 
BRANCH   4   5
ATOM      5  C   UNL     1       2.330   7.421  20.460  0.00  0.00    +0.000 C 
BRANCH   5   8
ATOM      6  C   UNL     1       2.216   5.326  19.082  0.00  0.00    +0.000 C 
ATOM      7  C   UNL     1       1.860   4.557  20.336  0.00  0.00    +0.000 C 
ATOM      8  C   UNL     1       2.430   6.659  19.161  0.00  0.00    +0.000 C 
BRANCH   6   9
ATOM      9  C   UNL     1       2.325   4.612  17.737  0.00  0.00    +0.000 C 
BRANCH   9  10
ATOM     10  C   UNL     1       3.495   3.628  17.648  0.00  0.00    +0.000 C 
BRANCH  10  13
ATOM     11  C   UNL     1       5.636   4.494  16.704  0.00  0.00    +0.000 C 
ATOM     12  C   UNL     1       5.099   4.267  15.311  0.00  0.00    +0.000 C 
ATOM     13  C   UNL     1       4.881   4.195  17.786  0.00  0.00    +0.000 C 
BRANCH  11  14
ATOM     14  C   UNL     1       7.044   5.038  16.868  0.00  0.00    +0.000 C 
BRANCH  14  15
ATOM     15  C   UNL     1       7.507   5.219  18.320  0.00  0.00    +0.000 C 
BRANCH  15  18
ATOM     16  C   UNL     1       8.231   9.029  18.017  0.00  0.00    +0.000 C 
ATOM     17  C   UNL     1       7.834   7.620  17.713  0.00  0.00    +0.000 C 
ATOM     18  C   UNL     1       7.830   6.650  18.635  0.00  0.00    +0.000 C 
ENDBRANCH  15  18
ENDBRANCH  14  15
ENDBRANCH  11  14
ENDBRANCH  10  13
ENDBRANCH   9  10
ENDBRANCH   6   9
ENDBRANCH   5   8
ENDBRANCH   4   5
ENDBRANCH   1   4
BRANCH   3  19
ATOM     19  C   UNL     1       0.150  11.858  20.886  0.00  0.00    +0.000 C 
BRANCH  19  20
ATOM     20  C   UNL     1      -1.323  12.183  21.009  0.00  0.00    +0.000 C 
ATOM     21  C   UNL     1      -2.202  12.228  19.987  0.00  0.00    +0.000 C 
ATOM     22  C   UNL     1      -1.879  12.036  18.530  0.00  0.00    +0.000 C 
ATOM     23  C   UNL     1      -3.657  12.465  20.229  0.00  0.00    +0.000 C 
ATOM     24  O   UNL     1      -4.458  12.510  19.301  0.00  0.00    +0.000 OA
ATOM     25  C   UNL     1      -4.124  12.627  21.612  0.00  0.00    +0.000 A 
ATOM     26  C   UNL     1      -5.490  12.819  21.862  0.00  0.00    +0.000 A 
ATOM     27  C   UNL     1      -5.947  12.979  23.171  0.00  0.00    +0.000 A 
ATOM     28  C   UNL     1      -5.043  12.944  24.231  0.00  0.00    +0.000 A 
ATOM     29  C   UNL     1      -3.684  12.747  23.982  0.00  0.00    +0.000 A 
ATOM     30  C   UNL     1      -3.224  12.588  22.667  0.00  0.00    +0.000 A 
ATOM     31  C   UNL     1      -1.790  12.369  22.418  0.00  0.00    +0.000 C 
ATOM     32  O   UNL     1      -1.009  12.327  23.363  0.00  0.00    +0.000 OA
ENDBRANCH  19  20
ENDBRANCH   3  19
TORSDOF 11
ENDMDL
MODEL 6
REMARK VINA RESULT:      -7.9      2.409      4.778
REMARK  Name = 
REMARK  16 active torsions:
REMARK  status: ('A' for Active; 'I' for Inactive)
REMARK    1  A    between atoms: C_1  and  C_2
REMARK    2  A    between atoms: C_3  and  C_4
REMARK    3  A    between atoms: C_4  and  C_5
REMARK    4  A    between atoms: C_5  and  C_6
REMARK    5  A    between atoms: C_6  and  C_7
REMARK    6  A    between atoms: C_8  and  C_9
REMARK    7  A    between atoms: C_9  and  C_10
REMARK    8  A    between atoms: C_10  and  C_11
REMARK    9  A    between atoms: C_11  and  C_12
REMARK   10  A    between atoms: C_13  and  C_14
REMARK   11  A    between atoms: C_14  and  C_15
REMARK   12  A    between atoms: C_15  and  C_16
REMARK   13  A    between atoms: C_16  and  C_17
REMARK   14  A    between atoms: C_18  and  C_19
REMARK   15  A    between atoms: C_19  and  C_20
REMARK   16  A    between atoms: C_21  and  C_22
REMARK                            x       y       z     vdW  Elec       q    Type
REMARK                         _______ _______ _______ _____ _____    ______ ____
ROOT
ATOM      1  C   UNL     1       1.639   8.576  19.224  0.00  0.00    +0.000 C 
ATOM      2  C   UNL     1       1.733   8.906  17.757  0.00  0.00    +0.000 C 
ATOM      3  C   UNL     1       0.862   9.286  20.069  0.00  0.00    +0.000 C 
ENDROOT
BRANCH   1   4
ATOM      4  C   UNL     1       2.403   7.347  19.696  0.00  0.00    +0.000 C 
BRANCH   4   5
ATOM      5  C   UNL     1       1.531   6.369  20.488  0.00  0.00    +0.000 C 
BRANCH   5   8
ATOM      6  C   UNL     1       1.917   3.906  20.782  0.00  0.00    +0.000 C 
ATOM      7  C   UNL     1       0.726   3.643  19.887  0.00  0.00    +0.000 C 
ATOM      8  C   UNL     1       2.276   5.182  21.049  0.00  0.00    +0.000 C 
BRANCH   6   9
ATOM      9  C   UNL     1       2.715   2.748  21.375  0.00  0.00    +0.000 C 
BRANCH   9  10
ATOM     10  C   UNL     1       3.911   2.315  20.522  0.00  0.00    +0.000 C 
BRANCH  10  13
ATOM     11  C   UNL     1       3.990   3.030  18.132  0.00  0.00    +0.000 C 
ATOM     12  C   UNL     1       3.143   1.836  17.760  0.00  0.00    +0.000 C 
ATOM     13  C   UNL     1       4.341   3.245  19.421  0.00  0.00    +0.000 C 
BRANCH  11  14
ATOM     14  C   UNL     1       4.461   3.966  17.034  0.00  0.00    +0.000 C 
BRANCH  14  15
ATOM     15  C   UNL     1       4.124   5.448  17.253  0.00  0.00    +0.000 C 
BRANCH  15  18
ATOM     16  C   UNL     1       7.492   7.369  17.572  0.00  0.00    +0.000 C 
ATOM     17  C   UNL     1       6.292   6.669  17.020  0.00  0.00    +0.000 C 
ATOM     18  C   UNL     1       5.294   6.218  17.791  0.00  0.00    +0.000 C 
ENDBRANCH  15  18
ENDBRANCH  14  15
ENDBRANCH  11  14
ENDBRANCH  10  13
ENDBRANCH   9  10
ENDBRANCH   6   9
ENDBRANCH   5   8
ENDBRANCH   4   5
ENDBRANCH   1   4
BRANCH   3  19
ATOM     19  C   UNL     1      -0.086  10.400  19.690  0.00  0.00    +0.000 C 
BRANCH  19  20
ATOM     20  C   UNL     1       0.226  11.729  20.343  0.00  0.00    +0.000 C 
ATOM     21  C   UNL     1       1.106  12.641  19.880  0.00  0.00    +0.000 C 
ATOM     22  C   UNL     1       1.993  12.484  18.674  0.00  0.00    +0.000 C 
ATOM     23  C   UNL     1       1.269  13.966  20.548  0.00  0.00    +0.000 C 
ATOM     24  O   UNL     1       2.072  14.795  20.131  0.00  0.00    +0.000 OA
ATOM     25  C   UNL     1       0.433  14.275  21.716  0.00  0.00    +0.000 A 
ATOM     26  C   UNL     1       0.550  15.525  22.339  0.00  0.00    +0.000 A 
ATOM     27  C   UNL     1      -0.235  15.829  23.451  0.00  0.00    +0.000 A 
ATOM     28  C   UNL     1      -1.138  14.888  23.942  0.00  0.00    +0.000 A 
ATOM     29  C   UNL     1      -1.258  13.645  23.318  0.00  0.00    +0.000 A 
ATOM     30  C   UNL     1      -0.469  13.338  22.201  0.00  0.00    +0.000 A 
ATOM     31  C   UNL     1      -0.613  12.029  21.544  0.00  0.00    +0.000 C 
ATOM     32  O   UNL     1      -1.423  11.217  21.980  0.00  0.00    +0.000 OA
ENDBRANCH  19  20
ENDBRANCH   3  19
TORSDOF 11
ENDMDL
MODEL 7
REMARK VINA RESULT:      -7.8      1.955      4.058
REMARK  Name = 
REMARK  16 active torsions:
REMARK  status: ('A' for Active; 'I' for Inactive)
REMARK    1  A    between atoms: C_1  and  C_2
REMARK    2  A    between atoms: C_3  and  C_4
REMARK    3  A    between atoms: C_4  and  C_5
REMARK    4  A    between atoms: C_5  and  C_6
REMARK    5  A    between atoms: C_6  and  C_7
REMARK    6  A    between atoms: C_8  and  C_9
REMARK    7  A    between atoms: C_9  and  C_10
REMARK    8  A    between atoms: C_10  and  C_11
REMARK    9  A    between atoms: C_11  and  C_12
REMARK   10  A    between atoms: C_13  and  C_14
REMARK   11  A    between atoms: C_14  and  C_15
REMARK   12  A    between atoms: C_15  and  C_16
REMARK   13  A    between atoms: C_16  and  C_17
REMARK   14  A    between atoms: C_18  and  C_19
REMARK   15  A    between atoms: C_19  and  C_20
REMARK   16  A    between atoms: C_21  and  C_22
REMARK                            x       y       z     vdW  Elec       q    Type
REMARK                         _______ _______ _______ _____ _____    ______ ____
ROOT
ATOM      1  C   UNL     1       2.116   8.030  18.483  0.00  0.00    +0.000 C 
ATOM      2  C   UNL     1       3.175   8.409  17.480  0.00  0.00    +0.000 C 
ATOM      3  C   UNL     1       1.302   8.949  19.046  0.00  0.00    +0.000 C 
ENDROOT
BRANCH   1   4
ATOM      4  C   UNL     1       1.952   6.545  18.773  0.00  0.00    +0.000 C 
BRANCH   4   5
ATOM      5  C   UNL     1       1.818   6.240  20.267  0.00  0.00    +0.000 C 
BRANCH   5   8
ATOM      6  C   UNL     1       2.097   3.779  20.674  0.00  0.00    +0.000 C 
ATOM      7  C   UNL     1       0.703   3.561  20.128  0.00  0.00    +0.000 C 
ATOM      8  C   UNL     1       2.598   5.033  20.730  0.00  0.00    +0.000 C 
BRANCH   6   9
ATOM      9  C   UNL     1       2.938   2.598  21.152  0.00  0.00    +0.000 C 
BRANCH   9  10
ATOM     10  C   UNL     1       4.076   2.218  20.200  0.00  0.00    +0.000 C 
BRANCH  10  13
ATOM     11  C   UNL     1       4.069   3.295  17.949  0.00  0.00    +0.000 C 
ATOM     12  C   UNL     1       3.072   2.264  17.473  0.00  0.00    +0.000 C 
ATOM     13  C   UNL     1       4.529   3.266  19.220  0.00  0.00    +0.000 C 
BRANCH  11  14
ATOM     14  C   UNL     1       4.563   4.343  16.969  0.00  0.00    +0.000 C 
BRANCH  14  15
ATOM     15  C   UNL     1       6.067   4.292  16.664  0.00  0.00    +0.000 C 
BRANCH  15  18
ATOM     16  C   UNL     1       5.850   3.637  12.835  0.00  0.00    +0.000 C 
ATOM     17  C   UNL     1       5.618   4.181  14.208  0.00  0.00    +0.000 C 
ATOM     18  C   UNL     1       6.344   3.809  15.270  0.00  0.00    +0.000 C 
ENDBRANCH  15  18
ENDBRANCH  14  15
ENDBRANCH  11  14
ENDBRANCH  10  13
ENDBRANCH   9  10
ENDBRANCH   6   9
ENDBRANCH   5   8
ENDBRANCH   4   5
ENDBRANCH   1   4
BRANCH   3  19
ATOM     19  C   UNL     1       1.236  10.418  18.699  0.00  0.00    +0.000 C 
BRANCH  19  20
ATOM     20  C   UNL     1       0.029  11.134  19.264  0.00  0.00    +0.000 C 
ATOM     21  C   UNL     1      -1.210  11.120  18.730  0.00  0.00    +0.000 C 
ATOM     22  C   UNL     1      -1.613  10.456  17.441  0.00  0.00    +0.000 C 
ATOM     23  C   UNL     1      -2.357  11.783  19.420  0.00  0.00    +0.000 C 
ATOM     24  O   UNL     1      -3.484  11.775  18.934  0.00  0.00    +0.000 OA
ATOM     25  C   UNL     1      -2.119  12.437  20.714  0.00  0.00    +0.000 A 
ATOM     26  C   UNL     1      -3.188  13.038  21.392  0.00  0.00    +0.000 A 
ATOM     27  C   UNL     1      -2.975  13.666  22.619  0.00  0.00    +0.000 A 
ATOM     28  C   UNL     1      -1.696  13.694  23.172  0.00  0.00    +0.000 A 
ATOM     29  C   UNL     1      -0.632  13.090  22.499  0.00  0.00    +0.000 A 
ATOM     30  C   UNL     1      -0.846  12.460  21.265  0.00  0.00    +0.000 A 
ATOM     31  C   UNL     1       0.282  11.817  20.571  0.00  0.00    +0.000 C 
ATOM     32  O   UNL     1       1.399  11.838  21.077  0.00  0.00    +0.000 OA
ENDBRANCH  19  20
ENDBRANCH   3  19
TORSDOF 11
ENDMDL
MODEL 8
REMARK VINA RESULT:      -7.7      2.173      4.379
REMARK  Name = 
REMARK  16 active torsions:
REMARK  status: ('A' for Active; 'I' for Inactive)
REMARK    1  A    between atoms: C_1  and  C_2
REMARK    2  A    between atoms: C_3  and  C_4
REMARK    3  A    between atoms: C_4  and  C_5
REMARK    4  A    between atoms: C_5  and  C_6
REMARK    5  A    between atoms: C_6  and  C_7
REMARK    6  A    between atoms: C_8  and  C_9
REMARK    7  A    between atoms: C_9  and  C_10
REMARK    8  A    between atoms: C_10  and  C_11
REMARK    9  A    between atoms: C_11  and  C_12
REMARK   10  A    between atoms: C_13  and  C_14
REMARK   11  A    between atoms: C_14  and  C_15
REMARK   12  A    between atoms: C_15  and  C_16
REMARK   13  A    between atoms: C_16  and  C_17
REMARK   14  A    between atoms: C_18  and  C_19
REMARK   15  A    between atoms: C_19  and  C_20
REMARK   16  A    between atoms: C_21  and  C_22
REMARK                            x       y       z     vdW  Elec       q    Type
REMARK                         _______ _______ _______ _____ _____    ______ ____
ROOT
ATOM      1  C   UNL     1       1.094   9.334  19.091  0.00  0.00    +0.000 C 
ATOM      2  C   UNL     1       1.109   8.767  20.486  0.00  0.00    +0.000 C 
ATOM      3  C   UNL     1       0.080  10.105  18.642  0.00  0.00    +0.000 C 
ENDROOT
BRANCH   1   4
ATOM      4  C   UNL     1       2.320   9.061  18.231  0.00  0.00    +0.000 C 
BRANCH   4   5
ATOM      5  C   UNL     1       2.373   7.623  17.707  0.00  0.00    +0.000 C 
BRANCH   5   8
ATOM      6  C   UNL     1       3.193   5.389  18.506  0.00  0.00    +0.000 C 
ATOM      7  C   UNL     1       2.002   4.744  17.830  0.00  0.00    +0.000 C 
ATOM      8  C   UNL     1       3.348   6.730  18.437  0.00  0.00    +0.000 C 
BRANCH   6   9
ATOM      9  C   UNL     1       4.216   4.538  19.254  0.00  0.00    +0.000 C 
BRANCH   9  10
ATOM     10  C   UNL     1       5.662   4.762  18.801  0.00  0.00    +0.000 C 
BRANCH  10  13
ATOM     11  C   UNL     1       6.629   5.485  16.617  0.00  0.00    +0.000 C 
ATOM     12  C   UNL     1       7.095   6.769  17.263  0.00  0.00    +0.000 C 
ATOM     13  C   UNL     1       5.964   4.557  17.342  0.00  0.00    +0.000 C 
BRANCH  11  14
ATOM     14  C   UNL     1       6.896   5.268  15.139  0.00  0.00    +0.000 C 
BRANCH  14  15
ATOM     15  C   UNL     1       6.480   3.893  14.596  0.00  0.00    +0.000 C 
BRANCH  15  18
ATOM     16  C   UNL     1       4.375   3.342  11.371  0.00  0.00    +0.000 C 
ATOM     17  C   UNL     1       5.374   3.182  12.472  0.00  0.00    +0.000 C 
ATOM     18  C   UNL     1       5.432   4.002  13.528  0.00  0.00    +0.000 C 
ENDBRANCH  15  18
ENDBRANCH  14  15
ENDBRANCH  11  14
ENDBRANCH  10  13
ENDBRANCH   9  10
ENDBRANCH   6   9
ENDBRANCH   5   8
ENDBRANCH   4   5
ENDBRANCH   1   4
BRANCH   3  19
ATOM     19  C   UNL     1      -1.092  10.603  19.455  0.00  0.00    +0.000 C 
BRANCH  19  20
ATOM     20  C   UNL     1      -0.852  11.933  20.136  0.00  0.00    +0.000 C 
ATOM     21  C   UNL     1      -0.696  12.115  21.464  0.00  0.00    +0.000 C 
ATOM     22  C   UNL     1      -0.800  11.052  22.523  0.00  0.00    +0.000 C 
ATOM     23  C   UNL     1      -0.367  13.460  22.026  0.00  0.00    +0.000 C 
ATOM     24  O   UNL     1      -0.228  13.629  23.233  0.00  0.00    +0.000 OA
ATOM     25  C   UNL     1      -0.192  14.587  21.101  0.00  0.00    +0.000 A 
ATOM     26  C   UNL     1       0.147  15.850  21.607  0.00  0.00    +0.000 A 
ATOM     27  C   UNL     1       0.311  16.930  20.739  0.00  0.00    +0.000 A 
ATOM     28  C   UNL     1       0.141  16.752  19.367  0.00  0.00    +0.000 A 
ATOM     29  C   UNL     1      -0.191  15.493  18.864  0.00  0.00    +0.000 A 
ATOM     30  C   UNL     1      -0.358  14.407  19.735  0.00  0.00    +0.000 A 
ATOM     31  C   UNL     1      -0.696  13.082  19.191  0.00  0.00    +0.000 C 
ATOM     32  O   UNL     1      -0.829  12.939  17.980  0.00  0.00    +0.000 OA
ENDBRANCH  19  20
ENDBRANCH   3  19
TORSDOF 11
ENDMDL
MODEL 9
REMARK VINA RESULT:      -7.7      5.516      9.273
REMARK  Name = 
REMARK  16 active torsions:
REMARK  status: ('A' for Active; 'I' for Inactive)
REMARK    1  A    between atoms: C_1  and  C_2
REMARK    2  A    between atoms: C_3  and  C_4
REMARK    3  A    between atoms: C_4  and  C_5
REMARK    4  A    between atoms: C_5  and  C_6
REMARK    5  A    between atoms: C_6  and  C_7
REMARK    6  A    between atoms: C_8  and  C_9
REMARK    7  A    between atoms: C_9  and  C_10
REMARK    8  A    between atoms: C_10  and  C_11
REMARK    9  A    between atoms: C_11  and  C_12
REMARK   10  A    between atoms: C_13  and  C_14
REMARK   11  A    between atoms: C_14  and  C_15
REMARK   12  A    between atoms: C_15  and  C_16
REMARK   13  A    between atoms: C_16  and  C_17
REMARK   14  A    between atoms: C_18  and  C_19
REMARK   15  A    between atoms: C_19  and  C_20
REMARK   16  A    between atoms: C_21  and  C_22
REMARK                            x       y       z     vdW  Elec       q    Type
REMARK                         _______ _______ _______ _____ _____    ______ ____
ROOT
ATOM      1  C   UNL     1       7.630   7.074  18.185  0.00  0.00    +0.000 C 
ATOM      2  C   UNL     1       7.875   5.689  18.724  0.00  0.00    +0.000 C 
ATOM      3  C   UNL     1       6.623   7.340  17.326  0.00  0.00    +0.000 C 
ENDROOT
BRANCH   1   4
ATOM      4  C   UNL     1       8.527   8.182  18.720  0.00  0.00    +0.000 C 
BRANCH   4   5
ATOM      5  C   UNL     1       8.388   9.491  17.939  0.00  0.00    +0.000 C 
BRANCH   5   8
ATOM      6  C   UNL     1       9.473  11.755  17.925  0.00  0.00    +0.000 C 
ATOM      7  C   UNL     1       8.115  12.370  17.661  0.00  0.00    +0.000 C 
ATOM      8  C   UNL     1       9.578  10.413  18.052  0.00  0.00    +0.000 C 
BRANCH   6   9
ATOM      9  C   UNL     1      10.713  12.636  18.056  0.00  0.00    +0.000 C 
BRANCH   9  10
ATOM     10  C   UNL     1      11.315  12.657  19.464  0.00  0.00    +0.000 C 
BRANCH  10  13
ATOM     11  C   UNL     1       9.810  12.870  21.443  0.00  0.00    +0.000 C 
ATOM     12  C   UNL     1       9.876  14.374  21.315  0.00  0.00    +0.000 C 
ATOM     13  C   UNL     1      10.482  12.080  20.575  0.00  0.00    +0.000 C 
BRANCH  11  14
ATOM     14  C   UNL     1       9.000  12.266  22.575  0.00  0.00    +0.000 C 
BRANCH  14  15
ATOM     15  C   UNL     1       8.481  13.270  23.613  0.00  0.00    +0.000 C 
BRANCH  15  18
ATOM     16  C   UNL     1       6.927  11.680  26.806  0.00  0.00    +0.000 C 
ATOM     17  C   UNL     1       7.113  12.234  25.430  0.00  0.00    +0.000 C 
ATOM     18  C   UNL     1       8.300  12.643  24.964  0.00  0.00    +0.000 C 
ENDBRANCH  15  18
ENDBRANCH  14  15
ENDBRANCH  11  14
ENDBRANCH  10  13
ENDBRANCH   9  10
ENDBRANCH   6   9
ENDBRANCH   5   8
ENDBRANCH   4   5
ENDBRANCH   1   4
BRANCH   3  19
ATOM     19  C   UNL     1       5.555   6.373  16.873  0.00  0.00    +0.000 C 
BRANCH  19  20
ATOM     20  C   UNL     1       4.505   6.074  17.920  0.00  0.00    +0.000 C 
ATOM     21  C   UNL     1       3.492   6.895  18.269  0.00  0.00    +0.000 C 
ATOM     22  C   UNL     1       3.254   8.283  17.741  0.00  0.00    +0.000 C 
ATOM     23  C   UNL     1       2.450   6.464  19.249  0.00  0.00    +0.000 C 
ATOM     24  O   UNL     1       1.531   7.209  19.570  0.00  0.00    +0.000 OA
ATOM     25  C   UNL     1       2.532   5.111  19.815  0.00  0.00    +0.000 A 
ATOM     26  C   UNL     1       1.547   4.677  20.713  0.00  0.00    +0.000 A 
ATOM     27  C   UNL     1       1.616   3.396  21.262  0.00  0.00    +0.000 A 
ATOM     28  C   UNL     1       2.665   2.546  20.915  0.00  0.00    +0.000 A 
ATOM     29  C   UNL     1       3.643   2.977  20.016  0.00  0.00    +0.000 A 
ATOM     30  C   UNL     1       3.575   4.265  19.465  0.00  0.00    +0.000 A 
ATOM     31  C   UNL     1       4.606   4.704  18.510  0.00  0.00    +0.000 C 
ATOM     32  O   UNL     1       5.515   3.939  18.204  0.00  0.00    +0.000 OA
ENDBRANCH  19  20
ENDBRANCH   3  19
TORSDOF 11
ENDMDL
