MODEL 1
REMARK VINA RESULT:      -8.1      0.000      0.000
REMARK  Name = 
REMARK  2 active torsions:
REMARK  status: ('A' for Active; 'I' for Inactive)
REMARK    1  A    between atoms: C_2  and  C_3
REMARK    2  A    between atoms: C_3  and  O_4
REMARK                            x       y       z     vdW  Elec       q    Type
REMARK                         _______ _______ _______ _____ _____    ______ ____
ROOT
ATOM      1  O   UNL     1       7.602   4.180  18.092  0.00  0.00    +0.000 OA
ATOM      2  C   UNL     1       6.747   5.009  17.747  0.00  0.00    +0.000 C 
ATOM      3  N   UNL     1       5.417   4.927  18.138  0.00  0.00    +0.000 N 
ATOM      4  C   UNL     1       5.025   3.841  19.039  0.00  0.00    +0.000 C 
ATOM      5  C   UNL     1       4.074   4.410  20.052  0.00  0.00    +0.000 C 
ATOM      6  C   UNL     1       3.201   5.370  19.714  0.00  0.00    +0.000 C 
ATOM      7  N   UNL     1       2.470   6.193  20.547  0.00  0.00    +0.000 N 
ATOM      8  C   UNL     1       2.167   7.386  19.853  0.00  0.00    +0.000 A 
ATOM      9  C   UNL     1       2.549   7.273  18.490  0.00  0.00    +0.000 A 
ATOM     10  C   UNL     1       2.270   8.285  17.584  0.00  0.00    +0.000 A 
ATOM     11  C   UNL     1       1.514   9.373  18.035  0.00  0.00    +0.000 A 
ATOM     12  C   UNL     1       1.077   9.458  19.375  0.00  0.00    +0.000 A 
ATOM     13 CL   UNL     1       0.036  10.778  19.787  0.00  0.00    +0.000 Cl
ATOM     14  C   UNL     1       1.429   8.471  20.306  0.00  0.00    +0.000 A 
ATOM     15 CL   UNL     1       0.929   8.527  21.959  0.00  0.00    +0.000 Cl
ATOM     16  C   UNL     1       3.050   5.857  18.255  0.00  0.00    +0.000 C 
ATOM     17 CL   UNL     1       1.648   4.960  17.515  0.00  0.00    +0.000 Cl
ATOM     18  C   UNL     1       4.315   5.592  17.408  0.00  0.00    +0.000 C 
ATOM     19  H   UNL     1       2.669   6.236  21.541  0.00  0.00    +0.000 HD
ENDROOT
BRANCH   2  20
ATOM     20  C   UNL     1       7.163   6.262  16.969  0.00  0.00    +0.000 C 
BRANCH  20  21
ATOM     21  O   UNL     1       7.444   6.014  15.601  0.00  0.00    +0.000 OA
ATOM     22  H   UNL     1       6.944   6.684  15.096  0.00  0.00    +0.000 HD
ENDBRANCH  20  21
ENDBRANCH   2  20
TORSDOF 2
ENDMDL
MODEL 2
REMARK VINA RESULT:      -6.4      3.006      4.606
REMARK  Name = 
REMARK  2 active torsions:
REMARK  status: ('A' for Active; 'I' for Inactive)
REMARK    1  A    between atoms: C_2  and  C_3
REMARK    2  A    between atoms: C_3  and  O_4
REMARK                            x       y       z     vdW  Elec       q    Type
REMARK                         _______ _______ _______ _____ _____    ______ ____
ROOT
ATOM      1  O   UNL     1       6.835   5.661  13.709  0.00  0.00    +0.000 OA
ATOM      2  C   UNL     1       6.557   4.898  14.647  0.00  0.00    +0.000 C 
ATOM      3  N   UNL     1       6.383   5.339  15.951  0.00  0.00    +0.000 N 
ATOM      4  C   UNL     1       6.480   6.777  16.216  0.00  0.00    +0.000 C 
ATOM      5  C   UNL     1       5.393   7.137  17.185  0.00  0.00    +0.000 C 
ATOM      6  C   UNL     1       5.021   6.285  18.152  0.00  0.00    +0.000 C 
ATOM      7  N   UNL     1       3.882   6.318  18.931  0.00  0.00    +0.000 N 
ATOM      8  C   UNL     1       3.589   5.006  19.362  0.00  0.00    +0.000 A 
ATOM      9  C   UNL     1       4.645   4.125  19.011  0.00  0.00    +0.000 A 
ATOM     10  C   UNL     1       4.629   2.796  19.408  0.00  0.00    +0.000 A 
ATOM     11  C   UNL     1       3.590   2.379  20.247  0.00  0.00    +0.000 A 
ATOM     12  C   UNL     1       2.571   3.269  20.650  0.00  0.00    +0.000 A 
ATOM     13 CL   UNL     1       1.414   2.682  21.796  0.00  0.00    +0.000 Cl
ATOM     14  C   UNL     1       2.549   4.590  20.183  0.00  0.00    +0.000 A 
ATOM     15 CL   UNL     1       1.324   5.721  20.638  0.00  0.00    +0.000 Cl
ATOM     16  C   UNL     1       5.761   4.949  18.389  0.00  0.00    +0.000 C 
ATOM     17 CL   UNL     1       6.971   5.216  19.723  0.00  0.00    +0.000 Cl
ATOM     18  C   UNL     1       6.508   4.454  17.130  0.00  0.00    +0.000 C 
ATOM     19  H   UNL     1       3.118   6.948  18.709  0.00  0.00    +0.000 HD
ENDROOT
BRANCH   2  20
ATOM     20  C   UNL     1       6.254   3.421  14.369  0.00  0.00    +0.000 C 
BRANCH  20  21
ATOM     21  O   UNL     1       6.237   3.095  12.990  0.00  0.00    +0.000 OA
ATOM     22  H   UNL     1       5.933   3.899  12.524  0.00  0.00    +0.000 HD
ENDBRANCH  20  21
ENDBRANCH   2  20
TORSDOF 2
ENDMDL
MODEL 3
REMARK VINA RESULT:      -6.1      5.549      7.766
REMARK  Name = 
REMARK  2 active torsions:
REMARK  status: ('A' for Active; 'I' for Inactive)
REMARK    1  A    between atoms: C_2  and  C_3
REMARK    2  A    between atoms: C_3  and  O_4
REMARK                            x       y       z     vdW  Elec       q    Type
REMARK                         _______ _______ _______ _____ _____    ______ ____
ROOT
ATOM      1  O   UNL     1       1.610   8.315  21.709  0.00  0.00    +0.000 OA
ATOM      2  C   UNL     1       0.655   9.102  21.624  0.00  0.00    +0.000 C 
ATOM      3  N   UNL     1       0.431   9.896  20.507  0.00  0.00    +0.000 N 
ATOM      4  C   UNL     1       1.333   9.753  19.362  0.00  0.00    +0.000 C 
ATOM      5  C   UNL     1       0.498   9.795  18.116  0.00  0.00    +0.000 C 
ATOM      6  C   UNL     1      -0.588  10.578  18.040  0.00  0.00    +0.000 C 
ATOM      7  N   UNL     1      -1.611  10.534  17.113  0.00  0.00    +0.000 N 
ATOM      8  C   UNL     1      -2.777  11.073  17.700  0.00  0.00    +0.000 A 
ATOM      9  C   UNL     1      -2.474  11.641  18.966  0.00  0.00    +0.000 A 
ATOM     10  C   UNL     1      -3.441  12.314  19.697  0.00  0.00    +0.000 A 
ATOM     11  C   UNL     1      -4.695  12.500  19.104  0.00  0.00    +0.000 A 
ATOM     12  C   UNL     1      -4.980  11.991  17.819  0.00  0.00    +0.000 A 
ATOM     13 CL   UNL     1      -6.515  12.397  17.129  0.00  0.00    +0.000 Cl
ATOM     14  C   UNL     1      -4.025  11.244  17.116  0.00  0.00    +0.000 A 
ATOM     15 CL   UNL     1      -4.321  10.593  15.543  0.00  0.00    +0.000 Cl
ATOM     16  C   UNL     1      -0.970  11.553  19.176  0.00  0.00    +0.000 C 
ATOM     17 CL   UNL     1      -0.319  13.196  18.736  0.00  0.00    +0.000 Cl
ATOM     18  C   UNL     1      -0.382  11.132  20.541  0.00  0.00    +0.000 C 
ATOM     19  H   UNL     1      -1.696   9.755  16.469  0.00  0.00    +0.000 HD
ENDROOT
BRANCH   2  20
ATOM     20  C   UNL     1      -0.416   9.131  22.720  0.00  0.00    +0.000 C 
BRANCH  20  21
ATOM     21  O   UNL     1       0.047   9.659  23.952  0.00  0.00    +0.000 OA
ATOM     22  H   UNL     1       0.226   8.889  24.526  0.00  0.00    +0.000 HD
ENDBRANCH  20  21
ENDBRANCH   2  20
TORSDOF 2
ENDMDL
MODEL 4
REMARK VINA RESULT:      -5.8      6.032      8.485
REMARK  Name = 
REMARK  2 active torsions:
REMARK  status: ('A' for Active; 'I' for Inactive)
REMARK    1  A    between atoms: C_2  and  C_3
REMARK    2  A    between atoms: C_3  and  O_4
REMARK                            x       y       z     vdW  Elec       q    Type
REMARK                         _______ _______ _______ _____ _____    ______ ____
ROOT
ATOM      1  O   UNL     1       1.086   8.336  21.044  0.00  0.00    +0.000 OA
ATOM      2  C   UNL     1       0.272   9.222  21.348  0.00  0.00    +0.000 C 
ATOM      3  N   UNL     1      -0.182  10.169  20.441  0.00  0.00    +0.000 N 
ATOM      4  C   UNL     1       0.282  10.081  19.054  0.00  0.00    +0.000 C 
ATOM      5  C   UNL     1      -0.891  10.367  18.162  0.00  0.00    +0.000 C 
ATOM      6  C   UNL     1      -1.826  11.261  18.517  0.00  0.00    +0.000 C 
ATOM      7  N   UNL     1      -3.085  11.440  17.980  0.00  0.00    +0.000 N 
ATOM      8  C   UNL     1      -3.918  12.017  18.964  0.00  0.00    +0.000 A 
ATOM      9  C   UNL     1      -3.155  12.385  20.103  0.00  0.00    +0.000 A 
ATOM     10  C   UNL     1      -3.737  13.055  21.168  0.00  0.00    +0.000 A 
ATOM     11  C   UNL     1      -5.076  13.442  21.041  0.00  0.00    +0.000 A 
ATOM     12  C   UNL     1      -5.821  13.133  19.882  0.00  0.00    +0.000 A 
ATOM     13 CL   UNL     1      -7.424  13.779  19.776  0.00  0.00    +0.000 Cl
ATOM     14  C   UNL     1      -5.251  12.388  18.841  0.00  0.00    +0.000 A 
ATOM     15 CL   UNL     1      -6.117  11.975  17.405  0.00  0.00    +0.000 Cl
ATOM     16  C   UNL     1      -1.690  12.117  19.796  0.00  0.00    +0.000 C 
ATOM     17 CL   UNL     1      -0.991  13.728  19.310  0.00  0.00    +0.000 Cl
ATOM     18  C   UNL     1      -0.763  11.468  20.848  0.00  0.00    +0.000 C 
ATOM     19  H   UNL     1      -3.477  10.762  17.335  0.00  0.00    +0.000 HD
ENDROOT
BRANCH   2  20
ATOM     20  C   UNL     1      -0.381   9.220  22.734  0.00  0.00    +0.000 C 
BRANCH  20  21
ATOM     21  O   UNL     1       0.452   9.743  23.755  0.00  0.00    +0.000 OA
ATOM     22  H   UNL     1       0.173   9.305  24.583  0.00  0.00    +0.000 HD
ENDBRANCH  20  21
ENDBRANCH   2  20
TORSDOF 2
ENDMDL
MODEL 5
REMARK VINA RESULT:      -5.7      2.843      4.416
REMARK  Name = 
REMARK  2 active torsions:
REMARK  status: ('A' for Active; 'I' for Inactive)
REMARK    1  A    between atoms: C_2  and  C_3
REMARK    2  A    between atoms: C_3  and  O_4
REMARK                            x       y       z     vdW  Elec       q    Type
REMARK                         _______ _______ _______ _____ _____    ______ ____
ROOT
ATOM      1  O   UNL     1       8.003   6.432  16.080  0.00  0.00    +0.000 OA
ATOM      2  C   UNL     1       7.228   6.427  17.049  0.00  0.00    +0.000 C 
ATOM      3  N   UNL     1       5.885   6.096  16.938  0.00  0.00    +0.000 N 
ATOM      4  C   UNL     1       5.378   5.683  15.627  0.00  0.00    +0.000 C 
ATOM      5  C   UNL     1       4.444   4.528  15.842  0.00  0.00    +0.000 C 
ATOM      6  C   UNL     1       3.663   4.467  16.930  0.00  0.00    +0.000 C 
ATOM      7  N   UNL     1       2.975   3.379  17.430  0.00  0.00    +0.000 N 
ATOM      8  C   UNL     1       2.791   3.558  18.819  0.00  0.00    +0.000 A 
ATOM      9  C   UNL     1       3.205   4.859  19.207  0.00  0.00    +0.000 A 
ATOM     10  C   UNL     1       3.038   5.303  20.510  0.00  0.00    +0.000 A 
ATOM     11  C   UNL     1       2.358   4.466  21.402  0.00  0.00    +0.000 A 
ATOM     12  C   UNL     1       1.888   3.196  21.001  0.00  0.00    +0.000 A 
ATOM     13 CL   UNL     1       0.944   2.304  22.146  0.00  0.00    +0.000 Cl
ATOM     14  C   UNL     1       2.129   2.719  19.706  0.00  0.00    +0.000 A 
ATOM     15 CL   UNL     1       1.583   1.172  19.163  0.00  0.00    +0.000 Cl
ATOM     16  C   UNL     1       3.598   5.623  17.953  0.00  0.00    +0.000 C 
ATOM     17 CL   UNL     1       2.152   6.650  17.535  0.00  0.00    +0.000 Cl
ATOM     18  C   UNL     1       4.864   6.509  17.926  0.00  0.00    +0.000 C 
ATOM     19  H   UNL     1       3.145   2.446  17.069  0.00  0.00    +0.000 HD
ENDROOT
BRANCH   2  20
ATOM     20  C   UNL     1       7.769   6.662  18.464  0.00  0.00    +0.000 C 
BRANCH  20  21
ATOM     21  O   UNL     1       7.979   5.467  19.196  0.00  0.00    +0.000 OA
ATOM     22  H   UNL     1       7.440   4.780  18.756  0.00  0.00    +0.000 HD
ENDBRANCH  20  21
ENDBRANCH   2  20
TORSDOF 2
ENDMDL
MODEL 6
REMARK VINA RESULT:      -5.7      6.636      9.258
REMARK  Name = 
REMARK  2 active torsions:
REMARK  status: ('A' for Active; 'I' for Inactive)
REMARK    1  A    between atoms: C_2  and  C_3
REMARK    2  A    between atoms: C_3  and  O_4
REMARK                            x       y       z     vdW  Elec       q    Type
REMARK                         _______ _______ _______ _____ _____    ______ ____
ROOT
ATOM      1  O   UNL     1       0.902   9.421  19.711  0.00  0.00    +0.000 OA
ATOM      2  C   UNL     1       0.283   9.918  20.664  0.00  0.00    +0.000 C 
ATOM      3  N   UNL     1      -0.487  11.067  20.546  0.00  0.00    +0.000 N 
ATOM      4  C   UNL     1      -0.613  11.684  19.223  0.00  0.00    +0.000 C 
ATOM      5  C   UNL     1      -2.042  12.114  19.055  0.00  0.00    +0.000 C 
ATOM      6  C   UNL     1      -2.751  12.572  20.096  0.00  0.00    +0.000 C 
ATOM      7  N   UNL     1      -4.118  12.736  20.194  0.00  0.00    +0.000 N 
ATOM      8  C   UNL     1      -4.487  12.658  21.555  0.00  0.00    +0.000 A 
ATOM      9  C   UNL     1      -3.331  12.621  22.378  0.00  0.00    +0.000 A 
ATOM     10  C   UNL     1      -3.436  12.636  23.760  0.00  0.00    +0.000 A 
ATOM     11  C   UNL     1      -4.712  12.788  24.315  0.00  0.00    +0.000 A 
ATOM     12  C   UNL     1      -5.859  12.889  23.498  0.00  0.00    +0.000 A 
ATOM     13 CL   UNL     1      -7.367  13.210  24.286  0.00  0.00    +0.000 Cl
ATOM     14  C   UNL     1      -5.756  12.795  22.104  0.00  0.00    +0.000 A 
ATOM     15 CL   UNL     1      -7.125  12.906  21.057  0.00  0.00    +0.000 Cl
ATOM     16  C   UNL     1      -2.111  12.788  21.486  0.00  0.00    +0.000 C 
ATOM     17 CL   UNL     1      -1.650  14.546  21.614  0.00  0.00    +0.000 Cl
ATOM     18  C   UNL     1      -0.848  11.924  21.697  0.00  0.00    +0.000 C 
ATOM     19  H   UNL     1      -4.740  12.352  19.491  0.00  0.00    +0.000 HD
ENDROOT
BRANCH   2  20
ATOM     20  C   UNL     1       0.234   9.188  22.011  0.00  0.00    +0.000 C 
BRANCH  20  21
ATOM     21  O   UNL     1       1.375   9.417  22.822  0.00  0.00    +0.000 OA
ATOM     22  H   UNL     1       1.826  10.196  22.441  0.00  0.00    +0.000 HD
ENDBRANCH  20  21
ENDBRANCH   2  20
TORSDOF 2
ENDMDL
MODEL 7
REMARK VINA RESULT:      -5.6      7.222      9.972
REMARK  Name = 
REMARK  2 active torsions:
REMARK  status: ('A' for Active; 'I' for Inactive)
REMARK    1  A    between atoms: C_2  and  C_3
REMARK    2  A    between atoms: C_3  and  O_4
REMARK                            x       y       z     vdW  Elec       q    Type
REMARK                         _______ _______ _______ _____ _____    ______ ____
ROOT
ATOM      1  O   UNL     1      -6.584  12.776  22.313  0.00  0.00    +0.000 OA
ATOM      2  C   UNL     1      -5.733  12.548  21.441  0.00  0.00    +0.000 C 
ATOM      3  N   UNL     1      -4.371  12.712  21.656  0.00  0.00    +0.000 N 
ATOM      4  C   UNL     1      -3.924  13.121  22.990  0.00  0.00    +0.000 C 
ATOM      5  C   UNL     1      -2.696  12.325  23.322  0.00  0.00    +0.000 C 
ATOM      6  C   UNL     1      -1.809  11.996  22.372  0.00  0.00    +0.000 C 
ATOM      7  N   UNL     1      -0.801  11.053  22.431  0.00  0.00    +0.000 N 
ATOM      8  C   UNL     1      -0.517  10.612  21.120  0.00  0.00    +0.000 A 
ATOM      9  C   UNL     1      -1.219  11.401  20.171  0.00  0.00    +0.000 A 
ATOM     10  C   UNL     1      -1.030  11.218  18.810  0.00  0.00    +0.000 A 
ATOM     11  C   UNL     1      -0.054  10.301  18.404  0.00  0.00    +0.000 A 
ATOM     12  C   UNL     1       0.691   9.560  19.347  0.00  0.00    +0.000 A 
ATOM     13 CL   UNL     1       1.964   8.556  18.738  0.00  0.00    +0.000 Cl
ATOM     14  C   UNL     1       0.442   9.691  20.720  0.00  0.00    +0.000 A 
ATOM     15 CL   UNL     1       1.319   8.806  21.917  0.00  0.00    +0.000 Cl
ATOM     16  C   UNL     1      -1.942  12.509  20.921  0.00  0.00    +0.000 C 
ATOM     17 CL   UNL     1      -0.882  13.981  20.756  0.00  0.00    +0.000 Cl
ATOM     18  C   UNL     1      -3.394  12.896  20.560  0.00  0.00    +0.000 C 
ATOM     19  H   UNL     1      -0.754  10.390  23.197  0.00  0.00    +0.000 HD
ENDROOT
BRANCH   2  20
ATOM     20  C   UNL     1      -6.153  11.932  20.102  0.00  0.00    +0.000 C 
BRANCH  20  21
ATOM     21  O   UNL     1      -7.549  11.992  19.863  0.00  0.00    +0.000 OA
ATOM     22  H   UNL     1      -7.793  12.937  19.916  0.00  0.00    +0.000 HD
ENDBRANCH  20  21
ENDBRANCH   2  20
TORSDOF 2
ENDMDL
MODEL 8
REMARK VINA RESULT:      -5.5      3.307      5.079
REMARK  Name = 
REMARK  2 active torsions:
REMARK  status: ('A' for Active; 'I' for Inactive)
REMARK    1  A    between atoms: C_2  and  C_3
REMARK    2  A    between atoms: C_3  and  O_4
REMARK                            x       y       z     vdW  Elec       q    Type
REMARK                         _______ _______ _______ _____ _____    ______ ____
ROOT
ATOM      1  O   UNL     1       7.108   4.385  11.805  0.00  0.00    +0.000 OA
ATOM      2  C   UNL     1       6.523   3.843  12.756  0.00  0.00    +0.000 C 
ATOM      3  N   UNL     1       6.553   4.352  14.047  0.00  0.00    +0.000 N 
ATOM      4  C   UNL     1       7.262   5.613  14.279  0.00  0.00    +0.000 C 
ATOM      5  C   UNL     1       6.434   6.435  15.224  0.00  0.00    +0.000 C 
ATOM      6  C   UNL     1       5.726   5.855  16.204  0.00  0.00    +0.000 C 
ATOM      7  N   UNL     1       4.711   6.400  16.965  0.00  0.00    +0.000 N 
ATOM      8  C   UNL     1       3.877   5.356  17.421  0.00  0.00    +0.000 A 
ATOM      9  C   UNL     1       4.449   4.095  17.108  0.00  0.00    +0.000 A 
ATOM     10  C   UNL     1       3.857   2.916  17.535  0.00  0.00    +0.000 A 
ATOM     11  C   UNL     1       2.737   3.013  18.367  0.00  0.00    +0.000 A 
ATOM     12  C   UNL     1       2.203   4.267  18.734  0.00  0.00    +0.000 A 
ATOM     13 CL   UNL     1       0.901   4.271  19.875  0.00  0.00    +0.000 Cl
ATOM     14  C   UNL     1       2.756   5.454  18.236  0.00  0.00    +0.000 A 
ATOM     15 CL   UNL     1       2.140   7.016  18.645  0.00  0.00    +0.000 Cl
ATOM     16  C   UNL     1       5.814   4.338  16.483  0.00  0.00    +0.000 C 
ATOM     17 CL   UNL     1       7.016   4.092  17.830  0.00  0.00    +0.000 Cl
ATOM     18  C   UNL     1       6.277   3.533  15.248  0.00  0.00    +0.000 C 
ATOM     19  H   UNL     1       4.296   7.292  16.715  0.00  0.00    +0.000 HD
ENDROOT
BRANCH   2  20
ATOM     20  C   UNL     1       5.612   2.636  12.509  0.00  0.00    +0.000 C 
BRANCH  20  21
ATOM     21  O   UNL     1       6.170   1.675  11.629  0.00  0.00    +0.000 OA
ATOM     22  H   UNL     1       5.860   1.915  10.733  0.00  0.00    +0.000 HD
ENDBRANCH  20  21
ENDBRANCH   2  20
TORSDOF 2
ENDMDL
MODEL 9
REMARK VINA RESULT:      -5.5      5.630      8.195
REMARK  Name = 
REMARK  2 active torsions:
REMARK  status: ('A' for Active; 'I' for Inactive)
REMARK    1  A    between atoms: C_2  and  C_3
REMARK    2  A    between atoms: C_3  and  O_4
REMARK                            x       y       z     vdW  Elec       q    Type
REMARK                         _______ _______ _______ _____ _____    ______ ____
ROOT
ATOM      1  O   UNL     1      -4.161  12.693  21.288  0.00  0.00    +0.000 OA
ATOM      2  C   UNL     1      -3.278  12.342  20.491  0.00  0.00    +0.000 C 
ATOM      3  N   UNL     1      -1.991  12.012  20.891  0.00  0.00    +0.000 N 
ATOM      4  C   UNL     1      -1.683  12.031  22.323  0.00  0.00    +0.000 C 
ATOM      5  C   UNL     1      -0.830  10.832  22.622  0.00  0.00    +0.000 C 
ATOM      6  C   UNL     1       0.070  10.388  21.732  0.00  0.00    +0.000 C 
ATOM      7  N   UNL     1       0.720   9.170  21.709  0.00  0.00    +0.000 N 
ATOM      8  C   UNL     1       1.085   8.877  20.376  0.00  0.00    +0.000 A 
ATOM      9  C   UNL     1       0.832   9.995  19.539  0.00  0.00    +0.000 A 
ATOM     10  C   UNL     1       1.193   9.982  18.200  0.00  0.00    +0.000 A 
ATOM     11  C   UNL     1       1.903   8.873  17.727  0.00  0.00    +0.000 A 
ATOM     12  C   UNL     1       2.213   7.786  18.574  0.00  0.00    +0.000 A 
ATOM     13 CL   UNL     1       3.211   6.532  17.920  0.00  0.00    +0.000 Cl
ATOM     14  C   UNL     1       1.777   7.769  19.906  0.00  0.00    +0.000 A 
ATOM     15 CL   UNL     1       2.122   6.464  20.984  0.00  0.00    +0.000 Cl
ATOM     16  C   UNL     1       0.355  11.143  20.415  0.00  0.00    +0.000 C 
ATOM     17 CL   UNL     1       1.820  12.191  20.684  0.00  0.00    +0.000 Cl
ATOM     18  C   UNL     1      -0.826  12.039  19.978  0.00  0.00    +0.000 C 
ATOM     19  H   UNL     1       0.430   8.414  22.320  0.00  0.00    +0.000 HD
ENDROOT
BRANCH   2  20
ATOM     20  C   UNL     1      -3.622  12.122  19.013  0.00  0.00    +0.000 C 
BRANCH  20  21
ATOM     21  O   UNL     1      -4.873  12.670  18.634  0.00  0.00    +0.000 OA
ATOM     22  H   UNL     1      -5.545  12.215  19.179  0.00  0.00    +0.000 HD
ENDBRANCH  20  21
ENDBRANCH   2  20
TORSDOF 2
ENDMDL
