MODEL 1
REMARK VINA RESULT:      -5.3      0.000      0.000
REMARK  Name = 
REMARK  7 active torsions:
REMARK  status: ('A' for Active; 'I' for Inactive)
REMARK    1  A    between atoms: C_1  and  N_2
REMARK    2  A    between atoms: N_2  and  C_3
REMARK    3  A    between atoms: N_2  and  C_4
REMARK    4  A    between atoms: N_2  and  C_5
REMARK    5  A    between atoms: C_5  and  C_6
REMARK    6  A    between atoms: C_6  and  O_7
REMARK    7  A    between atoms: O_7  and  C_8
REMARK                            x       y       z     vdW  Elec       q    Type
REMARK                         _______ _______ _______ _____ _____    ______ ____
ROOT
ATOM      1  O   UNL     1       5.279   4.543  18.761  0.00  0.00    +0.000 OA
ENDROOT
BRANCH   1   2
ATOM      2  C   UNL     1       5.729   4.560  17.468  0.00  0.00    +0.000 A 
ATOM      3  C   UNL     1       4.936   4.526  16.323  0.00  0.00    +0.000 A 
ATOM      4  C   UNL     1       5.536   4.554  15.065  0.00  0.00    +0.000 A 
ATOM      5  C   UNL     1       6.920   4.610  14.992  0.00  0.00    +0.000 A 
ATOM      6  N   UNL     1       7.720   4.634  16.078  0.00  0.00    +0.000 NA
ATOM      7  C   UNL     1       7.106   4.614  17.286  0.00  0.00    +0.000 A 
ENDBRANCH   1   2
BRANCH   1   8
ATOM      8  C   UNL     1       4.627   3.344  19.193  0.00  0.00    +0.000 C 
BRANCH   8   9
ATOM      9  C   UNL     1       3.213   3.639  19.724  0.00  0.00    +0.000 C 
BRANCH   9  11
ATOM     10  C   UNL     1       2.541   2.145  17.851  0.00  0.00    +0.000 C 
ATOM     11  N   UNL     1       2.050   3.297  18.746  0.00  0.00    +0.000 N 
ATOM     12  C   UNL     1       1.692   4.467  17.861  0.00  0.00    +0.000 C 
ATOM     13  C   UNL     1       0.840   2.792  19.509  0.00  0.00    +0.000 C 
ENDBRANCH   9  11
ENDBRANCH   8   9
ENDBRANCH   1   8
TORSDOF 4
ENDMDL
MODEL 2
REMARK VINA RESULT:      -5.2      1.016      1.190
REMARK  Name = 
REMARK  7 active torsions:
REMARK  status: ('A' for Active; 'I' for Inactive)
REMARK    1  A    between atoms: C_1  and  N_2
REMARK    2  A    between atoms: N_2  and  C_3
REMARK    3  A    between atoms: N_2  and  C_4
REMARK    4  A    between atoms: N_2  and  C_5
REMARK    5  A    between atoms: C_5  and  C_6
REMARK    6  A    between atoms: C_6  and  O_7
REMARK    7  A    between atoms: O_7  and  C_8
REMARK                            x       y       z     vdW  Elec       q    Type
REMARK                         _______ _______ _______ _____ _____    ______ ____
ROOT
ATOM      1  O   UNL     1       5.584   4.503  18.860  0.00  0.00    +0.000 OA
ENDROOT
BRANCH   1   2
ATOM      2  C   UNL     1       5.890   4.527  17.526  0.00  0.00    +0.000 A 
ATOM      3  C   UNL     1       4.980   4.470  16.474  0.00  0.00    +0.000 A 
ATOM      4  C   UNL     1       5.440   4.509  15.158  0.00  0.00    +0.000 A 
ATOM      5  C   UNL     1       6.806   4.600  14.935  0.00  0.00    +0.000 A 
ATOM      6  N   UNL     1       7.718   4.648  15.929  0.00  0.00    +0.000 NA
ATOM      7  C   UNL     1       7.239   4.616  17.196  0.00  0.00    +0.000 A 
ENDBRANCH   1   2
BRANCH   1   8
ATOM      8  C   UNL     1       4.594   3.553  19.268  0.00  0.00    +0.000 C 
BRANCH   8   9
ATOM      9  C   UNL     1       3.373   4.253  19.892  0.00  0.00    +0.000 C 
BRANCH   9  11
ATOM     10  C   UNL     1       2.182   2.168  19.240  0.00  0.00    +0.000 C 
ATOM     11  N   UNL     1       2.188   3.315  20.266  0.00  0.00    +0.000 N 
ATOM     12  C   UNL     1       0.858   4.026  20.192  0.00  0.00    +0.000 C 
ATOM     13  C   UNL     1       2.406   2.696  21.633  0.00  0.00    +0.000 C 
ENDBRANCH   9  11
ENDBRANCH   8   9
ENDBRANCH   1   8
TORSDOF 4
ENDMDL
MODEL 3
REMARK VINA RESULT:      -5.1      0.737      1.448
REMARK  Name = 
REMARK  7 active torsions:
REMARK  status: ('A' for Active; 'I' for Inactive)
REMARK    1  A    between atoms: C_1  and  N_2
REMARK    2  A    between atoms: N_2  and  C_3
REMARK    3  A    between atoms: N_2  and  C_4
REMARK    4  A    between atoms: N_2  and  C_5
REMARK    5  A    between atoms: C_5  and  C_6
REMARK    6  A    between atoms: C_6  and  O_7
REMARK    7  A    between atoms: O_7  and  C_8
REMARK                            x       y       z     vdW  Elec       q    Type
REMARK                         _______ _______ _______ _____ _____    ______ ____
ROOT
ATOM      1  O   UNL     1       5.851   4.348  18.818  0.00  0.00    +0.000 OA
ENDROOT
BRANCH   1   2
ATOM      2  C   UNL     1       6.025   4.503  17.469  0.00  0.00    +0.000 A 
ATOM      3  C   UNL     1       5.256   3.913  16.468  0.00  0.00    +0.000 A 
ATOM      4  C   UNL     1       5.550   4.168  15.129  0.00  0.00    +0.000 A 
ATOM      5  C   UNL     1       6.615   5.006  14.832  0.00  0.00    +0.000 A 
ATOM      6  N   UNL     1       7.388   5.586  15.774  0.00  0.00    +0.000 NA
ATOM      7  C   UNL     1       7.072   5.326  17.064  0.00  0.00    +0.000 A 
ENDBRANCH   1   2
BRANCH   1   8
ATOM      8  C   UNL     1       4.743   3.539  19.227  0.00  0.00    +0.000 C 
BRANCH   8   9
ATOM      9  C   UNL     1       3.484   4.395  19.459  0.00  0.00    +0.000 C 
BRANCH   9  11
ATOM     10  C   UNL     1       1.115   4.010  20.116  0.00  0.00    +0.000 C 
ATOM     11  N   UNL     1       2.145   3.744  19.004  0.00  0.00    +0.000 N 
ATOM     12  C   UNL     1       2.274   2.251  18.821  0.00  0.00    +0.000 C 
ATOM     13  C   UNL     1       1.628   4.410  17.742  0.00  0.00    +0.000 C 
ENDBRANCH   9  11
ENDBRANCH   8   9
ENDBRANCH   1   8
TORSDOF 4
ENDMDL
MODEL 4
REMARK VINA RESULT:      -5.1      1.772      5.517
REMARK  Name = 
REMARK  7 active torsions:
REMARK  status: ('A' for Active; 'I' for Inactive)
REMARK    1  A    between atoms: C_1  and  N_2
REMARK    2  A    between atoms: N_2  and  C_3
REMARK    3  A    between atoms: N_2  and  C_4
REMARK    4  A    between atoms: N_2  and  C_5
REMARK    5  A    between atoms: C_5  and  C_6
REMARK    6  A    between atoms: C_6  and  O_7
REMARK    7  A    between atoms: O_7  and  C_8
REMARK                            x       y       z     vdW  Elec       q    Type
REMARK                         _______ _______ _______ _____ _____    ______ ____
ROOT
ATOM      1  O   UNL     1       3.777   2.282  18.282  0.00  0.00    +0.000 OA
ENDROOT
BRANCH   1   2
ATOM      2  C   UNL     1       2.951   2.547  19.341  0.00  0.00    +0.000 A 
ATOM      3  C   UNL     1       1.627   2.976  19.262  0.00  0.00    +0.000 A 
ATOM      4  C   UNL     1       0.903   3.203  20.432  0.00  0.00    +0.000 A 
ATOM      5  C   UNL     1       1.532   2.999  21.651  0.00  0.00    +0.000 A 
ATOM      6  N   UNL     1       2.814   2.595  21.766  0.00  0.00    +0.000 NA
ATOM      7  C   UNL     1       3.488   2.374  20.612  0.00  0.00    +0.000 A 
ENDBRANCH   1   2
BRANCH   1   8
ATOM      8  C   UNL     1       4.067   3.379  17.411  0.00  0.00    +0.000 C 
BRANCH   8   9
ATOM      9  C   UNL     1       5.159   4.288  18.004  0.00  0.00    +0.000 C 
BRANCH   9  11
ATOM     10  C   UNL     1       7.591   4.659  17.625  0.00  0.00    +0.000 C 
ATOM     11  N   UNL     1       6.203   4.827  16.981  0.00  0.00    +0.000 N 
ATOM     12  C   UNL     1       5.993   6.291  16.678  0.00  0.00    +0.000 C 
ATOM     13  C   UNL     1       6.190   3.994  15.713  0.00  0.00    +0.000 C 
ENDBRANCH   9  11
ENDBRANCH   8   9
ENDBRANCH   1   8
TORSDOF 4
ENDMDL
MODEL 5
REMARK VINA RESULT:      -5.1      1.768      5.526
REMARK  Name = 
REMARK  7 active torsions:
REMARK  status: ('A' for Active; 'I' for Inactive)
REMARK    1  A    between atoms: C_1  and  N_2
REMARK    2  A    between atoms: N_2  and  C_3
REMARK    3  A    between atoms: N_2  and  C_4
REMARK    4  A    between atoms: N_2  and  C_5
REMARK    5  A    between atoms: C_5  and  C_6
REMARK    6  A    between atoms: C_6  and  O_7
REMARK    7  A    between atoms: O_7  and  C_8
REMARK                            x       y       z     vdW  Elec       q    Type
REMARK                         _______ _______ _______ _____ _____    ______ ____
ROOT
ATOM      1  O   UNL     1       3.758   2.352  18.272  0.00  0.00    +0.000 OA
ENDROOT
BRANCH   1   2
ATOM      2  C   UNL     1       2.937   2.621  19.334  0.00  0.00    +0.000 A 
ATOM      3  C   UNL     1       1.633   3.104  19.261  0.00  0.00    +0.000 A 
ATOM      4  C   UNL     1       0.912   3.328  20.434  0.00  0.00    +0.000 A 
ATOM      5  C   UNL     1       1.525   3.064  21.650  0.00  0.00    +0.000 A 
ATOM      6  N   UNL     1       2.789   2.605  21.759  0.00  0.00    +0.000 NA
ATOM      7  C   UNL     1       3.460   2.390  20.602  0.00  0.00    +0.000 A 
ENDBRANCH   1   2
BRANCH   1   8
ATOM      8  C   UNL     1       4.027   3.442  17.383  0.00  0.00    +0.000 C 
BRANCH   8   9
ATOM      9  C   UNL     1       5.055   4.414  17.989  0.00  0.00    +0.000 C 
BRANCH   9  11
ATOM     10  C   UNL     1       6.088   3.981  15.767  0.00  0.00    +0.000 C 
ATOM     11  N   UNL     1       6.199   4.855  17.028  0.00  0.00    +0.000 N 
ATOM     12  C   UNL     1       7.564   4.641  17.638  0.00  0.00    +0.000 C 
ATOM     13  C   UNL     1       6.008   6.297  16.596  0.00  0.00    +0.000 C 
ENDBRANCH   9  11
ENDBRANCH   8   9
ENDBRANCH   1   8
TORSDOF 4
ENDMDL
MODEL 6
REMARK VINA RESULT:      -5.1      2.113      5.310
REMARK  Name = 
REMARK  7 active torsions:
REMARK  status: ('A' for Active; 'I' for Inactive)
REMARK    1  A    between atoms: C_1  and  N_2
REMARK    2  A    between atoms: N_2  and  C_3
REMARK    3  A    between atoms: N_2  and  C_4
REMARK    4  A    between atoms: N_2  and  C_5
REMARK    5  A    between atoms: C_5  and  C_6
REMARK    6  A    between atoms: C_6  and  O_7
REMARK    7  A    between atoms: O_7  and  C_8
REMARK                            x       y       z     vdW  Elec       q    Type
REMARK                         _______ _______ _______ _____ _____    ______ ____
ROOT
ATOM      1  O   UNL     1       3.697   2.592  18.167  0.00  0.00    +0.000 OA
ENDROOT
BRANCH   1   2
ATOM      2  C   UNL     1       2.907   2.740  19.275  0.00  0.00    +0.000 A 
ATOM      3  C   UNL     1       1.568   3.123  19.283  0.00  0.00    +0.000 A 
ATOM      4  C   UNL     1       0.886   3.228  20.495  0.00  0.00    +0.000 A 
ATOM      5  C   UNL     1       1.571   2.949  21.668  0.00  0.00    +0.000 A 
ATOM      6  N   UNL     1       2.870   2.585  21.699  0.00  0.00    +0.000 NA
ATOM      7  C   UNL     1       3.503   2.484  20.506  0.00  0.00    +0.000 A 
ENDBRANCH   1   2
BRANCH   1   8
ATOM      8  C   UNL     1       3.591   3.612  17.169  0.00  0.00    +0.000 C 
BRANCH   8   9
ATOM      9  C   UNL     1       4.918   4.375  17.007  0.00  0.00    +0.000 C 
BRANCH   9  11
ATOM     10  C   UNL     1       5.773   5.269  19.167  0.00  0.00    +0.000 C 
ATOM     11  N   UNL     1       5.051   5.667  17.867  0.00  0.00    +0.000 N 
ATOM     12  C   UNL     1       3.705   6.247  18.229  0.00  0.00    +0.000 C 
ATOM     13  C   UNL     1       5.921   6.691  17.163  0.00  0.00    +0.000 C 
ENDBRANCH   9  11
ENDBRANCH   8   9
ENDBRANCH   1   8
TORSDOF 4
ENDMDL
MODEL 7
REMARK VINA RESULT:      -5.1      1.077      1.270
REMARK  Name = 
REMARK  7 active torsions:
REMARK  status: ('A' for Active; 'I' for Inactive)
REMARK    1  A    between atoms: C_1  and  N_2
REMARK    2  A    between atoms: N_2  and  C_3
REMARK    3  A    between atoms: N_2  and  C_4
REMARK    4  A    between atoms: N_2  and  C_5
REMARK    5  A    between atoms: C_5  and  C_6
REMARK    6  A    between atoms: C_6  and  O_7
REMARK    7  A    between atoms: O_7  and  C_8
REMARK                            x       y       z     vdW  Elec       q    Type
REMARK                         _______ _______ _______ _____ _____    ______ ____
ROOT
ATOM      1  O   UNL     1       5.651   5.175  19.098  0.00  0.00    +0.000 OA
ENDROOT
BRANCH   1   2
ATOM      2  C   UNL     1       5.981   5.120  17.770  0.00  0.00    +0.000 A 
ATOM      3  C   UNL     1       5.156   5.474  16.705  0.00  0.00    +0.000 A 
ATOM      4  C   UNL     1       5.632   5.370  15.398  0.00  0.00    +0.000 A 
ATOM      5  C   UNL     1       6.924   4.907  15.197  0.00  0.00    +0.000 A 
ATOM      6  N   UNL     1       7.747   4.546  16.204  0.00  0.00    +0.000 NA
ATOM      7  C   UNL     1       7.259   4.666  17.462  0.00  0.00    +0.000 A 
ENDBRANCH   1   2
BRANCH   1   8
ATOM      8  C   UNL     1       4.255   5.260  19.404  0.00  0.00    +0.000 C 
BRANCH   8   9
ATOM      9  C   UNL     1       3.643   3.862  19.604  0.00  0.00    +0.000 C 
BRANCH   9  11
ATOM     10  C   UNL     1       1.684   2.443  20.190  0.00  0.00    +0.000 C 
ATOM     11  N   UNL     1       2.086   3.813  19.617  0.00  0.00    +0.000 N 
ATOM     12  C   UNL     1       1.504   3.939  18.230  0.00  0.00    +0.000 C 
ATOM     13  C   UNL     1       1.526   4.873  20.547  0.00  0.00    +0.000 C 
ENDBRANCH   9  11
ENDBRANCH   8   9
ENDBRANCH   1   8
TORSDOF 4
ENDMDL
MODEL 8
REMARK VINA RESULT:      -5.1      1.737      5.630
REMARK  Name = 
REMARK  7 active torsions:
REMARK  status: ('A' for Active; 'I' for Inactive)
REMARK    1  A    between atoms: C_1  and  N_2
REMARK    2  A    between atoms: N_2  and  C_3
REMARK    3  A    between atoms: N_2  and  C_4
REMARK    4  A    between atoms: N_2  and  C_5
REMARK    5  A    between atoms: C_5  and  C_6
REMARK    6  A    between atoms: C_6  and  O_7
REMARK    7  A    between atoms: O_7  and  C_8
REMARK                            x       y       z     vdW  Elec       q    Type
REMARK                         _______ _______ _______ _____ _____    ______ ____
ROOT
ATOM      1  O   UNL     1       4.011   3.468  18.483  0.00  0.00    +0.000 OA
ENDROOT
BRANCH   1   2
ATOM      2  C   UNL     1       3.086   3.289  19.476  0.00  0.00    +0.000 A 
ATOM      3  C   UNL     1       1.732   3.610  19.405  0.00  0.00    +0.000 A 
ATOM      4  C   UNL     1       0.904   3.365  20.500  0.00  0.00    +0.000 A 
ATOM      5  C   UNL     1       1.462   2.807  21.641  0.00  0.00    +0.000 A 
ATOM      6  N   UNL     1       2.770   2.493  21.750  0.00  0.00    +0.000 NA
ATOM      7  C   UNL     1       3.546   2.735  20.666  0.00  0.00    +0.000 A 
ENDBRANCH   1   2
BRANCH   1   8
ATOM      8  C   UNL     1       5.253   4.066  18.870  0.00  0.00    +0.000 C 
BRANCH   8   9
ATOM      9  C   UNL     1       5.338   5.529  18.399  0.00  0.00    +0.000 C 
BRANCH   9  11
ATOM     10  C   UNL     1       5.415   6.072  15.971  0.00  0.00    +0.000 C 
ATOM     11  N   UNL     1       6.298   5.786  17.199  0.00  0.00    +0.000 N 
ATOM     12  C   UNL     1       7.159   4.583  16.896  0.00  0.00    +0.000 C 
ATOM     13  C   UNL     1       7.143   7.021  17.446  0.00  0.00    +0.000 C 
ENDBRANCH   9  11
ENDBRANCH   8   9
ENDBRANCH   1   8
TORSDOF 4
ENDMDL
MODEL 9
REMARK VINA RESULT:      -5.0      1.106      1.598
REMARK  Name = 
REMARK  7 active torsions:
REMARK  status: ('A' for Active; 'I' for Inactive)
REMARK    1  A    between atoms: C_1  and  N_2
REMARK    2  A    between atoms: N_2  and  C_3
REMARK    3  A    between atoms: N_2  and  C_4
REMARK    4  A    between atoms: N_2  and  C_5
REMARK    5  A    between atoms: C_5  and  C_6
REMARK    6  A    between atoms: C_6  and  O_7
REMARK    7  A    between atoms: O_7  and  C_8
REMARK                            x       y       z     vdW  Elec       q    Type
REMARK                         _______ _______ _______ _____ _____    ______ ____
ROOT
ATOM      1  O   UNL     1       4.358   4.282  18.365  0.00  0.00    +0.000 OA
ENDROOT
BRANCH   1   2
ATOM      2  C   UNL     1       5.208   4.399  17.298  0.00  0.00    +0.000 A 
ATOM      3  C   UNL     1       4.848   4.342  15.953  0.00  0.00    +0.000 A 
ATOM      4  C   UNL     1       5.827   4.482  14.969  0.00  0.00    +0.000 A 
ATOM      5  C   UNL     1       7.143   4.671  15.365  0.00  0.00    +0.000 A 
ATOM      6  N   UNL     1       7.529   4.721  16.658  0.00  0.00    +0.000 NA
ATOM      7  C   UNL     1       6.554   4.590  17.589  0.00  0.00    +0.000 A 
ENDBRANCH   1   2
BRANCH   1   8
ATOM      8  C   UNL     1       4.040   2.950  18.782  0.00  0.00    +0.000 C 
BRANCH   8   9
ATOM      9  C   UNL     1       3.496   2.933  20.223  0.00  0.00    +0.000 C 
BRANCH   9  11
ATOM     10  C   UNL     1       1.450   2.615  21.604  0.00  0.00    +0.000 C 
ATOM     11  N   UNL     1       2.006   3.358  20.376  0.00  0.00    +0.000 N 
ATOM     12  C   UNL     1       1.181   2.971  19.172  0.00  0.00    +0.000 C 
ATOM     13  C   UNL     1       1.900   4.844  20.661  0.00  0.00    +0.000 C 
ENDBRANCH   9  11
ENDBRANCH   8   9
ENDBRANCH   1   8
TORSDOF 4
ENDMDL
