MODEL 1
REMARK VINA RESULT:      -7.8      0.000      0.000
REMARK  Name = 
REMARK  8 active torsions:
REMARK  status: ('A' for Active; 'I' for Inactive)
REMARK    1  A    between atoms: C_1  and  C_2
REMARK    2  A    between atoms: C_5  and  C_6
REMARK    3  A    between atoms: C_6  and  O_8
REMARK    4  A    between atoms: C_10  and  C_11
REMARK    5  A    between atoms: C_11  and  C_12
REMARK    6  A    between atoms: C_12  and  C_13
REMARK    7  A    between atoms: C_13  and  N_14
REMARK    8  A    between atoms: C_23  and  O_24
REMARK                            x       y       z     vdW  Elec       q    Type
REMARK                         _______ _______ _______ _____ _____    ______ ____
ROOT
ATOM      1  C   UNL     1       2.096   4.747  18.074  0.00  0.00    +0.000 C 
ENDROOT
BRANCH   1   2
ATOM      2  N   UNL     1       3.280   3.927  17.733  0.00  0.00    +0.000 N 
ATOM      3  C   UNL     1       3.611   2.867  18.552  0.00  0.00    +0.000 A 
ATOM      4  N   UNL     1       4.758   3.121  19.149  0.00  0.00    +0.000 NA
ATOM      5  C   UNL     1       5.313   4.170  18.432  0.00  0.00    +0.000 A 
ATOM      6  C   UNL     1       4.524   4.383  17.314  0.00  0.00    +0.000 A 
ATOM      7  N   UNL     1       4.936   4.505  16.022  0.00  0.00    +0.000 N 
ATOM      8  C   UNL     1       6.266   4.265  15.671  0.00  0.00    +0.000 C 
ATOM      9  N   UNL     1       7.389   4.520  16.245  0.00  0.00    +0.000 NA
ATOM     10  C   UNL     1       7.358   5.334  17.464  0.00  0.00    +0.000 C 
ATOM     11  C   UNL     1       6.688   4.688  18.695  0.00  0.00    +0.000 C 
ATOM     12  H   UNL     1       4.294   4.147  15.317  0.00  0.00    +0.000 HD
BRANCH  11  13
ATOM     13  O   UNL     1       6.633   5.697  19.725  0.00  0.00    +0.000 OA
ATOM     14  H   UNL     1       7.043   5.303  20.514  0.00  0.00    +0.000 HD
ENDBRANCH  11  13
ENDBRANCH   1   2
BRANCH   1  15
ATOM     15  C   UNL     1       1.973   5.116  19.595  0.00  0.00    +0.000 C 
BRANCH  15  16
ATOM     16  C   UNL     1       2.673   6.441  20.007  0.00  0.00    +0.000 C 
BRANCH  16  23
ATOM     17  C   UNL     1       2.425   8.332  17.624  0.00  0.00    +0.000 C 
ATOM     18  C   UNL     1       1.735   8.598  18.939  0.00  0.00    +0.000 A 
ATOM     19  C   UNL     1       0.989   9.796  19.020  0.00  0.00    +0.000 A 
ATOM     20  C   UNL     1       0.391  10.192  20.215  0.00  0.00    +0.000 A 
ATOM     21  C   UNL     1       0.517   9.391  21.348  0.00  0.00    +0.000 A 
ATOM     22  C   UNL     1       1.232   8.170  21.276  0.00  0.00    +0.000 A 
ATOM     23  C   UNL     1       1.834   7.728  20.065  0.00  0.00    +0.000 A 
BRANCH  21  24
ATOM     24  C   UNL     1      -0.047   9.931  22.611  0.00  0.00    +0.000 C 
ATOM     25  O   UNL     1       0.352   9.587  23.718  0.00  0.00    +0.000 OA
BRANCH  24  26
ATOM     26  O   UNL     1      -0.982  10.884  22.441  0.00  0.00    +0.000 OA
ATOM     27  H   UNL     1      -1.902  10.565  22.459  0.00  0.00    +0.000 HD
ENDBRANCH  24  26
ENDBRANCH  21  24
ENDBRANCH  16  23
ENDBRANCH  15  16
ENDBRANCH   1  15
TORSDOF 7
ENDMDL
MODEL 2
REMARK VINA RESULT:      -7.6      1.238      1.438
REMARK  Name = 
REMARK  8 active torsions:
REMARK  status: ('A' for Active; 'I' for Inactive)
REMARK    1  A    between atoms: C_1  and  C_2
REMARK    2  A    between atoms: C_5  and  C_6
REMARK    3  A    between atoms: C_6  and  O_8
REMARK    4  A    between atoms: C_10  and  C_11
REMARK    5  A    between atoms: C_11  and  C_12
REMARK    6  A    between atoms: C_12  and  C_13
REMARK    7  A    between atoms: C_13  and  N_14
REMARK    8  A    between atoms: C_23  and  O_24
REMARK                            x       y       z     vdW  Elec       q    Type
REMARK                         _______ _______ _______ _____ _____    ______ ____
ROOT
ATOM      1  C   UNL     1       2.787   4.849  19.829  0.00  0.00    +0.000 C 
ENDROOT
BRANCH   1   2
ATOM      2  N   UNL     1       3.764   4.530  18.764  0.00  0.00    +0.000 N 
ATOM      3  C   UNL     1       4.357   3.283  18.761  0.00  0.00    +0.000 A 
ATOM      4  N   UNL     1       5.644   3.414  19.014  0.00  0.00    +0.000 NA
ATOM      5  C   UNL     1       5.914   4.760  18.819  0.00  0.00    +0.000 A 
ATOM      6  C   UNL     1       4.780   5.347  18.285  0.00  0.00    +0.000 A 
ATOM      7  N   UNL     1       4.703   6.157  17.193  0.00  0.00    +0.000 N 
ATOM      8  C   UNL     1       5.818   6.362  16.377  0.00  0.00    +0.000 C 
ATOM      9  N   UNL     1       7.074   6.501  16.619  0.00  0.00    +0.000 NA
ATOM     10  C   UNL     1       7.488   6.594  18.023  0.00  0.00    +0.000 C 
ATOM     11  C   UNL     1       7.297   5.320  18.873  0.00  0.00    +0.000 C 
ATOM     12  H   UNL     1       3.849   6.081  16.644  0.00  0.00    +0.000 HD
BRANCH  11  13
ATOM     13  O   UNL     1       7.622   5.667  20.235  0.00  0.00    +0.000 OA
ATOM     14  H   UNL     1       7.372   4.899  20.778  0.00  0.00    +0.000 HD
ENDBRANCH  11  13
ENDBRANCH   1   2
BRANCH   1  15
ATOM     15  C   UNL     1       1.816   6.035  19.490  0.00  0.00    +0.000 C 
BRANCH  15  16
ATOM     16  C   UNL     1       2.343   7.445  19.874  0.00  0.00    +0.000 C 
BRANCH  16  23
ATOM     17  C   UNL     1       1.586   9.519  17.765  0.00  0.00    +0.000 C 
ATOM     18  C   UNL     1       0.986   9.521  19.149  0.00  0.00    +0.000 A 
ATOM     19  C   UNL     1       0.072  10.562  19.430  0.00  0.00    +0.000 A 
ATOM     20  C   UNL     1      -0.470  10.720  20.705  0.00  0.00    +0.000 A 
ATOM     21  C   UNL     1      -0.117   9.833  21.719  0.00  0.00    +0.000 A 
ATOM     22  C   UNL     1       0.771   8.762  21.446  0.00  0.00    +0.000 A 
ATOM     23  C   UNL     1       1.322   8.562  20.150  0.00  0.00    +0.000 A 
BRANCH  21  24
ATOM     24  C   UNL     1      -0.641  10.130  23.076  0.00  0.00    +0.000 C 
ATOM     25  O   UNL     1      -1.533  10.946  23.281  0.00  0.00    +0.000 OA
BRANCH  24  26
ATOM     26  O   UNL     1      -0.107   9.378  24.056  0.00  0.00    +0.000 OA
ATOM     27  H   UNL     1      -0.611   8.574  24.278  0.00  0.00    +0.000 HD
ENDBRANCH  24  26
ENDBRANCH  21  24
ENDBRANCH  16  23
ENDBRANCH  15  16
ENDBRANCH   1  15
TORSDOF 7
ENDMDL
MODEL 3
REMARK VINA RESULT:      -7.5      2.754      4.357
REMARK  Name = 
REMARK  8 active torsions:
REMARK  status: ('A' for Active; 'I' for Inactive)
REMARK    1  A    between atoms: C_1  and  C_2
REMARK    2  A    between atoms: C_5  and  C_6
REMARK    3  A    between atoms: C_6  and  O_8
REMARK    4  A    between atoms: C_10  and  C_11
REMARK    5  A    between atoms: C_11  and  C_12
REMARK    6  A    between atoms: C_12  and  C_13
REMARK    7  A    between atoms: C_13  and  N_14
REMARK    8  A    between atoms: C_23  and  O_24
REMARK                            x       y       z     vdW  Elec       q    Type
REMARK                         _______ _______ _______ _____ _____    ______ ____
ROOT
ATOM      1  C   UNL     1       3.928   6.578  18.155  0.00  0.00    +0.000 C 
ENDROOT
BRANCH   1   2
ATOM      2  N   UNL     1       4.158   5.576  19.220  0.00  0.00    +0.000 N 
ATOM      3  C   UNL     1       5.335   4.855  19.208  0.00  0.00    +0.000 A 
ATOM      4  N   UNL     1       5.065   3.588  18.964  0.00  0.00    +0.000 NA
ATOM      5  C   UNL     1       3.701   3.462  19.179  0.00  0.00    +0.000 A 
ATOM      6  C   UNL     1       3.245   4.654  19.716  0.00  0.00    +0.000 A 
ATOM      7  N   UNL     1       2.463   4.820  20.819  0.00  0.00    +0.000 N 
ATOM      8  C   UNL     1       2.154   3.735  21.643  0.00  0.00    +0.000 C 
ATOM      9  N   UNL     1       1.879   2.501  21.409  0.00  0.00    +0.000 NA
ATOM     10  C   UNL     1       1.722   2.094  20.009  0.00  0.00    +0.000 C 
ATOM     11  C   UNL     1       2.997   2.146  19.140  0.00  0.00    +0.000 C 
ATOM     12  H   UNL     1       2.637   5.663  21.363  0.00  0.00    +0.000 HD
BRANCH  11  13
ATOM     13  O   UNL     1       2.597   1.855  17.785  0.00  0.00    +0.000 OA
ATOM     14  H   UNL     1       1.873   2.471  17.578  0.00  0.00    +0.000 HD
ENDBRANCH  11  13
ENDBRANCH   1   2
BRANCH   1  15
ATOM     15  C   UNL     1       2.463   7.141  18.093  0.00  0.00    +0.000 C 
BRANCH  15  16
ATOM     16  C   UNL     1       2.359   8.687  17.984  0.00  0.00    +0.000 C 
BRANCH  16  23
ATOM     17  C   UNL     1       1.706   8.234  20.932  0.00  0.00    +0.000 C 
ATOM     18  C   UNL     1       0.899   9.166  20.062  0.00  0.00    +0.000 A 
ATOM     19  C   UNL     1      -0.205   9.797  20.680  0.00  0.00    +0.000 A 
ATOM     20  C   UNL     1      -1.077  10.601  19.948  0.00  0.00    +0.000 A 
ATOM     21  C   UNL     1      -0.856  10.798  18.588  0.00  0.00    +0.000 A 
ATOM     22  C   UNL     1       0.266  10.201  17.958  0.00  0.00    +0.000 A 
ATOM     23  C   UNL     1       1.186   9.395  18.684  0.00  0.00    +0.000 A 
BRANCH  21  24
ATOM     24  C   UNL     1      -1.888  11.570  17.850  0.00  0.00    +0.000 C 
ATOM     25  O   UNL     1      -3.090  11.438  18.054  0.00  0.00    +0.000 OA
BRANCH  24  26
ATOM     26  O   UNL     1      -1.394  12.480  16.990  0.00  0.00    +0.000 OA
ATOM     27  H   UNL     1      -0.466  12.339  16.729  0.00  0.00    +0.000 HD
ENDBRANCH  24  26
ENDBRANCH  21  24
ENDBRANCH  16  23
ENDBRANCH  15  16
ENDBRANCH   1  15
TORSDOF 7
ENDMDL
MODEL 4
REMARK VINA RESULT:      -7.4      0.971      1.381
REMARK  Name = 
REMARK  8 active torsions:
REMARK  status: ('A' for Active; 'I' for Inactive)
REMARK    1  A    between atoms: C_1  and  C_2
REMARK    2  A    between atoms: C_5  and  C_6
REMARK    3  A    between atoms: C_6  and  O_8
REMARK    4  A    between atoms: C_10  and  C_11
REMARK    5  A    between atoms: C_11  and  C_12
REMARK    6  A    between atoms: C_12  and  C_13
REMARK    7  A    between atoms: C_13  and  N_14
REMARK    8  A    between atoms: C_23  and  O_24
REMARK                            x       y       z     vdW  Elec       q    Type
REMARK                         _______ _______ _______ _____ _____    ______ ____
ROOT
ATOM      1  C   UNL     1       2.172   3.867  20.805  0.00  0.00    +0.000 C 
ENDROOT
BRANCH   1   2
ATOM      2  N   UNL     1       3.017   3.275  19.744  0.00  0.00    +0.000 N 
ATOM      3  C   UNL     1       3.865   2.237  20.073  0.00  0.00    +0.000 A 
ATOM      4  N   UNL     1       5.113   2.641  19.948  0.00  0.00    +0.000 NA
ATOM      5  C   UNL     1       5.042   3.807  19.202  0.00  0.00    +0.000 A 
ATOM      6  C   UNL     1       3.736   3.952  18.767  0.00  0.00    +0.000 A 
ATOM      7  N   UNL     1       3.309   4.216  17.501  0.00  0.00    +0.000 N 
ATOM      8  C   UNL     1       4.208   4.217  16.432  0.00  0.00    +0.000 C 
ATOM      9  N   UNL     1       5.423   4.619  16.302  0.00  0.00    +0.000 NA
ATOM     10  C   UNL     1       6.021   5.345  17.427  0.00  0.00    +0.000 C 
ATOM     11  C   UNL     1       6.256   4.527  18.715  0.00  0.00    +0.000 C 
ATOM     12  H   UNL     1       2.419   3.799  17.238  0.00  0.00    +0.000 HD
BRANCH  11  13
ATOM     13  O   UNL     1       6.704   5.452  19.727  0.00  0.00    +0.000 OA
ATOM     14  H   UNL     1       5.956   5.569  20.338  0.00  0.00    +0.000 HD
ENDBRANCH  11  13
ENDBRANCH   1   2
BRANCH   1  15
ATOM     15  C   UNL     1       1.400   5.166  20.378  0.00  0.00    +0.000 C 
BRANCH  15  16
ATOM     16  C   UNL     1       2.281   6.439  20.244  0.00  0.00    +0.000 C 
BRANCH  16  23
ATOM     17  C   UNL     1       2.435   8.310  17.837  0.00  0.00    +0.000 C 
ATOM     18  C   UNL     1       1.677   8.670  19.090  0.00  0.00    +0.000 A 
ATOM     19  C   UNL     1       1.066   9.945  19.104  0.00  0.00    +0.000 A 
ATOM     20  C   UNL     1       0.423  10.423  20.244  0.00  0.00    +0.000 A 
ATOM     21  C   UNL     1       0.369   9.631  21.389  0.00  0.00    +0.000 A 
ATOM     22  C   UNL     1       0.947   8.336  21.383  0.00  0.00    +0.000 A 
ATOM     23  C   UNL     1       1.589   7.812  20.226  0.00  0.00    +0.000 A 
BRANCH  21  24
ATOM     24  C   UNL     1      -0.229  10.249  22.599  0.00  0.00    +0.000 C 
ATOM     25  O   UNL     1      -0.262  11.461  22.780  0.00  0.00    +0.000 OA
BRANCH  24  26
ATOM     26  O   UNL     1      -0.798   9.373  23.449  0.00  0.00    +0.000 OA
ATOM     27  H   UNL     1      -0.660   9.568  24.393  0.00  0.00    +0.000 HD
ENDBRANCH  24  26
ENDBRANCH  21  24
ENDBRANCH  16  23
ENDBRANCH  15  16
ENDBRANCH   1  15
TORSDOF 7
ENDMDL
MODEL 5
REMARK VINA RESULT:      -7.3      3.931      8.670
REMARK  Name = 
REMARK  8 active torsions:
REMARK  status: ('A' for Active; 'I' for Inactive)
REMARK    1  A    between atoms: C_1  and  C_2
REMARK    2  A    between atoms: C_5  and  C_6
REMARK    3  A    between atoms: C_6  and  O_8
REMARK    4  A    between atoms: C_10  and  C_11
REMARK    5  A    between atoms: C_11  and  C_12
REMARK    6  A    between atoms: C_12  and  C_13
REMARK    7  A    between atoms: C_13  and  N_14
REMARK    8  A    between atoms: C_23  and  O_24
REMARK                            x       y       z     vdW  Elec       q    Type
REMARK                         _______ _______ _______ _____ _____    ______ ____
ROOT
ATOM      1  C   UNL     1       1.697   9.801  18.469  0.00  0.00    +0.000 C 
ENDROOT
BRANCH   1   2
ATOM      2  N   UNL     1       0.442   9.860  19.251  0.00  0.00    +0.000 N 
ATOM      3  C   UNL     1      -0.751  10.040  18.579  0.00  0.00    +0.000 A 
ATOM      4  N   UNL     1      -1.253  11.217  18.896  0.00  0.00    +0.000 NA
ATOM      5  C   UNL     1      -0.560  11.611  20.030  0.00  0.00    +0.000 A 
ATOM      6  C   UNL     1       0.224  10.547  20.439  0.00  0.00    +0.000 A 
ATOM      7  N   UNL     1       0.321  10.023  21.693  0.00  0.00    +0.000 N 
ATOM      8  C   UNL     1      -0.531  10.453  22.712  0.00  0.00    +0.000 C 
ATOM      9  N   UNL     1      -1.016  11.601  23.031  0.00  0.00    +0.000 NA
ATOM     10  C   UNL     1      -0.528  12.771  22.294  0.00  0.00    +0.000 C 
ATOM     11  C   UNL     1      -0.911  12.841  20.801  0.00  0.00    +0.000 C 
ATOM     12  H   UNL     1       0.485   9.020  21.742  0.00  0.00    +0.000 HD
BRANCH  11  13
ATOM     13  O   UNL     1      -0.217  13.974  20.239  0.00  0.00    +0.000 OA
ATOM     14  H   UNL     1      -0.792  14.323  19.536  0.00  0.00    +0.000 HD
ENDBRANCH  11  13
ENDBRANCH   1   2
BRANCH   1  15
ATOM     15  C   UNL     1       1.938   8.441  17.722  0.00  0.00    +0.000 C 
BRANCH  15  16
ATOM     16  C   UNL     1       2.593   7.327  18.583  0.00  0.00    +0.000 C 
BRANCH  16  23
ATOM     17  C   UNL     1       1.622   4.466  18.146  0.00  0.00    +0.000 C 
ATOM     18  C   UNL     1       2.981   4.934  17.688  0.00  0.00    +0.000 A 
ATOM     19  C   UNL     1       3.800   3.961  17.071  0.00  0.00    +0.000 A 
ATOM     20  C   UNL     1       5.110   4.255  16.697  0.00  0.00    +0.000 A 
ATOM     21  C   UNL     1       5.622   5.531  16.922  0.00  0.00    +0.000 A 
ATOM     22  C   UNL     1       4.803   6.530  17.508  0.00  0.00    +0.000 A 
ATOM     23  C   UNL     1       3.456   6.265  17.879  0.00  0.00    +0.000 A 
BRANCH  21  24
ATOM     24  C   UNL     1       7.057   5.739  16.606  0.00  0.00    +0.000 C 
ATOM     25  O   UNL     1       7.591   6.843  16.629  0.00  0.00    +0.000 OA
BRANCH  24  26
ATOM     26  O   UNL     1       7.744   4.607  16.362  0.00  0.00    +0.000 OA
ATOM     27  H   UNL     1       8.706   4.673  16.494  0.00  0.00    +0.000 HD
ENDBRANCH  24  26
ENDBRANCH  21  24
ENDBRANCH  16  23
ENDBRANCH  15  16
ENDBRANCH   1  15
TORSDOF 7
ENDMDL
MODEL 6
REMARK VINA RESULT:      -7.3      4.633      8.170
REMARK  Name = 
REMARK  8 active torsions:
REMARK  status: ('A' for Active; 'I' for Inactive)
REMARK    1  A    between atoms: C_1  and  C_2
REMARK    2  A    between atoms: C_5  and  C_6
REMARK    3  A    between atoms: C_6  and  O_8
REMARK    4  A    between atoms: C_10  and  C_11
REMARK    5  A    between atoms: C_11  and  C_12
REMARK    6  A    between atoms: C_12  and  C_13
REMARK    7  A    between atoms: C_13  and  N_14
REMARK    8  A    between atoms: C_23  and  O_24
REMARK                            x       y       z     vdW  Elec       q    Type
REMARK                         _______ _______ _______ _____ _____    ______ ____
ROOT
ATOM      1  C   UNL     1       2.296   9.589  18.051  0.00  0.00    +0.000 C 
ENDROOT
BRANCH   1   2
ATOM      2  N   UNL     1       1.586  10.336  19.113  0.00  0.00    +0.000 N 
ATOM      3  C   UNL     1       0.489   9.752  19.714  0.00  0.00    +0.000 A 
ATOM      4  N   UNL     1      -0.592  10.437  19.400  0.00  0.00    +0.000 NA
ATOM      5  C   UNL     1      -0.124  11.644  18.904  0.00  0.00    +0.000 A 
ATOM      6  C   UNL     1       1.245  11.682  19.107  0.00  0.00    +0.000 A 
ATOM      7  N   UNL     1       1.971  12.692  19.663  0.00  0.00    +0.000 N 
ATOM      8  C   UNL     1       1.336  13.789  20.248  0.00  0.00    +0.000 C 
ATOM      9  N   UNL     1       0.287  14.467  19.940  0.00  0.00    +0.000 NA
ATOM     10  C   UNL     1      -0.366  14.165  18.662  0.00  0.00    +0.000 C 
ATOM     11  C   UNL     1      -1.030  12.776  18.551  0.00  0.00    +0.000 C 
ATOM     12  H   UNL     1       2.789  12.406  20.198  0.00  0.00    +0.000 HD
BRANCH  11  13
ATOM     13  O   UNL     1      -1.475  12.628  17.187  0.00  0.00    +0.000 OA
ATOM     14  H   UNL     1      -1.487  11.672  17.008  0.00  0.00    +0.000 HD
ENDBRANCH  11  13
ENDBRANCH   1   2
BRANCH   1  15
ATOM     15  C   UNL     1       2.079   8.034  18.088  0.00  0.00    +0.000 C 
BRANCH  15  16
ATOM     16  C   UNL     1       3.331   7.188  17.727  0.00  0.00    +0.000 C 
BRANCH  16  23
ATOM     17  C   UNL     1       5.305   5.347  16.302  0.00  0.00    +0.000 C 
ATOM     18  C   UNL     1       4.163   4.815  17.132  0.00  0.00    +0.000 A 
ATOM     19  C   UNL     1       4.035   3.408  17.188  0.00  0.00    +0.000 A 
ATOM     20  C   UNL     1       2.962   2.809  17.844  0.00  0.00    +0.000 A 
ATOM     21  C   UNL     1       2.002   3.604  18.466  0.00  0.00    +0.000 A 
ATOM     22  C   UNL     1       2.133   5.016  18.450  0.00  0.00    +0.000 A 
ATOM     23  C   UNL     1       3.230   5.655  17.809  0.00  0.00    +0.000 A 
BRANCH  21  24
ATOM     24  C   UNL     1       0.829   2.902  19.044  0.00  0.00    +0.000 C 
ATOM     25  O   UNL     1       0.206   2.037  18.438  0.00  0.00    +0.000 OA
BRANCH  24  26
ATOM     26  O   UNL     1       0.547   3.241  20.316  0.00  0.00    +0.000 OA
ATOM     27  H   UNL     1       0.931   2.654  20.992  0.00  0.00    +0.000 HD
ENDBRANCH  24  26
ENDBRANCH  21  24
ENDBRANCH  16  23
ENDBRANCH  15  16
ENDBRANCH   1  15
TORSDOF 7
ENDMDL
MODEL 7
REMARK VINA RESULT:      -7.2      2.295      3.343
REMARK  Name = 
REMARK  8 active torsions:
REMARK  status: ('A' for Active; 'I' for Inactive)
REMARK    1  A    between atoms: C_1  and  C_2
REMARK    2  A    between atoms: C_5  and  C_6
REMARK    3  A    between atoms: C_6  and  O_8
REMARK    4  A    between atoms: C_10  and  C_11
REMARK    5  A    between atoms: C_11  and  C_12
REMARK    6  A    between atoms: C_12  and  C_13
REMARK    7  A    between atoms: C_13  and  N_14
REMARK    8  A    between atoms: C_23  and  O_24
REMARK                            x       y       z     vdW  Elec       q    Type
REMARK                         _______ _______ _______ _____ _____    ______ ____
ROOT
ATOM      1  C   UNL     1       2.313   6.238  20.243  0.00  0.00    +0.000 C 
ENDROOT
BRANCH   1   2
ATOM      2  N   UNL     1       2.974   5.631  19.066  0.00  0.00    +0.000 N 
ATOM      3  C   UNL     1       3.139   4.261  19.032  0.00  0.00    +0.000 A 
ATOM      4  N   UNL     1       4.425   3.978  19.095  0.00  0.00    +0.000 NA
ATOM      5  C   UNL     1       5.071   5.171  18.806  0.00  0.00    +0.000 A 
ATOM      6  C   UNL     1       4.111   6.088  18.413  0.00  0.00    +0.000 A 
ATOM      7  N   UNL     1       4.132   6.885  17.309  0.00  0.00    +0.000 N 
ATOM      8  C   UNL     1       5.123   6.731  16.337  0.00  0.00    +0.000 C 
ATOM      9  N   UNL     1       6.380   6.466  16.393  0.00  0.00    +0.000 NA
ATOM     10  C   UNL     1       7.004   6.418  17.719  0.00  0.00    +0.000 C 
ATOM     11  C   UNL     1       6.552   5.265  18.641  0.00  0.00    +0.000 C 
ATOM     12  H   UNL     1       3.226   7.085  16.890  0.00  0.00    +0.000 HD
BRANCH  11  13
ATOM     13  O   UNL     1       7.166   5.487  19.928  0.00  0.00    +0.000 OA
ATOM     14  H   UNL     1       7.598   4.649  20.170  0.00  0.00    +0.000 HD
ENDBRANCH  11  13
ENDBRANCH   1   2
BRANCH   1  15
ATOM     15  C   UNL     1       1.884   7.736  20.051  0.00  0.00    +0.000 C 
BRANCH  15  16
ATOM     16  C   UNL     1       0.921   8.287  21.138  0.00  0.00    +0.000 C 
BRANCH  16  23
ATOM     17  C   UNL     1      -0.303  10.005  23.345  0.00  0.00    +0.000 C 
ATOM     18  C   UNL     1      -0.438  10.355  21.884  0.00  0.00    +0.000 A 
ATOM     19  C   UNL     1      -1.196  11.511  21.587  0.00  0.00    +0.000 A 
ATOM     20  C   UNL     1      -1.468  11.874  20.269  0.00  0.00    +0.000 A 
ATOM     21  C   UNL     1      -0.978  11.094  19.223  0.00  0.00    +0.000 A 
ATOM     22  C   UNL     1      -0.187   9.951  19.502  0.00  0.00    +0.000 A 
ATOM     23  C   UNL     1       0.127   9.569  20.836  0.00  0.00    +0.000 A 
BRANCH  21  24
ATOM     24  C   UNL     1      -1.403  11.475  17.853  0.00  0.00    +0.000 C 
ATOM     25  O   UNL     1      -2.044  10.726  17.123  0.00  0.00    +0.000 OA
BRANCH  24  26
ATOM     26  O   UNL     1      -1.092  12.737  17.503  0.00  0.00    +0.000 OA
ATOM     27  H   UNL     1      -0.138  12.936  17.489  0.00  0.00    +0.000 HD
ENDBRANCH  24  26
ENDBRANCH  21  24
ENDBRANCH  16  23
ENDBRANCH  15  16
ENDBRANCH   1  15
TORSDOF 7
ENDMDL
MODEL 8
REMARK VINA RESULT:      -7.2      4.232      8.664
REMARK  Name = 
REMARK  8 active torsions:
REMARK  status: ('A' for Active; 'I' for Inactive)
REMARK    1  A    between atoms: C_1  and  C_2
REMARK    2  A    between atoms: C_5  and  C_6
REMARK    3  A    between atoms: C_6  and  O_8
REMARK    4  A    between atoms: C_10  and  C_11
REMARK    5  A    between atoms: C_11  and  C_12
REMARK    6  A    between atoms: C_12  and  C_13
REMARK    7  A    between atoms: C_13  and  N_14
REMARK    8  A    between atoms: C_23  and  O_24
REMARK                            x       y       z     vdW  Elec       q    Type
REMARK                         _______ _______ _______ _____ _____    ______ ____
ROOT
ATOM      1  C   UNL     1       1.468   9.115  17.828  0.00  0.00    +0.000 C 
ENDROOT
BRANCH   1   2
ATOM      2  N   UNL     1       1.277  10.069  18.943  0.00  0.00    +0.000 N 
ATOM      3  C   UNL     1       0.439   9.716  19.981  0.00  0.00    +0.000 A 
ATOM      4  N   UNL     1      -0.617  10.505  19.974  0.00  0.00    +0.000 NA
ATOM      5  C   UNL     1      -0.265  11.571  19.160  0.00  0.00    +0.000 A 
ATOM      6  C   UNL     1       1.078  11.441  18.848  0.00  0.00    +0.000 A 
ATOM      7  N   UNL     1       2.045  12.395  18.940  0.00  0.00    +0.000 N 
ATOM      8  C   UNL     1       1.774  13.630  19.534  0.00  0.00    +0.000 C 
ATOM      9  N   UNL     1       0.750  14.408  19.522  0.00  0.00    +0.000 NA
ATOM     10  C   UNL     1      -0.358  14.057  18.628  0.00  0.00    +0.000 C 
ATOM     11  C   UNL     1      -1.134  12.772  18.983  0.00  0.00    +0.000 C 
ATOM     12  H   UNL     1       2.975  12.061  19.183  0.00  0.00    +0.000 HD
BRANCH  11  13
ATOM     13  O   UNL     1      -2.070  12.533  17.911  0.00  0.00    +0.000 OA
ATOM     14  H   UNL     1      -1.848  13.170  17.210  0.00  0.00    +0.000 HD
ENDBRANCH  11  13
ENDBRANCH   1   2
BRANCH   1  15
ATOM     15  C   UNL     1       2.810   8.302  17.886  0.00  0.00    +0.000 C 
BRANCH  15  16
ATOM     16  C   UNL     1       2.660   6.816  18.312  0.00  0.00    +0.000 C 
BRANCH  16  23
ATOM     17  C   UNL     1       1.919   3.854  18.294  0.00  0.00    +0.000 C 
ATOM     18  C   UNL     1       3.159   4.379  17.612  0.00  0.00    +0.000 A 
ATOM     19  C   UNL     1       3.983   3.414  16.988  0.00  0.00    +0.000 A 
ATOM     20  C   UNL     1       5.201   3.772  16.413  0.00  0.00    +0.000 A 
ATOM     21  C   UNL     1       5.612   5.103  16.440  0.00  0.00    +0.000 A 
ATOM     22  C   UNL     1       4.783   6.090  17.031  0.00  0.00    +0.000 A 
ATOM     23  C   UNL     1       3.524   5.758  17.605  0.00  0.00    +0.000 A 
BRANCH  21  24
ATOM     24  C   UNL     1       6.970   5.391  15.913  0.00  0.00    +0.000 C 
ATOM     25  O   UNL     1       7.458   4.784  14.965  0.00  0.00    +0.000 OA
BRANCH  24  26
ATOM     26  O   UNL     1       7.593   6.423  16.512  0.00  0.00    +0.000 OA
ATOM     27  H   UNL     1       8.526   6.542  16.259  0.00  0.00    +0.000 HD
ENDBRANCH  24  26
ENDBRANCH  21  24
ENDBRANCH  16  23
ENDBRANCH  15  16
ENDBRANCH   1  15
TORSDOF 7
ENDMDL
MODEL 9
REMARK VINA RESULT:      -7.2      4.319      8.206
REMARK  Name = 
REMARK  8 active torsions:
REMARK  status: ('A' for Active; 'I' for Inactive)
REMARK    1  A    between atoms: C_1  and  C_2
REMARK    2  A    between atoms: C_5  and  C_6
REMARK    3  A    between atoms: C_6  and  O_8
REMARK    4  A    between atoms: C_10  and  C_11
REMARK    5  A    between atoms: C_11  and  C_12
REMARK    6  A    between atoms: C_12  and  C_13
REMARK    7  A    between atoms: C_13  and  N_14
REMARK    8  A    between atoms: C_23  and  O_24
REMARK                            x       y       z     vdW  Elec       q    Type
REMARK                         _______ _______ _______ _____ _____    ______ ____
ROOT
ATOM      1  C   UNL     1       1.623   9.757  18.599  0.00  0.00    +0.000 C 
ENDROOT
BRANCH   1   2
ATOM      2  N   UNL     1       0.359   9.863  19.363  0.00  0.00    +0.000 N 
ATOM      3  C   UNL     1      -0.813  10.101  18.675  0.00  0.00    +0.000 A 
ATOM      4  N   UNL     1      -1.269  11.295  18.997  0.00  0.00    +0.000 NA
ATOM      5  C   UNL     1      -0.578  11.648  20.145  0.00  0.00    +0.000 A 
ATOM      6  C   UNL     1       0.154  10.547  20.554  0.00  0.00    +0.000 A 
ATOM      7  N   UNL     1       0.209  10.008  21.804  0.00  0.00    +0.000 N 
ATOM      8  C   UNL     1      -0.639  10.463  22.816  0.00  0.00    +0.000 C 
ATOM      9  N   UNL     1      -1.078  11.628  23.139  0.00  0.00    +0.000 NA
ATOM     10  C   UNL     1      -0.529  12.784  22.422  0.00  0.00    +0.000 C 
ATOM     11  C   UNL     1      -0.886  12.885  20.924  0.00  0.00    +0.000 C 
ATOM     12  H   UNL     1       0.328   8.997  21.846  0.00  0.00    +0.000 HD
BRANCH  11  13
ATOM     13  O   UNL     1      -0.135  13.992  20.384  0.00  0.00    +0.000 OA
ATOM     14  H   UNL     1      -0.132  13.872  19.418  0.00  0.00    +0.000 HD
ENDBRANCH  11  13
ENDBRANCH   1   2
BRANCH   1  15
ATOM     15  C   UNL     1       1.792   8.418  17.798  0.00  0.00    +0.000 C 
BRANCH  15  16
ATOM     16  C   UNL     1       3.104   7.639  18.091  0.00  0.00    +0.000 C 
BRANCH  16  23
ATOM     17  C   UNL     1       5.071   6.071  16.361  0.00  0.00    +0.000 C 
ATOM     18  C   UNL     1       4.009   5.393  17.191  0.00  0.00    +0.000 A 
ATOM     19  C   UNL     1       3.952   3.983  17.098  0.00  0.00    +0.000 A 
ATOM     20  C   UNL     1       2.951   3.259  17.744  0.00  0.00    +0.000 A 
ATOM     21  C   UNL     1       1.996   3.930  18.504  0.00  0.00    +0.000 A 
ATOM     22  C   UNL     1       2.058   5.340  18.637  0.00  0.00    +0.000 A 
ATOM     23  C   UNL     1       3.081   6.103  18.008  0.00  0.00    +0.000 A 
BRANCH  21  24
ATOM     24  C   UNL     1       0.895   3.108  19.066  0.00  0.00    +0.000 C 
ATOM     25  O   UNL     1       0.373   2.184  18.451  0.00  0.00    +0.000 OA
BRANCH  24  26
ATOM     26  O   UNL     1       0.564   3.412  20.335  0.00  0.00    +0.000 OA
ATOM     27  H   UNL     1       0.438   2.644  20.922  0.00  0.00    +0.000 HD
ENDBRANCH  24  26
ENDBRANCH  21  24
ENDBRANCH  16  23
ENDBRANCH  15  16
ENDBRANCH   1  15
TORSDOF 7
ENDMDL
