MODEL 1
REMARK VINA RESULT:      -7.5      0.000      0.000
REMARK  Name = 
REMARK  10 active torsions:
REMARK  status: ('A' for Active; 'I' for Inactive)
REMARK    1  A    between atoms: C_1  and  C_2
REMARK    2  A    between atoms: C_2  and  C_3
REMARK    3  A    between atoms: C_3  and  C_4
REMARK    4  A    between atoms: C_4  and  C_5
REMARK    5  A    between atoms: N_7  and  C_8
REMARK    6  A    between atoms: C_11  and  N_12
REMARK    7  A    between atoms: C_13  and  C_15
REMARK    8  A    between atoms: C_20  and  N_21
REMARK    9  A    between atoms: C_25  and  O_26
REMARK   10  A    between atoms: O_26  and  C_27
REMARK                            x       y       z     vdW  Elec       q    Type
REMARK                         _______ _______ _______ _____ _____    ______ ____
ROOT
ATOM      1  C   UNL     1       4.388   4.787  17.385  0.00  0.00    +0.000 A 
ATOM      2  C   UNL     1       2.989   4.804  17.337  0.00  0.00    +0.000 A 
ATOM      3  C   UNL     1       2.239   5.549  18.245  0.00  0.00    +0.000 A 
ATOM      4  C   UNL     1       2.866   6.325  19.213  0.00  0.00    +0.000 A 
ATOM      5  C   UNL     1       4.264   6.265  19.303  0.00  0.00    +0.000 A 
ATOM      6  C   UNL     1       5.041   5.497  18.405  0.00  0.00    +0.000 A 
ENDROOT
BRANCH   1   9
ATOM      7  C   UNL     1       5.591   4.547  15.272  0.00  0.00    +0.000 C 
ATOM      8  O   UNL     1       5.597   5.741  14.988  0.00  0.00    +0.000 OA
ATOM      9  N   UNL     1       5.047   3.994  16.422  0.00  0.00    +0.000 N 
ATOM     10  H   UNL     1       5.385   3.088  16.698  0.00  0.00    +0.000 HD
BRANCH   7  11
ATOM     11  C   UNL     1       6.225   3.528  14.351  0.00  0.00    +0.000 C 
BRANCH  11  12
ATOM     12  C   UNL     1       6.079   3.915  12.881  0.00  0.00    +0.000 C 
BRANCH  12  14
ATOM     13  C   UNL     1       4.221   3.265  11.307  0.00  0.00    +0.000 C 
ATOM     14  C   UNL     1       5.463   2.791  12.042  0.00  0.00    +0.000 C 
ENDBRANCH  12  14
ENDBRANCH  11  12
ENDBRANCH   7  11
ENDBRANCH   1   9
BRANCH   4  15
ATOM     15  N   UNL     1       2.155   7.168  20.107  0.00  0.00    +0.000 N 
ATOM     16  C   UNL     1       1.702   8.438  19.799  0.00  0.00    +0.000 C 
ATOM     17  O   UNL     1       1.887   9.013  18.728  0.00  0.00    +0.000 OA
ATOM     18  H   UNL     1       2.058   6.816  21.057  0.00  0.00    +0.000 HD
BRANCH  16  19
ATOM     19  C   UNL     1       0.929   9.237  20.796  0.00  0.00    +0.000 A 
ATOM     20  C   UNL     1       1.109   8.836  22.137  0.00  0.00    +0.000 A 
ATOM     21  C   UNL     1       0.325   9.357  23.169  0.00  0.00    +0.000 A 
ATOM     22  C   UNL     1      -0.660  10.297  22.885  0.00  0.00    +0.000 A 
ATOM     23  C   UNL     1      -0.846  10.727  21.573  0.00  0.00    +0.000 A 
ATOM     24  C   UNL     1      -0.048  10.195  20.539  0.00  0.00    +0.000 A 
BRANCH  24  25
ATOM     25  N   UNL     1      -0.319  10.667  19.206  0.00  0.00    +0.000 N 
ATOM     26  O   UNL     1      -1.172  10.044  18.553  0.00  0.00    +0.000 OA
ATOM     27  O   UNL     1       0.342  11.625  18.791  0.00  0.00    +0.000 OA
ENDBRANCH  24  25
ENDBRANCH  16  19
ENDBRANCH   4  15
BRANCH   6  28
ATOM     28  O   UNL     1       6.381   5.613  18.662  0.00  0.00    +0.000 OA
ATOM     29  C   UNL     1       7.167   6.571  17.974  0.00  0.00    +0.000 C 
ENDBRANCH   6  28
TORSDOF 8
ENDMDL
MODEL 2
REMARK VINA RESULT:      -7.3      2.153      3.214
REMARK  Name = 
REMARK  10 active torsions:
REMARK  status: ('A' for Active; 'I' for Inactive)
REMARK    1  A    between atoms: C_1  and  C_2
REMARK    2  A    between atoms: C_2  and  C_3
REMARK    3  A    between atoms: C_3  and  C_4
REMARK    4  A    between atoms: C_4  and  C_5
REMARK    5  A    between atoms: N_7  and  C_8
REMARK    6  A    between atoms: C_11  and  N_12
REMARK    7  A    between atoms: C_13  and  C_15
REMARK    8  A    between atoms: C_20  and  N_21
REMARK    9  A    between atoms: C_25  and  O_26
REMARK   10  A    between atoms: O_26  and  C_27
REMARK                            x       y       z     vdW  Elec       q    Type
REMARK                         _______ _______ _______ _____ _____    ______ ____
ROOT
ATOM      1  C   UNL     1       3.705   6.128  18.160  0.00  0.00    +0.000 A 
ATOM      2  C   UNL     1       3.449   7.392  17.616  0.00  0.00    +0.000 A 
ATOM      3  C   UNL     1       2.608   8.302  18.255  0.00  0.00    +0.000 A 
ATOM      4  C   UNL     1       2.019   7.986  19.474  0.00  0.00    +0.000 A 
ATOM      5  C   UNL     1       2.225   6.699  19.993  0.00  0.00    +0.000 A 
ATOM      6  C   UNL     1       3.057   5.755  19.348  0.00  0.00    +0.000 A 
ENDROOT
BRANCH   1   9
ATOM      7  C   UNL     1       5.946   5.421  17.490  0.00  0.00    +0.000 C 
ATOM      8  O   UNL     1       6.552   6.228  18.187  0.00  0.00    +0.000 OA
ATOM      9  N   UNL     1       4.567   5.285  17.427  0.00  0.00    +0.000 N 
ATOM     10  H   UNL     1       4.208   4.405  17.097  0.00  0.00    +0.000 HD
BRANCH   7  11
ATOM     11  C   UNL     1       6.692   4.444  16.608  0.00  0.00    +0.000 C 
BRANCH  11  12
ATOM     12  C   UNL     1       5.755   3.691  15.666  0.00  0.00    +0.000 C 
BRANCH  12  14
ATOM     13  C   UNL     1       7.186   4.851  13.945  0.00  0.00    +0.000 C 
ATOM     14  C   UNL     1       5.840   4.206  14.226  0.00  0.00    +0.000 C 
ENDBRANCH  12  14
ENDBRANCH  11  12
ENDBRANCH   7  11
ENDBRANCH   1   9
BRANCH   4  15
ATOM     15  N   UNL     1       1.223   8.904  20.208  0.00  0.00    +0.000 N 
ATOM     16  C   UNL     1       0.320   9.789  19.644  0.00  0.00    +0.000 C 
ATOM     17  O   UNL     1       0.119   9.919  18.439  0.00  0.00    +0.000 OA
ATOM     18  H   UNL     1       1.411   8.945  21.207  0.00  0.00    +0.000 HD
BRANCH  16  19
ATOM     19  C   UNL     1      -0.501  10.693  20.503  0.00  0.00    +0.000 A 
ATOM     20  C   UNL     1      -0.982  11.847  19.850  0.00  0.00    +0.000 A 
ATOM     21  C   UNL     1      -1.610  12.879  20.552  0.00  0.00    +0.000 A 
ATOM     22  C   UNL     1      -1.775  12.779  21.930  0.00  0.00    +0.000 A 
ATOM     23  C   UNL     1      -1.329  11.641  22.598  0.00  0.00    +0.000 A 
ATOM     24  C   UNL     1      -0.698  10.605  21.879  0.00  0.00    +0.000 A 
BRANCH  24  25
ATOM     25  N   UNL     1      -0.238   9.475  22.643  0.00  0.00    +0.000 N 
ATOM     26  O   UNL     1       0.692   9.678  23.440  0.00  0.00    +0.000 OA
ATOM     27  O   UNL     1      -0.768   8.381  22.423  0.00  0.00    +0.000 OA
ENDBRANCH  24  25
ENDBRANCH  16  19
ENDBRANCH   4  15
BRANCH   6  28
ATOM     28  O   UNL     1       3.135   4.582  20.049  0.00  0.00    +0.000 OA
ATOM     29  C   UNL     1       2.270   4.338  21.145  0.00  0.00    +0.000 C 
ENDBRANCH   6  28
TORSDOF 8
ENDMDL
MODEL 3
REMARK VINA RESULT:      -7.2      4.958      7.662
REMARK  Name = 
REMARK  10 active torsions:
REMARK  status: ('A' for Active; 'I' for Inactive)
REMARK    1  A    between atoms: C_1  and  C_2
REMARK    2  A    between atoms: C_2  and  C_3
REMARK    3  A    between atoms: C_3  and  C_4
REMARK    4  A    between atoms: C_4  and  C_5
REMARK    5  A    between atoms: N_7  and  C_8
REMARK    6  A    between atoms: C_11  and  N_12
REMARK    7  A    between atoms: C_13  and  C_15
REMARK    8  A    between atoms: C_20  and  N_21
REMARK    9  A    between atoms: C_25  and  O_26
REMARK   10  A    between atoms: O_26  and  C_27
REMARK                            x       y       z     vdW  Elec       q    Type
REMARK                         _______ _______ _______ _____ _____    ______ ____
ROOT
ATOM      1  C   UNL     1       6.606   5.900  18.330  0.00  0.00    +0.000 A 
ATOM      2  C   UNL     1       7.718   6.219  19.119  0.00  0.00    +0.000 A 
ATOM      3  C   UNL     1       8.458   7.379  18.897  0.00  0.00    +0.000 A 
ATOM      4  C   UNL     1       8.092   8.272  17.897  0.00  0.00    +0.000 A 
ATOM      5  C   UNL     1       7.016   7.928  17.066  0.00  0.00    +0.000 A 
ATOM      6  C   UNL     1       6.266   6.745  17.262  0.00  0.00    +0.000 A 
ENDROOT
BRANCH   1   9
ATOM      7  C   UNL     1       4.692   4.698  19.260  0.00  0.00    +0.000 C 
ATOM      8  O   UNL     1       4.047   5.696  19.566  0.00  0.00    +0.000 OA
ATOM      9  N   UNL     1       5.932   4.699  18.638  0.00  0.00    +0.000 N 
ATOM     10  H   UNL     1       6.200   3.862  18.150  0.00  0.00    +0.000 HD
BRANCH   7  11
ATOM     11  C   UNL     1       4.152   3.312  19.533  0.00  0.00    +0.000 C 
BRANCH  11  12
ATOM     12  C   UNL     1       3.609   2.649  18.269  0.00  0.00    +0.000 C 
BRANCH  12  14
ATOM     13  C   UNL     1       1.207   2.889  18.994  0.00  0.00    +0.000 C 
ATOM     14  C   UNL     1       2.216   3.165  17.894  0.00  0.00    +0.000 C 
ENDBRANCH  12  14
ENDBRANCH  11  12
ENDBRANCH   7  11
ENDBRANCH   1   9
BRANCH   4  15
ATOM     15  N   UNL     1       8.759   9.507  17.682  0.00  0.00    +0.000 N 
ATOM     16  C   UNL     1       9.217  10.339  18.689  0.00  0.00    +0.000 C 
ATOM     17  O   UNL     1       9.075  10.135  19.893  0.00  0.00    +0.000 OA
ATOM     18  H   UNL     1       8.816   9.811  16.714  0.00  0.00    +0.000 HD
BRANCH  16  19
ATOM     19  C   UNL     1       9.942  11.603  18.364  0.00  0.00    +0.000 A 
ATOM     20  C   UNL     1      11.324  11.578  18.646  0.00  0.00    +0.000 A 
ATOM     21  C   UNL     1      12.109  12.731  18.571  0.00  0.00    +0.000 A 
ATOM     22  C   UNL     1      11.528  13.942  18.208  0.00  0.00    +0.000 A 
ATOM     23  C   UNL     1      10.170  13.993  17.903  0.00  0.00    +0.000 A 
ATOM     24  C   UNL     1       9.388  12.822  17.981  0.00  0.00    +0.000 A 
BRANCH  24  25
ATOM     25  N   UNL     1       7.986  12.959  17.681  0.00  0.00    +0.000 N 
ATOM     26  O   UNL     1       7.341  13.767  18.370  0.00  0.00    +0.000 OA
ATOM     27  O   UNL     1       7.517  12.239  16.793  0.00  0.00    +0.000 OA
ENDBRANCH  24  25
ENDBRANCH  16  19
ENDBRANCH   4  15
BRANCH   6  28
ATOM     28  O   UNL     1       5.247   6.632  16.354  0.00  0.00    +0.000 OA
ATOM     29  C   UNL     1       5.334   5.709  15.282  0.00  0.00    +0.000 C 
ENDBRANCH   6  28
TORSDOF 8
ENDMDL
MODEL 4
REMARK VINA RESULT:      -7.2      1.170      1.854
REMARK  Name = 
REMARK  10 active torsions:
REMARK  status: ('A' for Active; 'I' for Inactive)
REMARK    1  A    between atoms: C_1  and  C_2
REMARK    2  A    between atoms: C_2  and  C_3
REMARK    3  A    between atoms: C_3  and  C_4
REMARK    4  A    between atoms: C_4  and  C_5
REMARK    5  A    between atoms: N_7  and  C_8
REMARK    6  A    between atoms: C_11  and  N_12
REMARK    7  A    between atoms: C_13  and  C_15
REMARK    8  A    between atoms: C_20  and  N_21
REMARK    9  A    between atoms: C_25  and  O_26
REMARK   10  A    between atoms: O_26  and  C_27
REMARK                            x       y       z     vdW  Elec       q    Type
REMARK                         _______ _______ _______ _____ _____    ______ ____
ROOT
ATOM      1  C   UNL     1       4.138   4.853  17.051  0.00  0.00    +0.000 A 
ATOM      2  C   UNL     1       4.505   6.193  17.219  0.00  0.00    +0.000 A 
ATOM      3  C   UNL     1       3.813   7.034  18.090  0.00  0.00    +0.000 A 
ATOM      4  C   UNL     1       2.749   6.551  18.842  0.00  0.00    +0.000 A 
ATOM      5  C   UNL     1       2.339   5.227  18.633  0.00  0.00    +0.000 A 
ATOM      6  C   UNL     1       3.015   4.366  17.738  0.00  0.00    +0.000 A 
ENDROOT
BRANCH   1   9
ATOM      7  C   UNL     1       5.560   4.685  15.071  0.00  0.00    +0.000 C 
ATOM      8  O   UNL     1       5.583   5.886  14.824  0.00  0.00    +0.000 OA
ATOM      9  N   UNL     1       4.903   4.094  16.140  0.00  0.00    +0.000 N 
ATOM     10  H   UNL     1       5.219   3.183  16.425  0.00  0.00    +0.000 HD
BRANCH   7  11
ATOM     11  C   UNL     1       6.298   3.699  14.193  0.00  0.00    +0.000 C 
BRANCH  11  12
ATOM     12  C   UNL     1       6.084   3.980  12.708  0.00  0.00    +0.000 C 
BRANCH  12  14
ATOM     13  C   UNL     1       4.163   3.255  11.247  0.00  0.00    +0.000 C 
ATOM     14  C   UNL     1       5.414   2.809  11.984  0.00  0.00    +0.000 C 
ENDBRANCH  12  14
ENDBRANCH  11  12
ENDBRANCH   7  11
ENDBRANCH   1   9
BRANCH   4  15
ATOM     15  N   UNL     1       2.064   7.339  19.804  0.00  0.00    +0.000 N 
ATOM     16  C   UNL     1       1.604   8.626  19.584  0.00  0.00    +0.000 C 
ATOM     17  O   UNL     1       1.761   9.263  18.544  0.00  0.00    +0.000 OA
ATOM     18  H   UNL     1       1.993   6.932  20.733  0.00  0.00    +0.000 HD
BRANCH  16  19
ATOM     19  C   UNL     1       0.860   9.364  20.647  0.00  0.00    +0.000 A 
ATOM     20  C   UNL     1       1.153   8.951  21.964  0.00  0.00    +0.000 A 
ATOM     21  C   UNL     1       0.415   9.411  23.058  0.00  0.00    +0.000 A 
ATOM     22  C   UNL     1      -0.636  10.301  22.860  0.00  0.00    +0.000 A 
ATOM     23  C   UNL     1      -0.934  10.743  21.573  0.00  0.00    +0.000 A 
ATOM     24  C   UNL     1      -0.181  10.272  20.477  0.00  0.00    +0.000 A 
BRANCH  24  25
ATOM     25  N   UNL     1      -0.568  10.751  19.175  0.00  0.00    +0.000 N 
ATOM     26  O   UNL     1      -1.385  10.061  18.543  0.00  0.00    +0.000 OA
ATOM     27  O   UNL     1      -0.032  11.785  18.762  0.00  0.00    +0.000 OA
ENDBRANCH  24  25
ENDBRANCH  16  19
ENDBRANCH   4  15
BRANCH   6  28
ATOM     28  O   UNL     1       2.461   3.113  17.720  0.00  0.00    +0.000 OA
ATOM     29  C   UNL     1       1.289   2.832  18.465  0.00  0.00    +0.000 C 
ENDBRANCH   6  28
TORSDOF 8
ENDMDL
MODEL 5
REMARK VINA RESULT:      -7.2      1.239      1.722
REMARK  Name = 
REMARK  10 active torsions:
REMARK  status: ('A' for Active; 'I' for Inactive)
REMARK    1  A    between atoms: C_1  and  C_2
REMARK    2  A    between atoms: C_2  and  C_3
REMARK    3  A    between atoms: C_3  and  C_4
REMARK    4  A    between atoms: C_4  and  C_5
REMARK    5  A    between atoms: N_7  and  C_8
REMARK    6  A    between atoms: C_11  and  N_12
REMARK    7  A    between atoms: C_13  and  C_15
REMARK    8  A    between atoms: C_20  and  N_21
REMARK    9  A    between atoms: C_25  and  O_26
REMARK   10  A    between atoms: O_26  and  C_27
REMARK                            x       y       z     vdW  Elec       q    Type
REMARK                         _______ _______ _______ _____ _____    ______ ____
ROOT
ATOM      1  C   UNL     1       4.338   5.541  17.480  0.00  0.00    +0.000 A 
ATOM      2  C   UNL     1       3.780   6.773  17.115  0.00  0.00    +0.000 A 
ATOM      3  C   UNL     1       2.967   7.491  17.991  0.00  0.00    +0.000 A 
ATOM      4  C   UNL     1       2.711   7.015  19.271  0.00  0.00    +0.000 A 
ATOM      5  C   UNL     1       3.218   5.755  19.620  0.00  0.00    +0.000 A 
ATOM      6  C   UNL     1       4.026   5.001  18.737  0.00  0.00    +0.000 A 
ENDROOT
BRANCH   1   9
ATOM      7  C   UNL     1       6.323   5.458  16.059  0.00  0.00    +0.000 C 
ATOM      8  O   UNL     1       6.810   6.513  16.451  0.00  0.00    +0.000 OA
ATOM      9  N   UNL     1       5.140   4.897  16.515  0.00  0.00    +0.000 N 
ATOM     10  H   UNL     1       5.018   3.908  16.375  0.00  0.00    +0.000 HD
BRANCH   7  11
ATOM     11  C   UNL     1       7.020   4.628  15.003  0.00  0.00    +0.000 C 
BRANCH  11  12
ATOM     12  C   UNL     1       6.033   3.810  14.173  0.00  0.00    +0.000 C 
BRANCH  12  14
ATOM     13  C   UNL     1       5.390   3.005  11.873  0.00  0.00    +0.000 C 
ATOM     14  C   UNL     1       6.438   3.732  12.697  0.00  0.00    +0.000 C 
ENDBRANCH  12  14
ENDBRANCH  11  12
ENDBRANCH   7  11
ENDBRANCH   1   9
BRANCH   4  15
ATOM     15  N   UNL     1       1.961   7.744  20.231  0.00  0.00    +0.000 N 
ATOM     16  C   UNL     1       1.402   8.991  20.010  0.00  0.00    +0.000 C 
ATOM     17  O   UNL     1       1.513   9.640  18.972  0.00  0.00    +0.000 OA
ATOM     18  H   UNL     1       1.919   7.331  21.159  0.00  0.00    +0.000 HD
BRANCH  16  19
ATOM     19  C   UNL     1       0.597   9.665  21.071  0.00  0.00    +0.000 A 
ATOM     20  C   UNL     1       0.793   9.155  22.372  0.00  0.00    +0.000 A 
ATOM     21  C   UNL     1      -0.012   9.549  23.443  0.00  0.00    +0.000 A 
ATOM     22  C   UNL     1      -1.034  10.471  23.239  0.00  0.00    +0.000 A 
ATOM     23  C   UNL     1      -1.237  11.008  21.970  0.00  0.00    +0.000 A 
ATOM     24  C   UNL     1      -0.418  10.603  20.896  0.00  0.00    +0.000 A 
BRANCH  24  25
ATOM     25  N   UNL     1      -0.707  11.179  19.609  0.00  0.00    +0.000 N 
ATOM     26  O   UNL     1      -0.156  12.260  19.341  0.00  0.00    +0.000 OA
ATOM     27  O   UNL     1      -1.510  10.585  18.882  0.00  0.00    +0.000 OA
ENDBRANCH  24  25
ENDBRANCH  16  19
ENDBRANCH   4  15
BRANCH   6  28
ATOM     28  O   UNL     1       4.432   3.821  19.301  0.00  0.00    +0.000 OA
ATOM     29  C   UNL     1       3.574   2.693  19.311  0.00  0.00    +0.000 C 
ENDBRANCH   6  28
TORSDOF 8
ENDMDL
MODEL 6
REMARK VINA RESULT:      -7.2      2.048      9.367
REMARK  Name = 
REMARK  10 active torsions:
REMARK  status: ('A' for Active; 'I' for Inactive)
REMARK    1  A    between atoms: C_1  and  C_2
REMARK    2  A    between atoms: C_2  and  C_3
REMARK    3  A    between atoms: C_3  and  C_4
REMARK    4  A    between atoms: C_4  and  C_5
REMARK    5  A    between atoms: N_7  and  C_8
REMARK    6  A    between atoms: C_11  and  N_12
REMARK    7  A    between atoms: C_13  and  C_15
REMARK    8  A    between atoms: C_20  and  N_21
REMARK    9  A    between atoms: C_25  and  O_26
REMARK   10  A    between atoms: O_26  and  C_27
REMARK                            x       y       z     vdW  Elec       q    Type
REMARK                         _______ _______ _______ _____ _____    ______ ____
ROOT
ATOM      1  C   UNL     1       0.924   8.620  20.214  0.00  0.00    +0.000 A 
ATOM      2  C   UNL     1       1.636   7.450  20.505  0.00  0.00    +0.000 A 
ATOM      3  C   UNL     1       2.579   6.932  19.618  0.00  0.00    +0.000 A 
ATOM      4  C   UNL     1       2.860   7.585  18.423  0.00  0.00    +0.000 A 
ATOM      5  C   UNL     1       2.108   8.723  18.100  0.00  0.00    +0.000 A 
ATOM      6  C   UNL     1       1.132   9.251  18.977  0.00  0.00    +0.000 A 
ENDROOT
BRANCH   1   9
ATOM      7  C   UNL     1       0.222  10.171  21.967  0.00  0.00    +0.000 C 
ATOM      8  O   UNL     1       1.202  10.906  21.892  0.00  0.00    +0.000 OA
ATOM      9  N   UNL     1      -0.009   9.052  21.180  0.00  0.00    +0.000 N 
ATOM     10  H   UNL     1      -0.961   8.738  21.099  0.00  0.00    +0.000 HD
BRANCH   7  11
ATOM     11  C   UNL     1      -0.882  10.450  22.962  0.00  0.00    +0.000 C 
BRANCH  11  12
ATOM     12  C   UNL     1      -1.282  11.924  22.977  0.00  0.00    +0.000 C 
BRANCH  12  14
ATOM     13  C   UNL     1      -3.512  12.654  22.058  0.00  0.00    +0.000 C 
ATOM     14  C   UNL     1      -2.772  12.120  23.272  0.00  0.00    +0.000 C 
ENDBRANCH  12  14
ENDBRANCH  11  12
ENDBRANCH   7  11
ENDBRANCH   1   9
BRANCH   4  15
ATOM     15  N   UNL     1       3.868   7.148  17.524  0.00  0.00    +0.000 N 
ATOM     16  C   UNL     1       4.138   5.824  17.228  0.00  0.00    +0.000 C 
ATOM     17  O   UNL     1       3.568   4.858  17.731  0.00  0.00    +0.000 OA
ATOM     18  H   UNL     1       4.467   7.880  17.150  0.00  0.00    +0.000 HD
BRANCH  16  19
ATOM     19  C   UNL     1       5.196   5.463  16.238  0.00  0.00    +0.000 A 
ATOM     20  C   UNL     1       4.767   4.603  15.205  0.00  0.00    +0.000 A 
ATOM     21  C   UNL     1       5.669   4.029  14.307  0.00  0.00    +0.000 A 
ATOM     22  C   UNL     1       7.028   4.304  14.419  0.00  0.00    +0.000 A 
ATOM     23  C   UNL     1       7.479   5.166  15.416  0.00  0.00    +0.000 A 
ATOM     24  C   UNL     1       6.558   5.741  16.316  0.00  0.00    +0.000 A 
BRANCH  24  25
ATOM     25  N   UNL     1       7.103   6.598  17.337  0.00  0.00    +0.000 N 
ATOM     26  O   UNL     1       7.071   7.820  17.120  0.00  0.00    +0.000 OA
ATOM     27  O   UNL     1       7.598   6.060  18.333  0.00  0.00    +0.000 OA
ENDBRANCH  24  25
ENDBRANCH  16  19
ENDBRANCH   4  15
BRANCH   6  28
ATOM     28  O   UNL     1       0.547  10.380  18.469  0.00  0.00    +0.000 OA
ATOM     29  C   UNL     1       1.164  11.647  18.630  0.00  0.00    +0.000 C 
ENDBRANCH   6  28
TORSDOF 8
ENDMDL
MODEL 7
REMARK VINA RESULT:      -7.2      2.134      3.521
REMARK  Name = 
REMARK  10 active torsions:
REMARK  status: ('A' for Active; 'I' for Inactive)
REMARK    1  A    between atoms: C_1  and  C_2
REMARK    2  A    between atoms: C_2  and  C_3
REMARK    3  A    between atoms: C_3  and  C_4
REMARK    4  A    between atoms: C_4  and  C_5
REMARK    5  A    between atoms: N_7  and  C_8
REMARK    6  A    between atoms: C_11  and  N_12
REMARK    7  A    between atoms: C_13  and  C_15
REMARK    8  A    between atoms: C_20  and  N_21
REMARK    9  A    between atoms: C_25  and  O_26
REMARK   10  A    between atoms: O_26  and  C_27
REMARK                            x       y       z     vdW  Elec       q    Type
REMARK                         _______ _______ _______ _____ _____    ______ ____
ROOT
ATOM      1  C   UNL     1       3.044   6.428  18.654  0.00  0.00    +0.000 A 
ATOM      2  C   UNL     1       2.880   7.631  17.956  0.00  0.00    +0.000 A 
ATOM      3  C   UNL     1       2.073   8.655  18.450  0.00  0.00    +0.000 A 
ATOM      4  C   UNL     1       1.427   8.519  19.673  0.00  0.00    +0.000 A 
ATOM      5  C   UNL     1       1.540   7.294  20.347  0.00  0.00    +0.000 A 
ATOM      6  C   UNL     1       2.336   6.236  19.851  0.00  0.00    +0.000 A 
ENDROOT
BRANCH   1   9
ATOM      7  C   UNL     1       5.127   5.153  18.583  0.00  0.00    +0.000 C 
ATOM      8  O   UNL     1       5.614   5.641  19.598  0.00  0.00    +0.000 OA
ATOM      9  N   UNL     1       3.879   5.458  18.060  0.00  0.00    +0.000 N 
ATOM     10  H   UNL     1       3.462   4.780  17.445  0.00  0.00    +0.000 HD
BRANCH   7  11
ATOM     11  C   UNL     1       5.880   4.112  17.785  0.00  0.00    +0.000 C 
BRANCH  11  12
ATOM     12  C   UNL     1       6.990   4.730  16.938  0.00  0.00    +0.000 C 
BRANCH  12  14
ATOM     13  C   UNL     1       6.160   3.906  14.705  0.00  0.00    +0.000 C 
ATOM     14  C   UNL     1       6.503   5.127  15.540  0.00  0.00    +0.000 C 
ENDBRANCH  12  14
ENDBRANCH  11  12
ENDBRANCH   7  11
ENDBRANCH   1   9
BRANCH   4  15
ATOM     15  N   UNL     1       0.662   9.560  20.262  0.00  0.00    +0.000 N 
ATOM     16  C   UNL     1       0.796   9.992  21.570  0.00  0.00    +0.000 C 
ATOM     17  O   UNL     1       1.566   9.508  22.398  0.00  0.00    +0.000 OA
ATOM     18  H   UNL     1      -0.081   9.939  19.681  0.00  0.00    +0.000 HD
BRANCH  16  19
ATOM     19  C   UNL     1      -0.030  11.121  22.090  0.00  0.00    +0.000 A 
ATOM     20  C   UNL     1      -1.096  10.733  22.928  0.00  0.00    +0.000 A 
ATOM     21  C   UNL     1      -2.067  11.645  23.349  0.00  0.00    +0.000 A 
ATOM     22  C   UNL     1      -1.993  12.974  22.943  0.00  0.00    +0.000 A 
ATOM     23  C   UNL     1      -0.938  13.390  22.133  0.00  0.00    +0.000 A 
ATOM     24  C   UNL     1       0.037  12.461  21.715  0.00  0.00    +0.000 A 
BRANCH  24  25
ATOM     25  N   UNL     1       1.078  12.960  20.856  0.00  0.00    +0.000 N 
ATOM     26  O   UNL     1       0.965  12.725  19.642  0.00  0.00    +0.000 OA
ATOM     27  O   UNL     1       2.028  13.546  21.387  0.00  0.00    +0.000 OA
ENDBRANCH  24  25
ENDBRANCH  16  19
ENDBRANCH   4  15
BRANCH   6  28
ATOM     28  O   UNL     1       2.322   5.152  20.688  0.00  0.00    +0.000 OA
ATOM     29  C   UNL     1       1.379   4.110  20.503  0.00  0.00    +0.000 C 
ENDBRANCH   6  28
TORSDOF 8
ENDMDL
MODEL 8
REMARK VINA RESULT:      -7.1      4.534      7.702
REMARK  Name = 
REMARK  10 active torsions:
REMARK  status: ('A' for Active; 'I' for Inactive)
REMARK    1  A    between atoms: C_1  and  C_2
REMARK    2  A    between atoms: C_2  and  C_3
REMARK    3  A    between atoms: C_3  and  C_4
REMARK    4  A    between atoms: C_4  and  C_5
REMARK    5  A    between atoms: N_7  and  C_8
REMARK    6  A    between atoms: C_11  and  N_12
REMARK    7  A    between atoms: C_13  and  C_15
REMARK    8  A    between atoms: C_20  and  N_21
REMARK    9  A    between atoms: C_25  and  O_26
REMARK   10  A    between atoms: O_26  and  C_27
REMARK                            x       y       z     vdW  Elec       q    Type
REMARK                         _______ _______ _______ _____ _____    ______ ____
ROOT
ATOM      1  C   UNL     1       6.210   5.454  18.003  0.00  0.00    +0.000 A 
ATOM      2  C   UNL     1       6.991   5.433  19.166  0.00  0.00    +0.000 A 
ATOM      3  C   UNL     1       7.942   6.419  19.422  0.00  0.00    +0.000 A 
ATOM      4  C   UNL     1       8.122   7.476  18.537  0.00  0.00    +0.000 A 
ATOM      5  C   UNL     1       7.385   7.470  17.343  0.00  0.00    +0.000 A 
ATOM      6  C   UNL     1       6.432   6.466  17.056  0.00  0.00    +0.000 A 
ENDROOT
BRANCH   1   9
ATOM      7  C   UNL     1       3.923   4.595  18.040  0.00  0.00    +0.000 C 
ATOM      8  O   UNL     1       3.387   5.661  18.328  0.00  0.00    +0.000 OA
ATOM      9  N   UNL     1       5.283   4.404  17.842  0.00  0.00    +0.000 N 
ATOM     10  H   UNL     1       5.558   3.601  17.302  0.00  0.00    +0.000 HD
BRANCH   7  11
ATOM     11  C   UNL     1       3.100   3.341  17.850  0.00  0.00    +0.000 C 
BRANCH  11  12
ATOM     12  C   UNL     1       1.610   3.594  18.067  0.00  0.00    +0.000 C 
BRANCH  12  14
ATOM     13  C   UNL     1       0.997   4.060  20.468  0.00  0.00    +0.000 C 
ATOM     14  C   UNL     1       1.104   3.000  19.386  0.00  0.00    +0.000 C 
ENDBRANCH  12  14
ENDBRANCH  11  12
ENDBRANCH   7  11
ENDBRANCH   1   9
BRANCH   4  15
ATOM     15  N   UNL     1       9.014   8.551  18.788  0.00  0.00    +0.000 N 
ATOM     16  C   UNL     1       8.759   9.875  18.479  0.00  0.00    +0.000 C 
ATOM     17  O   UNL     1       7.746  10.285  17.917  0.00  0.00    +0.000 OA
ATOM     18  H   UNL     1       9.928   8.285  19.147  0.00  0.00    +0.000 HD
BRANCH  16  19
ATOM     19  C   UNL     1       9.746  10.943  18.817  0.00  0.00    +0.000 A 
ATOM     20  C   UNL     1      10.701  11.200  17.810  0.00  0.00    +0.000 A 
ATOM     21  C   UNL     1      11.798  12.035  18.037  0.00  0.00    +0.000 A 
ATOM     22  C   UNL     1      11.965  12.638  19.279  0.00  0.00    +0.000 A 
ATOM     23  C   UNL     1      11.026  12.420  20.285  0.00  0.00    +0.000 A 
ATOM     24  C   UNL     1       9.922  11.576  20.044  0.00  0.00    +0.000 A 
BRANCH  24  25
ATOM     25  N   UNL     1       9.011  11.375  21.141  0.00  0.00    +0.000 N 
ATOM     26  O   UNL     1       8.951  10.230  21.619  0.00  0.00    +0.000 OA
ATOM     27  O   UNL     1       8.326  12.338  21.501  0.00  0.00    +0.000 OA
ENDBRANCH  24  25
ENDBRANCH  16  19
ENDBRANCH   4  15
BRANCH   6  28
ATOM     28  O   UNL     1       5.813   6.680  15.853  0.00  0.00    +0.000 OA
ATOM     29  C   UNL     1       5.641   5.617  14.931  0.00  0.00    +0.000 C 
ENDBRANCH   6  28
TORSDOF 8
ENDMDL
MODEL 9
REMARK VINA RESULT:      -7.1      1.577      2.152
REMARK  Name = 
REMARK  10 active torsions:
REMARK  status: ('A' for Active; 'I' for Inactive)
REMARK    1  A    between atoms: C_1  and  C_2
REMARK    2  A    between atoms: C_2  and  C_3
REMARK    3  A    between atoms: C_3  and  C_4
REMARK    4  A    between atoms: C_4  and  C_5
REMARK    5  A    between atoms: N_7  and  C_8
REMARK    6  A    between atoms: C_11  and  N_12
REMARK    7  A    between atoms: C_13  and  C_15
REMARK    8  A    between atoms: C_20  and  N_21
REMARK    9  A    between atoms: C_25  and  O_26
REMARK   10  A    between atoms: O_26  and  C_27
REMARK                            x       y       z     vdW  Elec       q    Type
REMARK                         _______ _______ _______ _____ _____    ______ ____
ROOT
ATOM      1  C   UNL     1       3.693   5.425  17.539  0.00  0.00    +0.000 A 
ATOM      2  C   UNL     1       3.750   6.809  17.334  0.00  0.00    +0.000 A 
ATOM      3  C   UNL     1       3.119   7.699  18.201  0.00  0.00    +0.000 A 
ATOM      4  C   UNL     1       2.435   7.235  19.319  0.00  0.00    +0.000 A 
ATOM      5  C   UNL     1       2.325   5.848  19.496  0.00  0.00    +0.000 A 
ATOM      6  C   UNL     1       2.939   4.928  18.615  0.00  0.00    +0.000 A 
ENDROOT
BRANCH   1   9
ATOM      7  C   UNL     1       5.739   4.450  16.626  0.00  0.00    +0.000 C 
ATOM      8  O   UNL     1       6.499   4.936  17.459  0.00  0.00    +0.000 OA
ATOM      9  N   UNL     1       4.362   4.615  16.598  0.00  0.00    +0.000 N 
ATOM     10  H   UNL     1       3.829   3.926  16.095  0.00  0.00    +0.000 HD
BRANCH   7  11
ATOM     11  C   UNL     1       6.268   3.571  15.515  0.00  0.00    +0.000 C 
BRANCH  11  12
ATOM     12  C   UNL     1       6.435   4.340  14.206  0.00  0.00    +0.000 C 
BRANCH  12  14
ATOM     13  C   UNL     1       6.741   3.336  11.915  0.00  0.00    +0.000 C 
ATOM     14  C   UNL     1       5.753   3.639  13.027  0.00  0.00    +0.000 C 
ENDBRANCH  12  14
ENDBRANCH  11  12
ENDBRANCH   7  11
ENDBRANCH   1   9
BRANCH   4  15
ATOM     15  N   UNL     1       1.847   8.100  20.279  0.00  0.00    +0.000 N 
ATOM     16  C   UNL     1       1.017   9.165  19.974  0.00  0.00    +0.000 C 
ATOM     17  O   UNL     1       0.713   9.520  18.837  0.00  0.00    +0.000 OA
ATOM     18  H   UNL     1       2.139   7.949  21.241  0.00  0.00    +0.000 HD
BRANCH  16  19
ATOM     19  C   UNL     1       0.415   9.998  21.057  0.00  0.00    +0.000 A 
ATOM     20  C   UNL     1      -0.093   9.264  22.150  0.00  0.00    +0.000 A 
ATOM     21  C   UNL     1      -0.846   9.874  23.156  0.00  0.00    +0.000 A 
ATOM     22  C   UNL     1      -1.107  11.239  23.095  0.00  0.00    +0.000 A 
ATOM     23  C   UNL     1      -0.600  11.993  22.039  0.00  0.00    +0.000 A 
ATOM     24  C   UNL     1       0.160  11.366  21.029  0.00  0.00    +0.000 A 
BRANCH  24  25
ATOM     25  N   UNL     1       0.624  12.205  19.955  0.00  0.00    +0.000 N 
ATOM     26  O   UNL     1       1.830  12.501  19.955  0.00  0.00    +0.000 OA
ATOM     27  O   UNL     1      -0.211  12.605  19.138  0.00  0.00    +0.000 OA
ENDBRANCH  24  25
ENDBRANCH  16  19
ENDBRANCH   4  15
BRANCH   6  28
ATOM     28  O   UNL     1       2.725   3.632  19.000  0.00  0.00    +0.000 OA
ATOM     29  C   UNL     1       3.517   3.041  20.016  0.00  0.00    +0.000 C 
ENDBRANCH   6  28
TORSDOF 8
ENDMDL
