MODEL 1
REMARK VINA RESULT:      -7.2      0.000      0.000
REMARK  Name = 
REMARK  9 active torsions:
REMARK  status: ('A' for Active; 'I' for Inactive)
REMARK    1  A    between atoms: C_1  and  C_2
REMARK    2  A    between atoms: N_5  and  C_6
REMARK    3  A    between atoms: C_6  and  C_7
REMARK    4  A    between atoms: C_7  and  C_8
REMARK    5  A    between atoms: C_8  and  O_10
REMARK    6  A    between atoms: O_10  and  C_11
REMARK    7  A    between atoms: C_16  and  C_17
REMARK    8  A    between atoms: C_18  and  C_19
REMARK    9  A    between atoms: C_18  and  C_20
REMARK                            x       y       z     vdW  Elec       q    Type
REMARK                         _______ _______ _______ _____ _____    ______ ____
ROOT
ATOM      1  C   UNL     1       2.404   7.294  18.607  0.00  0.00    +0.000 C 
ATOM      2  O   UNL     1       2.110   8.372  18.103  0.00  0.00    +0.000 OA
ENDROOT
BRANCH   1   3
ATOM      3  C   UNL     1       1.829   6.903  19.930  0.00  0.00    +0.000 C 
BRANCH   3   4
ATOM      4  C   UNL     1       2.558   5.650  20.444  0.00  0.00    +0.000 C 
BRANCH   4   9
ATOM      5  C   UNL     1       3.295   1.367  18.399  0.00  0.00    +0.000 C 
ATOM      6  C   UNL     1       2.397   2.110  19.394  0.00  0.00    +0.000 C 
ATOM      7  C   UNL     1       1.660   3.272  18.704  0.00  0.00    +0.000 C 
ATOM      8  C   UNL     1       0.827   4.067  19.737  0.00  0.00    +0.000 C 
ATOM      9  N   UNL     1       1.650   4.555  20.870  0.00  0.00    +0.000 NA
ATOM     10  C   UNL     1       2.315   3.411  21.540  0.00  0.00    +0.000 C 
ATOM     11  C   UNL     1       3.228   2.635  20.577  0.00  0.00    +0.000 C 
ENDBRANCH   4   9
ENDBRANCH   3   4
ENDBRANCH   1   3
BRANCH   1  12
ATOM     12  O   UNL     1       3.211   6.412  17.962  0.00  0.00    +0.000 OA
BRANCH  12  13
ATOM     13  C   UNL     1       4.536   6.642  17.645  0.00  0.00    +0.000 C 
ATOM     14  C   UNL     1       4.757   6.851  16.130  0.00  0.00    +0.000 C 
ATOM     15  C   UNL     1       5.769   5.745  15.769  0.00  0.00    +0.000 C 
ATOM     16  C   UNL     1       4.977   4.414  15.798  0.00  0.00    +0.000 C 
ATOM     17  C   UNL     1       4.777   4.164  17.300  0.00  0.00    +0.000 C 
ATOM     18  C   UNL     1       5.443   5.408  17.944  0.00  0.00    +0.000 C 
ATOM     19  C   UNL     1       5.715   5.208  19.440  0.00  0.00    +0.000 C 
ATOM     20  C   UNL     1       6.669   5.660  17.022  0.00  0.00    +0.000 C 
ATOM     21  C   UNL     1       7.726   4.516  16.965  0.00  0.00    +0.000 C 
ATOM     22  C   UNL     1       7.479   6.957  17.333  0.00  0.00    +0.000 C 
ENDBRANCH  12  13
ENDBRANCH   1  12
TORSDOF 5
ENDMDL
MODEL 2
REMARK VINA RESULT:      -6.9      2.611      6.021
REMARK  Name = 
REMARK  9 active torsions:
REMARK  status: ('A' for Active; 'I' for Inactive)
REMARK    1  A    between atoms: C_1  and  C_2
REMARK    2  A    between atoms: N_5  and  C_6
REMARK    3  A    between atoms: C_6  and  C_7
REMARK    4  A    between atoms: C_7  and  C_8
REMARK    5  A    between atoms: C_8  and  O_10
REMARK    6  A    between atoms: O_10  and  C_11
REMARK    7  A    between atoms: C_16  and  C_17
REMARK    8  A    between atoms: C_18  and  C_19
REMARK    9  A    between atoms: C_18  and  C_20
REMARK                            x       y       z     vdW  Elec       q    Type
REMARK                         _______ _______ _______ _____ _____    ______ ____
ROOT
ATOM      1  C   UNL     1       6.608   4.823  18.796  0.00  0.00    +0.000 C 
ATOM      2  O   UNL     1       6.822   5.165  19.953  0.00  0.00    +0.000 OA
ENDROOT
BRANCH   1   3
ATOM      3  C   UNL     1       7.600   5.143  17.723  0.00  0.00    +0.000 C 
BRANCH   3   4
ATOM      4  C   UNL     1       7.129   4.516  16.400  0.00  0.00    +0.000 C 
BRANCH   4   9
ATOM      5  C   UNL     1       5.552   2.720  12.235  0.00  0.00    +0.000 C 
ATOM      6  C   UNL     1       5.767   4.031  12.999  0.00  0.00    +0.000 C 
ATOM      7  C   UNL     1       7.256   4.230  13.336  0.00  0.00    +0.000 C 
ATOM      8  C   UNL     1       7.447   5.509  14.184  0.00  0.00    +0.000 C 
ATOM      9  N   UNL     1       6.618   5.501  15.414  0.00  0.00    +0.000 NA
ATOM     10  C   UNL     1       5.187   5.349  15.056  0.00  0.00    +0.000 C 
ATOM     11  C   UNL     1       4.924   4.045  14.286  0.00  0.00    +0.000 C 
ENDBRANCH   4   9
ENDBRANCH   3   4
ENDBRANCH   1   3
BRANCH   1  12
ATOM     12  O   UNL     1       5.500   4.110  18.465  0.00  0.00    +0.000 OA
BRANCH  12  13
ATOM     13  C   UNL     1       4.557   3.655  19.365  0.00  0.00    +0.000 C 
ATOM     14  C   UNL     1       4.248   2.151  19.194  0.00  0.00    +0.000 C 
ATOM     15  C   UNL     1       2.729   2.136  18.928  0.00  0.00    +0.000 C 
ATOM     16  C   UNL     1       2.541   2.669  17.486  0.00  0.00    +0.000 C 
ATOM     17  C   UNL     1       2.807   4.174  17.638  0.00  0.00    +0.000 C 
ATOM     18  C   UNL     1       3.158   4.308  19.143  0.00  0.00    +0.000 C 
ATOM     19  C   UNL     1       3.087   5.762  19.626  0.00  0.00    +0.000 C 
ATOM     20  C   UNL     1       2.198   3.285  19.814  0.00  0.00    +0.000 C 
ATOM     21  C   UNL     1       0.675   3.564  19.642  0.00  0.00    +0.000 C 
ATOM     22  C   UNL     1       2.411   3.080  21.347  0.00  0.00    +0.000 C 
ENDBRANCH  12  13
ENDBRANCH   1  12
TORSDOF 5
ENDMDL
MODEL 3
REMARK VINA RESULT:      -6.9      4.741      7.997
REMARK  Name = 
REMARK  9 active torsions:
REMARK  status: ('A' for Active; 'I' for Inactive)
REMARK    1  A    between atoms: C_1  and  C_2
REMARK    2  A    between atoms: N_5  and  C_6
REMARK    3  A    between atoms: C_6  and  C_7
REMARK    4  A    between atoms: C_7  and  C_8
REMARK    5  A    between atoms: C_8  and  O_10
REMARK    6  A    between atoms: O_10  and  C_11
REMARK    7  A    between atoms: C_16  and  C_17
REMARK    8  A    between atoms: C_18  and  C_19
REMARK    9  A    between atoms: C_18  and  C_20
REMARK                            x       y       z     vdW  Elec       q    Type
REMARK                         _______ _______ _______ _____ _____    ______ ____
ROOT
ATOM      1  C   UNL     1       7.991   8.063  17.978  0.00  0.00    +0.000 C 
ATOM      2  O   UNL     1       8.644   7.589  18.900  0.00  0.00    +0.000 OA
ENDROOT
BRANCH   1   3
ATOM      3  C   UNL     1       8.142   9.505  17.615  0.00  0.00    +0.000 C 
BRANCH   3   4
ATOM      4  C   UNL     1       9.011  10.202  18.676  0.00  0.00    +0.000 C 
BRANCH   4   9
ATOM      5  C   UNL     1       9.977  13.951  21.519  0.00  0.00    +0.000 C 
ATOM      6  C   UNL     1      10.266  13.357  20.136  0.00  0.00    +0.000 C 
ATOM      7  C   UNL     1       8.968  13.214  19.320  0.00  0.00    +0.000 C 
ATOM      8  C   UNL     1       9.260  12.533  17.963  0.00  0.00    +0.000 C 
ATOM      9  N   UNL     1       9.937  11.222  18.123  0.00  0.00    +0.000 NA
ATOM     10  C   UNL     1      11.203  11.398  18.875  0.00  0.00    +0.000 C 
ATOM     11  C   UNL     1      10.961  11.992  20.272  0.00  0.00    +0.000 C 
ENDBRANCH   4   9
ENDBRANCH   3   4
ENDBRANCH   1   3
BRANCH   1  12
ATOM     12  O   UNL     1       7.156   7.290  17.236  0.00  0.00    +0.000 OA
BRANCH  12  13
ATOM     13  C   UNL     1       6.541   6.138  17.685  0.00  0.00    +0.000 C 
ATOM     14  C   UNL     1       7.260   4.855  17.210  0.00  0.00    +0.000 C 
ATOM     15  C   UNL     1       6.157   4.102  16.439  0.00  0.00    +0.000 C 
ATOM     16  C   UNL     1       5.961   4.873  15.110  0.00  0.00    +0.000 C 
ATOM     17  C   UNL     1       5.212   6.138  15.552  0.00  0.00    +0.000 C 
ATOM     18  C   UNL     1       5.111   5.955  17.089  0.00  0.00    +0.000 C 
ATOM     19  C   UNL     1       4.072   6.893  17.716  0.00  0.00    +0.000 C 
ATOM     20  C   UNL     1       4.875   4.426  17.240  0.00  0.00    +0.000 C 
ATOM     21  C   UNL     1       3.570   3.869  16.596  0.00  0.00    +0.000 C 
ATOM     22  C   UNL     1       4.871   3.895  18.707  0.00  0.00    +0.000 C 
ENDBRANCH  12  13
ENDBRANCH   1  12
TORSDOF 5
ENDMDL
MODEL 4
REMARK VINA RESULT:      -6.8      2.468      5.795
REMARK  Name = 
REMARK  9 active torsions:
REMARK  status: ('A' for Active; 'I' for Inactive)
REMARK    1  A    between atoms: C_1  and  C_2
REMARK    2  A    between atoms: N_5  and  C_6
REMARK    3  A    between atoms: C_6  and  C_7
REMARK    4  A    between atoms: C_7  and  C_8
REMARK    5  A    between atoms: C_8  and  O_10
REMARK    6  A    between atoms: O_10  and  C_11
REMARK    7  A    between atoms: C_16  and  C_17
REMARK    8  A    between atoms: C_18  and  C_19
REMARK    9  A    between atoms: C_18  and  C_20
REMARK                            x       y       z     vdW  Elec       q    Type
REMARK                         _______ _______ _______ _____ _____    ______ ____
ROOT
ATOM      1  C   UNL     1       6.213   5.777  18.829  0.00  0.00    +0.000 C 
ATOM      2  O   UNL     1       6.875   5.389  19.785  0.00  0.00    +0.000 OA
ENDROOT
BRANCH   1   3
ATOM      3  C   UNL     1       6.859   6.578  17.743  0.00  0.00    +0.000 C 
BRANCH   3   4
ATOM      4  C   UNL     1       6.432   6.011  16.379  0.00  0.00    +0.000 C 
BRANCH   4   9
ATOM      5  C   UNL     1       4.940   3.848  12.359  0.00  0.00    +0.000 C 
ATOM      6  C   UNL     1       5.979   3.761  13.482  0.00  0.00    +0.000 C 
ATOM      7  C   UNL     1       5.293   3.592  14.850  0.00  0.00    +0.000 C 
ATOM      8  C   UNL     1       6.346   3.595  15.983  0.00  0.00    +0.000 C 
ATOM      9  N   UNL     1       7.197   4.810  15.959  0.00  0.00    +0.000 NA
ATOM     10  C   UNL     1       7.877   4.923  14.645  0.00  0.00    +0.000 C 
ATOM     11  C   UNL     1       6.871   5.014  13.486  0.00  0.00    +0.000 C 
ENDBRANCH   4   9
ENDBRANCH   3   4
ENDBRANCH   1   3
BRANCH   1  12
ATOM     12  O   UNL     1       4.900   5.454  18.704  0.00  0.00    +0.000 OA
BRANCH  12  13
ATOM     13  C   UNL     1       4.237   4.532  19.491  0.00  0.00    +0.000 C 
ATOM     14  C   UNL     1       4.468   3.077  19.027  0.00  0.00    +0.000 C 
ATOM     15  C   UNL     1       3.039   2.567  18.750  0.00  0.00    +0.000 C 
ATOM     16  C   UNL     1       2.586   3.255  17.439  0.00  0.00    +0.000 C 
ATOM     17  C   UNL     1       2.311   4.699  17.884  0.00  0.00    +0.000 C 
ATOM     18  C   UNL     1       2.686   4.669  19.389  0.00  0.00    +0.000 C 
ATOM     19  C   UNL     1       2.136   5.885  20.146  0.00  0.00    +0.000 C 
ATOM     20  C   UNL     1       2.193   3.265  19.839  0.00  0.00    +0.000 C 
ATOM     21  C   UNL     1       0.662   3.005  19.713  0.00  0.00    +0.000 C 
ATOM     22  C   UNL     1       2.560   2.870  21.304  0.00  0.00    +0.000 C 
ENDBRANCH  12  13
ENDBRANCH   1  12
TORSDOF 5
ENDMDL
MODEL 5
REMARK VINA RESULT:      -6.8      0.834      2.019
REMARK  Name = 
REMARK  9 active torsions:
REMARK  status: ('A' for Active; 'I' for Inactive)
REMARK    1  A    between atoms: C_1  and  C_2
REMARK    2  A    between atoms: N_5  and  C_6
REMARK    3  A    between atoms: C_6  and  C_7
REMARK    4  A    between atoms: C_7  and  C_8
REMARK    5  A    between atoms: C_8  and  O_10
REMARK    6  A    between atoms: O_10  and  C_11
REMARK    7  A    between atoms: C_16  and  C_17
REMARK    8  A    between atoms: C_18  and  C_19
REMARK    9  A    between atoms: C_18  and  C_20
REMARK                            x       y       z     vdW  Elec       q    Type
REMARK                         _______ _______ _______ _____ _____    ______ ____
ROOT
ATOM      1  C   UNL     1       2.795   6.999  18.726  0.00  0.00    +0.000 C 
ATOM      2  O   UNL     1       2.211   7.504  17.774  0.00  0.00    +0.000 OA
ENDROOT
BRANCH   1   3
ATOM      3  C   UNL     1       2.065   6.744  20.006  0.00  0.00    +0.000 C 
BRANCH   3   4
ATOM      4  C   UNL     1       2.658   5.498  20.683  0.00  0.00    +0.000 C 
BRANCH   4   9
ATOM      5  C   UNL     1       3.517   1.397  18.335  0.00  0.00    +0.000 C 
ATOM      6  C   UNL     1       2.529   2.078  19.289  0.00  0.00    +0.000 C 
ATOM      7  C   UNL     1       1.908   3.325  18.633  0.00  0.00    +0.000 C 
ATOM      8  C   UNL     1       0.981   4.052  19.636  0.00  0.00    +0.000 C 
ATOM      9  N   UNL     1       1.679   4.403  20.897  0.00  0.00    +0.000 NA
ATOM     10  C   UNL     1       2.231   3.178  21.526  0.00  0.00    +0.000 C 
ATOM     11  C   UNL     1       3.230   2.461  20.603  0.00  0.00    +0.000 C 
ENDBRANCH   4   9
ENDBRANCH   3   4
ENDBRANCH   1   3
BRANCH   1  12
ATOM     12  O   UNL     1       4.095   6.616  18.632  0.00  0.00    +0.000 OA
BRANCH  12  13
ATOM     13  C   UNL     1       4.559   5.594  17.828  0.00  0.00    +0.000 C 
ATOM     14  C   UNL     1       5.445   4.587  18.596  0.00  0.00    +0.000 C 
ATOM     15  C   UNL     1       6.776   4.630  17.819  0.00  0.00    +0.000 C 
ATOM     16  C   UNL     1       7.439   5.982  18.179  0.00  0.00    +0.000 C 
ATOM     17  C   UNL     1       6.598   6.999  17.394  0.00  0.00    +0.000 C 
ATOM     18  C   UNL     1       5.528   6.105  16.716  0.00  0.00    +0.000 C 
ATOM     19  C   UNL     1       4.806   6.832  15.574  0.00  0.00    +0.000 C 
ATOM     20  C   UNL     1       6.329   4.823  16.352  0.00  0.00    +0.000 C 
ATOM     21  C   UNL     1       7.508   5.016  15.352  0.00  0.00    +0.000 C 
ATOM     22  C   UNL     1       5.480   3.651  15.769  0.00  0.00    +0.000 C 
ENDBRANCH  12  13
ENDBRANCH   1  12
TORSDOF 5
ENDMDL
MODEL 6
REMARK VINA RESULT:      -6.8      0.688      1.516
REMARK  Name = 
REMARK  9 active torsions:
REMARK  status: ('A' for Active; 'I' for Inactive)
REMARK    1  A    between atoms: C_1  and  C_2
REMARK    2  A    between atoms: N_5  and  C_6
REMARK    3  A    between atoms: C_6  and  C_7
REMARK    4  A    between atoms: C_7  and  C_8
REMARK    5  A    between atoms: C_8  and  O_10
REMARK    6  A    between atoms: O_10  and  C_11
REMARK    7  A    between atoms: C_16  and  C_17
REMARK    8  A    between atoms: C_18  and  C_19
REMARK    9  A    between atoms: C_18  and  C_20
REMARK                            x       y       z     vdW  Elec       q    Type
REMARK                         _______ _______ _______ _____ _____    ______ ____
ROOT
ATOM      1  C   UNL     1       2.506   7.395  18.738  0.00  0.00    +0.000 C 
ATOM      2  O   UNL     1       1.876   8.022  17.895  0.00  0.00    +0.000 OA
ENDROOT
BRANCH   1   3
ATOM      3  C   UNL     1       1.831   6.933  19.990  0.00  0.00    +0.000 C 
BRANCH   3   4
ATOM      4  C   UNL     1       2.550   5.679  20.515  0.00  0.00    +0.000 C 
BRANCH   4   9
ATOM      5  C   UNL     1       3.048   1.353  18.489  0.00  0.00    +0.000 C 
ATOM      6  C   UNL     1       2.227   2.134  19.521  0.00  0.00    +0.000 C 
ATOM      7  C   UNL     1       1.489   3.311  18.855  0.00  0.00    +0.000 C 
ATOM      8  C   UNL     1       0.737   4.143  19.920  0.00  0.00    +0.000 C 
ATOM      9  N   UNL     1       1.633   4.618  21.003  0.00  0.00    +0.000 NA
ATOM     10  C   UNL     1       2.297   3.461  21.651  0.00  0.00    +0.000 C 
ATOM     11  C   UNL     1       3.134   2.647  20.651  0.00  0.00    +0.000 C 
ENDBRANCH   4   9
ENDBRANCH   3   4
ENDBRANCH   1   3
BRANCH   1  12
ATOM     12  O   UNL     1       3.808   7.061  18.541  0.00  0.00    +0.000 OA
BRANCH  12  13
ATOM     13  C   UNL     1       4.302   6.453  17.404  0.00  0.00    +0.000 C 
ATOM     14  C   UNL     1       3.728   5.034  17.190  0.00  0.00    +0.000 C 
ATOM     15  C   UNL     1       4.990   4.149  17.158  0.00  0.00    +0.000 C 
ATOM     16  C   UNL     1       5.499   4.074  18.619  0.00  0.00    +0.000 C 
ATOM     17  C   UNL     1       6.110   5.465  18.843  0.00  0.00    +0.000 C 
ATOM     18  C   UNL     1       5.836   6.179  17.494  0.00  0.00    +0.000 C 
ATOM     19  C   UNL     1       6.686   7.445  17.327  0.00  0.00    +0.000 C 
ATOM     20  C   UNL     1       6.037   5.042  16.453  0.00  0.00    +0.000 C 
ATOM     21  C   UNL     1       7.463   4.416  16.392  0.00  0.00    +0.000 C 
ATOM     22  C   UNL     1       5.687   5.419  14.980  0.00  0.00    +0.000 C 
ENDBRANCH  12  13
ENDBRANCH   1  12
TORSDOF 5
ENDMDL
MODEL 7
REMARK VINA RESULT:      -6.7      1.687      3.398
REMARK  Name = 
REMARK  9 active torsions:
REMARK  status: ('A' for Active; 'I' for Inactive)
REMARK    1  A    between atoms: C_1  and  C_2
REMARK    2  A    between atoms: N_5  and  C_6
REMARK    3  A    between atoms: C_6  and  C_7
REMARK    4  A    between atoms: C_7  and  C_8
REMARK    5  A    between atoms: C_8  and  O_10
REMARK    6  A    between atoms: O_10  and  C_11
REMARK    7  A    between atoms: C_16  and  C_17
REMARK    8  A    between atoms: C_18  and  C_19
REMARK    9  A    between atoms: C_18  and  C_20
REMARK                            x       y       z     vdW  Elec       q    Type
REMARK                         _______ _______ _______ _____ _____    ______ ____
ROOT
ATOM      1  C   UNL     1       3.329   3.015  17.095  0.00  0.00    +0.000 C 
ATOM      2  O   UNL     1       2.390   3.654  16.635  0.00  0.00    +0.000 OA
ENDROOT
BRANCH   1   3
ATOM      3  C   UNL     1       3.074   1.801  17.931  0.00  0.00    +0.000 C 
BRANCH   3   4
ATOM      4  C   UNL     1       3.271   2.161  19.413  0.00  0.00    +0.000 C 
BRANCH   4   9
ATOM      5  C   UNL     1       1.635   6.497  20.674  0.00  0.00    +0.000 C 
ATOM      6  C   UNL     1       1.346   4.997  20.795  0.00  0.00    +0.000 C 
ATOM      7  C   UNL     1       2.497   4.274  21.517  0.00  0.00    +0.000 C 
ATOM      8  C   UNL     1       2.235   2.750  21.553  0.00  0.00    +0.000 C 
ATOM      9  N   UNL     1       2.013   2.183  20.200  0.00  0.00    +0.000 NA
ATOM     10  C   UNL     1       0.872   2.871  19.547  0.00  0.00    +0.000 C 
ATOM     11  C   UNL     1       1.120   4.381  19.404  0.00  0.00    +0.000 C 
ENDBRANCH   4   9
ENDBRANCH   3   4
ENDBRANCH   1   3
BRANCH   1  12
ATOM     12  O   UNL     1       4.615   3.357  16.822  0.00  0.00    +0.000 OA
BRANCH  12  13
ATOM     13  C   UNL     1       5.411   4.142  17.632  0.00  0.00    +0.000 C 
ATOM     14  C   UNL     1       4.590   5.084  18.541  0.00  0.00    +0.000 C 
ATOM     15  C   UNL     1       5.110   6.483  18.155  0.00  0.00    +0.000 C 
ATOM     16  C   UNL     1       4.519   6.789  16.757  0.00  0.00    +0.000 C 
ATOM     17  C   UNL     1       5.349   5.890  15.828  0.00  0.00    +0.000 C 
ATOM     18  C   UNL     1       6.283   5.148  16.817  0.00  0.00    +0.000 C 
ATOM     19  C   UNL     1       7.466   4.480  16.105  0.00  0.00    +0.000 C 
ATOM     20  C   UNL     1       6.610   6.242  17.872  0.00  0.00    +0.000 C 
ATOM     21  C   UNL     1       7.363   7.499  17.340  0.00  0.00    +0.000 C 
ATOM     22  C   UNL     1       7.437   5.754  19.102  0.00  0.00    +0.000 C 
ENDBRANCH  12  13
ENDBRANCH   1  12
TORSDOF 5
ENDMDL
MODEL 8
REMARK VINA RESULT:      -6.6      2.774      6.196
REMARK  Name = 
REMARK  9 active torsions:
REMARK  status: ('A' for Active; 'I' for Inactive)
REMARK    1  A    between atoms: C_1  and  C_2
REMARK    2  A    between atoms: N_5  and  C_6
REMARK    3  A    between atoms: C_6  and  C_7
REMARK    4  A    between atoms: C_7  and  C_8
REMARK    5  A    between atoms: C_8  and  O_10
REMARK    6  A    between atoms: O_10  and  C_11
REMARK    7  A    between atoms: C_16  and  C_17
REMARK    8  A    between atoms: C_18  and  C_19
REMARK    9  A    between atoms: C_18  and  C_20
REMARK                            x       y       z     vdW  Elec       q    Type
REMARK                         _______ _______ _______ _____ _____    ______ ____
ROOT
ATOM      1  C   UNL     1       6.075   5.258  17.647  0.00  0.00    +0.000 C 
ATOM      2  O   UNL     1       5.768   6.411  17.926  0.00  0.00    +0.000 OA
ENDROOT
BRANCH   1   3
ATOM      3  C   UNL     1       7.421   4.959  17.068  0.00  0.00    +0.000 C 
BRANCH   3   4
ATOM      4  C   UNL     1       7.240   4.319  15.681  0.00  0.00    +0.000 C 
BRANCH   4   9
ATOM      5  C   UNL     1       5.666   2.301  11.617  0.00  0.00    +0.000 C 
ATOM      6  C   UNL     1       5.863   3.650  12.317  0.00  0.00    +0.000 C 
ATOM      7  C   UNL     1       7.351   3.890  12.633  0.00  0.00    +0.000 C 
ATOM      8  C   UNL     1       7.527   5.211  13.418  0.00  0.00    +0.000 C 
ATOM      9  N   UNL     1       6.706   5.247  14.653  0.00  0.00    +0.000 NA
ATOM     10  C   UNL     1       5.275   5.055  14.313  0.00  0.00    +0.000 C 
ATOM     11  C   UNL     1       5.029   3.712  13.608  0.00  0.00    +0.000 C 
ENDBRANCH   4   9
ENDBRANCH   3   4
ENDBRANCH   1   3
BRANCH   1  12
ATOM     12  O   UNL     1       5.231   4.224  17.899  0.00  0.00    +0.000 OA
BRANCH  12  13
ATOM     13  C   UNL     1       4.360   4.159  18.969  0.00  0.00    +0.000 C 
ATOM     14  C   UNL     1       4.478   2.833  19.753  0.00  0.00    +0.000 C 
ATOM     15  C   UNL     1       3.051   2.255  19.678  0.00  0.00    +0.000 C 
ATOM     16  C   UNL     1       2.868   1.754  18.224  0.00  0.00    +0.000 C 
ATOM     17  C   UNL     1       2.709   3.057  17.427  0.00  0.00    +0.000 C 
ATOM     18  C   UNL     1       2.866   4.146  18.521  0.00  0.00    +0.000 C 
ATOM     19  C   UNL     1       2.366   5.517  18.047  0.00  0.00    +0.000 C 
ATOM     20  C   UNL     1       2.152   3.510  19.746  0.00  0.00    +0.000 C 
ATOM     21  C   UNL     1       0.633   3.210  19.571  0.00  0.00    +0.000 C 
ATOM     22  C   UNL     1       2.263   4.321  21.075  0.00  0.00    +0.000 C 
ENDBRANCH  12  13
ENDBRANCH   1  12
TORSDOF 5
ENDMDL
MODEL 9
REMARK VINA RESULT:      -6.5      5.603      7.814
REMARK  Name = 
REMARK  9 active torsions:
REMARK  status: ('A' for Active; 'I' for Inactive)
REMARK    1  A    between atoms: C_1  and  C_2
REMARK    2  A    between atoms: N_5  and  C_6
REMARK    3  A    between atoms: C_6  and  C_7
REMARK    4  A    between atoms: C_7  and  C_8
REMARK    5  A    between atoms: C_8  and  O_10
REMARK    6  A    between atoms: O_10  and  C_11
REMARK    7  A    between atoms: C_16  and  C_17
REMARK    8  A    between atoms: C_18  and  C_19
REMARK    9  A    between atoms: C_18  and  C_20
REMARK                            x       y       z     vdW  Elec       q    Type
REMARK                         _______ _______ _______ _____ _____    ______ ____
ROOT
ATOM      1  C   UNL     1       8.691   9.633  18.374  0.00  0.00    +0.000 C 
ATOM      2  O   UNL     1       9.068   9.138  19.430  0.00  0.00    +0.000 OA
ENDROOT
BRANCH   1   3
ATOM      3  C   UNL     1       7.567   9.008  17.611  0.00  0.00    +0.000 C 
BRANCH   3   4
ATOM      4  C   UNL     1       7.824   7.497  17.486  0.00  0.00    +0.000 C 
BRANCH   4   9
ATOM      5  C   UNL     1       6.084   4.117  14.550  0.00  0.00    +0.000 C 
ATOM      6  C   UNL     1       5.924   4.725  15.948  0.00  0.00    +0.000 C 
ATOM      7  C   UNL     1       5.546   6.215  15.856  0.00  0.00    +0.000 C 
ATOM      8  C   UNL     1       5.475   6.838  17.270  0.00  0.00    +0.000 C 
ATOM      9  N   UNL     1       6.733   6.652  18.033  0.00  0.00    +0.000 NA
ATOM     10  C   UNL     1       7.049   5.206  18.140  0.00  0.00    +0.000 C 
ATOM     11  C   UNL     1       7.219   4.554  16.759  0.00  0.00    +0.000 C 
ENDBRANCH   4   9
ENDBRANCH   3   4
ENDBRANCH   1   3
BRANCH   1  12
ATOM     12  O   UNL     1       9.243  10.778  17.897  0.00  0.00    +0.000 OA
BRANCH  12  13
ATOM     13  C   UNL     1       9.275  11.981  18.575  0.00  0.00    +0.000 C 
ATOM     14  C   UNL     1       8.797  13.166  17.707  0.00  0.00    +0.000 C 
ATOM     15  C   UNL     1      10.006  14.122  17.725  0.00  0.00    +0.000 C 
ATOM     16  C   UNL     1      11.080  13.472  16.818  0.00  0.00    +0.000 C 
ATOM     17  C   UNL     1      11.599  12.310  17.678  0.00  0.00    +0.000 C 
ATOM     18  C   UNL     1      10.725  12.413  18.955  0.00  0.00    +0.000 C 
ATOM     19  C   UNL     1      11.309  11.607  20.122  0.00  0.00    +0.000 C 
ATOM     20  C   UNL     1      10.579  13.949  19.150  0.00  0.00    +0.000 C 
ATOM     21  C   UNL     1      11.902  14.734  19.400  0.00  0.00    +0.000 C 
ATOM     22  C   UNL     1       9.616  14.384  20.298  0.00  0.00    +0.000 C 
ENDBRANCH  12  13
ENDBRANCH   1  12
TORSDOF 5
ENDMDL
