MODEL 1
REMARK VINA RESULT:      -6.6      0.000      0.000
REMARK  Name = 
REMARK  14 active torsions:
REMARK  status: ('A' for Active; 'I' for Inactive)
REMARK    1  A    between atoms: C_1  and  C_2
REMARK    2  A    between atoms: C_2  and  C_3
REMARK    3  A    between atoms: C_3  and  S_4
REMARK    4  A    between atoms: S_4  and  C_5
REMARK    5  A    between atoms: N_8  and  C_9
REMARK    6  A    between atoms: C_11  and  O_12
REMARK    7  A    between atoms: O_12  and  C_13
REMARK    8  A    between atoms: C_14  and  O_15
REMARK    9  A    between atoms: O_15  and  C_16
REMARK   10  A    between atoms: C_17  and  O_18
REMARK   11  A    between atoms: O_18  and  C_19
REMARK   12  A    between atoms: N_24  and  C_25
REMARK   13  A    between atoms: C_25  and  C_26
REMARK   14  A    between atoms: C_26  and  O_27
REMARK                            x       y       z     vdW  Elec       q    Type
REMARK                         _______ _______ _______ _____ _____    ______ ____
ROOT
ATOM      1  C   UNL     1       4.243   5.752  17.242  0.00  0.00    +0.000 A 
ATOM      2  N   UNL     1       3.872   7.055  17.270  0.00  0.00    +0.000 NA
ATOM      3  C   UNL     1       3.034   7.484  18.246  0.00  0.00    +0.000 A 
ATOM      4  N   UNL     1       2.633   8.826  18.246  0.00  0.00    +0.000 N 
ATOM      5  C   UNL     1       2.655   6.575  19.232  0.00  0.00    +0.000 A 
ATOM      6  N   UNL     1       1.875   6.678  20.356  0.00  0.00    +0.000 NA
ATOM      7  N   UNL     1       1.819   5.486  20.934  0.00  0.00    +0.000 NA
ATOM      8  N   UNL     1       2.565   4.643  20.182  0.00  0.00    +0.000 N 
ATOM      9  C   UNL     1       3.114   5.277  19.104  0.00  0.00    +0.000 A 
ATOM     10  N   UNL     1       3.904   4.792  18.135  0.00  0.00    +0.000 NA
ATOM     11  H   UNL     1       3.152   9.401  17.596  0.00  0.00    +0.000 HD
ENDROOT
BRANCH   4  12
ATOM     12  C   UNL     1       1.409   9.356  18.686  0.00  0.00    +0.000 A 
ATOM     13  C   UNL     1       0.484   9.768  17.739  0.00  0.00    +0.000 A 
ATOM     14  C   UNL     1      -0.730  10.362  18.111  0.00  0.00    +0.000 A 
ATOM     15  C   UNL     1      -1.060  10.500  19.484  0.00  0.00    +0.000 A 
ATOM     16  C   UNL     1      -0.115  10.105  20.457  0.00  0.00    +0.000 A 
ATOM     17  C   UNL     1       1.101   9.544  20.036  0.00  0.00    +0.000 A 
BRANCH  14  18
ATOM     18  O   UNL     1      -1.643  10.780  17.166  0.00  0.00    +0.000 OA
ATOM     19  C   UNL     1      -2.366   9.742  16.500  0.00  0.00    +0.000 C 
ENDBRANCH  14  18
BRANCH  15  20
ATOM     20  O   UNL     1      -2.274  11.093  19.747  0.00  0.00    +0.000 OA
ATOM     21  C   UNL     1      -2.295  12.498  20.001  0.00  0.00    +0.000 C 
ENDBRANCH  15  20
BRANCH  16  22
ATOM     22  O   UNL     1      -0.398  10.310  21.784  0.00  0.00    +0.000 OA
ATOM     23  C   UNL     1       0.239   9.483  22.751  0.00  0.00    +0.000 C 
ENDBRANCH  16  22
ENDBRANCH   4  12
BRANCH   1  24
ATOM     24  S   UNL     1       5.251   5.250  15.862  0.00  0.00    +0.000 S 
BRANCH  24  25
ATOM     25  C   UNL     1       6.830   5.005  16.741  0.00  0.00    +0.000 C 
BRANCH  25  27
ATOM     26  C   UNL     1       7.774   6.095  18.814  0.00  0.00    +0.000 C 
ATOM     27  C   UNL     1       7.279   6.314  17.390  0.00  0.00    +0.000 C 
ENDBRANCH  25  27
ENDBRANCH  24  25
ENDBRANCH   1  24
BRANCH   8  28
ATOM     28  C   UNL     1       2.694   3.257  20.569  0.00  0.00    +0.000 C 
BRANCH  28  29
ATOM     29  C   UNL     1       1.616   2.356  19.974  0.00  0.00    +0.000 C 
BRANCH  29  30
ATOM     30  O   UNL     1       0.338   2.987  20.008  0.00  0.00    +0.000 OA
ATOM     31  H   UNL     1       0.489   3.932  19.808  0.00  0.00    +0.000 HD
ENDBRANCH  29  30
ENDBRANCH  28  29
ENDBRANCH   8  28
TORSDOF 10
ENDMDL
MODEL 2
REMARK VINA RESULT:      -6.5      0.789      2.385
REMARK  Name = 
REMARK  14 active torsions:
REMARK  status: ('A' for Active; 'I' for Inactive)
REMARK    1  A    between atoms: C_1  and  C_2
REMARK    2  A    between atoms: C_2  and  C_3
REMARK    3  A    between atoms: C_3  and  S_4
REMARK    4  A    between atoms: S_4  and  C_5
REMARK    5  A    between atoms: N_8  and  C_9
REMARK    6  A    between atoms: C_11  and  O_12
REMARK    7  A    between atoms: O_12  and  C_13
REMARK    8  A    between atoms: C_14  and  O_15
REMARK    9  A    between atoms: O_15  and  C_16
REMARK   10  A    between atoms: C_17  and  O_18
REMARK   11  A    between atoms: O_18  and  C_19
REMARK   12  A    between atoms: N_24  and  C_25
REMARK   13  A    between atoms: C_25  and  C_26
REMARK   14  A    between atoms: C_26  and  O_27
REMARK                            x       y       z     vdW  Elec       q    Type
REMARK                         _______ _______ _______ _____ _____    ______ ____
ROOT
ATOM      1  C   UNL     1       4.178   5.237  17.215  0.00  0.00    +0.000 A 
ATOM      2  N   UNL     1       3.970   6.575  17.248  0.00  0.00    +0.000 NA
ATOM      3  C   UNL     1       3.135   7.094  18.182  0.00  0.00    +0.000 A 
ATOM      4  N   UNL     1       2.903   8.475  18.185  0.00  0.00    +0.000 N 
ATOM      5  C   UNL     1       2.588   6.227  19.127  0.00  0.00    +0.000 A 
ATOM      6  N   UNL     1       1.762   6.412  20.207  0.00  0.00    +0.000 NA
ATOM      7  N   UNL     1       1.526   5.230  20.757  0.00  0.00    +0.000 NA
ATOM      8  N   UNL     1       2.205   4.310  20.033  0.00  0.00    +0.000 N 
ATOM      9  C   UNL     1       2.891   4.884  19.000  0.00  0.00    +0.000 A 
ATOM     10  N   UNL     1       3.671   4.316  18.069  0.00  0.00    +0.000 NA
ATOM     11  H   UNL     1       3.526   8.989  17.577  0.00  0.00    +0.000 HD
ENDROOT
BRANCH   4  12
ATOM     12  C   UNL     1       1.729   9.148  18.564  0.00  0.00    +0.000 A 
ATOM     13  C   UNL     1       1.563   9.499  19.896  0.00  0.00    +0.000 A 
ATOM     14  C   UNL     1       0.389  10.116  20.348  0.00  0.00    +0.000 A 
ATOM     15  C   UNL     1      -0.639  10.447  19.428  0.00  0.00    +0.000 A 
ATOM     16  C   UNL     1      -0.490  10.072  18.074  0.00  0.00    +0.000 A 
ATOM     17  C   UNL     1       0.691   9.428  17.672  0.00  0.00    +0.000 A 
BRANCH  14  18
ATOM     18  O   UNL     1       0.224  10.455  21.675  0.00  0.00    +0.000 OA
ATOM     19  C   UNL     1      -0.157   9.386  22.545  0.00  0.00    +0.000 C 
ENDBRANCH  14  18
BRANCH  15  20
ATOM     20  O   UNL     1      -1.750  11.053  19.970  0.00  0.00    +0.000 OA
ATOM     21  C   UNL     1      -1.867  12.471  19.852  0.00  0.00    +0.000 C 
ENDBRANCH  15  20
BRANCH  16  22
ATOM     22  O   UNL     1      -1.516  10.321  17.197  0.00  0.00    +0.000 OA
ATOM     23  C   UNL     1      -2.772   9.691  17.423  0.00  0.00    +0.000 C 
ENDBRANCH  16  22
ENDBRANCH   4  12
BRANCH   1  24
ATOM     24  S   UNL     1       5.196   4.631  15.887  0.00  0.00    +0.000 S 
BRANCH  24  25
ATOM     25  C   UNL     1       6.765   5.443  16.339  0.00  0.00    +0.000 C 
BRANCH  25  27
ATOM     26  C   UNL     1       7.676   5.599  18.690  0.00  0.00    +0.000 C 
ATOM     27  C   UNL     1       7.433   4.691  17.490  0.00  0.00    +0.000 C 
ENDBRANCH  25  27
ENDBRANCH  24  25
ENDBRANCH   1  24
BRANCH   8  28
ATOM     28  C   UNL     1       2.140   2.914  20.400  0.00  0.00    +0.000 C 
BRANCH  28  29
ATOM     29  C   UNL     1       1.381   2.055  19.391  0.00  0.00    +0.000 C 
BRANCH  29  30
ATOM     30  O   UNL     1       2.248   1.573  18.368  0.00  0.00    +0.000 OA
ATOM     31  H   UNL     1       1.686   1.083  17.735  0.00  0.00    +0.000 HD
ENDBRANCH  29  30
ENDBRANCH  28  29
ENDBRANCH   8  28
TORSDOF 10
ENDMDL
MODEL 3
REMARK VINA RESULT:      -6.4      1.577      2.586
REMARK  Name = 
REMARK  14 active torsions:
REMARK  status: ('A' for Active; 'I' for Inactive)
REMARK    1  A    between atoms: C_1  and  C_2
REMARK    2  A    between atoms: C_2  and  C_3
REMARK    3  A    between atoms: C_3  and  S_4
REMARK    4  A    between atoms: S_4  and  C_5
REMARK    5  A    between atoms: N_8  and  C_9
REMARK    6  A    between atoms: C_11  and  O_12
REMARK    7  A    between atoms: O_12  and  C_13
REMARK    8  A    between atoms: C_14  and  O_15
REMARK    9  A    between atoms: O_15  and  C_16
REMARK   10  A    between atoms: C_17  and  O_18
REMARK   11  A    between atoms: O_18  and  C_19
REMARK   12  A    between atoms: N_24  and  C_25
REMARK   13  A    between atoms: C_25  and  C_26
REMARK   14  A    between atoms: C_26  and  O_27
REMARK                            x       y       z     vdW  Elec       q    Type
REMARK                         _______ _______ _______ _____ _____    ______ ____
ROOT
ATOM      1  C   UNL     1       3.814   5.284  17.525  0.00  0.00    +0.000 A 
ATOM      2  N   UNL     1       3.692   6.595  17.203  0.00  0.00    +0.000 NA
ATOM      3  C   UNL     1       2.996   7.417  18.026  0.00  0.00    +0.000 A 
ATOM      4  N   UNL     1       2.850   8.763  17.667  0.00  0.00    +0.000 N 
ATOM      5  C   UNL     1       2.504   6.889  19.218  0.00  0.00    +0.000 A 
ATOM      6  N   UNL     1       1.812   7.431  20.273  0.00  0.00    +0.000 NA
ATOM      7  N   UNL     1       1.566   6.466  21.147  0.00  0.00    +0.000 NA
ATOM      8  N   UNL     1       2.105   5.329  20.650  0.00  0.00    +0.000 N 
ATOM      9  C   UNL     1       2.709   5.541  19.443  0.00  0.00    +0.000 A 
ATOM     10  N   UNL     1       3.347   4.676  18.642  0.00  0.00    +0.000 NA
ATOM     11  H   UNL     1       3.433   9.037  16.888  0.00  0.00    +0.000 HD
ENDROOT
BRANCH   4  12
ATOM     12  C   UNL     1       1.767   9.614  17.946  0.00  0.00    +0.000 A 
ATOM     13  C   UNL     1       2.019  10.838  18.546  0.00  0.00    +0.000 A 
ATOM     14  C   UNL     1       0.979  11.705  18.906  0.00  0.00    +0.000 A 
ATOM     15  C   UNL     1      -0.365  11.363  18.605  0.00  0.00    +0.000 A 
ATOM     16  C   UNL     1      -0.635  10.108  18.015  0.00  0.00    +0.000 A 
ATOM     17  C   UNL     1       0.438   9.259  17.700  0.00  0.00    +0.000 A 
BRANCH  14  18
ATOM     18  O   UNL     1       1.233  12.917  19.512  0.00  0.00    +0.000 OA
ATOM     19  C   UNL     1       1.756  13.939  18.660  0.00  0.00    +0.000 C 
ENDBRANCH  14  18
BRANCH  15  20
ATOM     20  O   UNL     1      -1.314  12.281  18.996  0.00  0.00    +0.000 OA
ATOM     21  C   UNL     1      -1.919  12.116  20.278  0.00  0.00    +0.000 C 
ENDBRANCH  15  20
BRANCH  16  22
ATOM     22  O   UNL     1      -1.939   9.742  17.794  0.00  0.00    +0.000 OA
ATOM     23  C   UNL     1      -2.510   9.996  16.516  0.00  0.00    +0.000 C 
ENDBRANCH  16  22
ENDBRANCH   4  12
BRANCH   1  24
ATOM     24  S   UNL     1       4.643   4.255  16.332  0.00  0.00    +0.000 S 
BRANCH  24  25
ATOM     25  C   UNL     1       6.369   4.615  16.799  0.00  0.00    +0.000 C 
BRANCH  25  27
ATOM     26  C   UNL     1       6.523   4.360  14.291  0.00  0.00    +0.000 C 
ATOM     27  C   UNL     1       7.208   4.880  15.549  0.00  0.00    +0.000 C 
ENDBRANCH  25  27
ENDBRANCH  24  25
ENDBRANCH   1  24
BRANCH   8  28
ATOM     28  C   UNL     1       1.996   4.095  21.394  0.00  0.00    +0.000 C 
BRANCH  28  29
ATOM     29  C   UNL     1       1.067   3.073  20.744  0.00  0.00    +0.000 C 
BRANCH  29  30
ATOM     30  O   UNL     1       1.789   2.188  19.892  0.00  0.00    +0.000 OA
ATOM     31  H   UNL     1       2.724   2.227  20.177  0.00  0.00    +0.000 HD
ENDBRANCH  29  30
ENDBRANCH  28  29
ENDBRANCH   8  28
TORSDOF 10
ENDMDL
MODEL 4
REMARK VINA RESULT:      -6.3      1.503      1.653
REMARK  Name = 
REMARK  14 active torsions:
REMARK  status: ('A' for Active; 'I' for Inactive)
REMARK    1  A    between atoms: C_1  and  C_2
REMARK    2  A    between atoms: C_2  and  C_3
REMARK    3  A    between atoms: C_3  and  S_4
REMARK    4  A    between atoms: S_4  and  C_5
REMARK    5  A    between atoms: N_8  and  C_9
REMARK    6  A    between atoms: C_11  and  O_12
REMARK    7  A    between atoms: O_12  and  C_13
REMARK    8  A    between atoms: C_14  and  O_15
REMARK    9  A    between atoms: O_15  and  C_16
REMARK   10  A    between atoms: C_17  and  O_18
REMARK   11  A    between atoms: O_18  and  C_19
REMARK   12  A    between atoms: N_24  and  C_25
REMARK   13  A    between atoms: C_25  and  C_26
REMARK   14  A    between atoms: C_26  and  O_27
REMARK                            x       y       z     vdW  Elec       q    Type
REMARK                         _______ _______ _______ _____ _____    ______ ____
ROOT
ATOM      1  C   UNL     1       3.913   6.060  17.591  0.00  0.00    +0.000 A 
ATOM      2  N   UNL     1       3.676   7.375  17.368  0.00  0.00    +0.000 NA
ATOM      3  C   UNL     1       2.849   8.051  18.204  0.00  0.00    +0.000 A 
ATOM      4  N   UNL     1       2.586   9.402  17.945  0.00  0.00    +0.000 N 
ATOM      5  C   UNL     1       2.341   7.375  19.312  0.00  0.00    +0.000 A 
ATOM      6  N   UNL     1       1.533   7.752  20.356  0.00  0.00    +0.000 NA
ATOM      7  N   UNL     1       1.335   6.695  21.130  0.00  0.00    +0.000 NA
ATOM      8  N   UNL     1       2.019   5.664  20.583  0.00  0.00    +0.000 N 
ATOM      9  C   UNL     1       2.671   6.039  19.442  0.00  0.00    +0.000 A 
ATOM     10  N   UNL     1       3.444   5.314  18.620  0.00  0.00    +0.000 NA
ATOM     11  H   UNL     1       3.186   9.798  17.234  0.00  0.00    +0.000 HD
ENDROOT
BRANCH   4  12
ATOM     12  C   UNL     1       1.406  10.115  18.215  0.00  0.00    +0.000 A 
ATOM     13  C   UNL     1       0.197   9.585  17.788  0.00  0.00    +0.000 A 
ATOM     14  C   UNL     1      -1.009  10.275  17.971  0.00  0.00    +0.000 A 
ATOM     15  C   UNL     1      -1.018  11.518  18.656  0.00  0.00    +0.000 A 
ATOM     16  C   UNL     1       0.211  12.077  19.073  0.00  0.00    +0.000 A 
ATOM     17  C   UNL     1       1.397  11.364  18.841  0.00  0.00    +0.000 A 
BRANCH  14  18
ATOM     18  O   UNL     1      -2.208   9.750  17.537  0.00  0.00    +0.000 OA
ATOM     19  C   UNL     1      -2.497   9.930  16.148  0.00  0.00    +0.000 C 
ENDBRANCH  14  18
BRANCH  15  20
ATOM     20  O   UNL     1      -2.251  12.116  18.787  0.00  0.00    +0.000 OA
ATOM     21  C   UNL     1      -2.795  12.253  20.100  0.00  0.00    +0.000 C 
ENDBRANCH  15  20
BRANCH  16  22
ATOM     22  O   UNL     1       0.213  13.315  19.665  0.00  0.00    +0.000 OA
ATOM     23  C   UNL     1       1.459  13.878  20.061  0.00  0.00    +0.000 C 
ENDBRANCH  16  22
ENDBRANCH   4  12
BRANCH   1  24
ATOM     24  S   UNL     1       4.917   5.225  16.381  0.00  0.00    +0.000 S 
BRANCH  24  25
ATOM     25  C   UNL     1       6.296   4.718  17.461  0.00  0.00    +0.000 C 
BRANCH  25  27
ATOM     26  C   UNL     1       7.451   6.961  17.344  0.00  0.00    +0.000 C 
ATOM     27  C   UNL     1       6.813   5.918  18.253  0.00  0.00    +0.000 C 
ENDBRANCH  25  27
ENDBRANCH  24  25
ENDBRANCH   1  24
BRANCH   8  28
ATOM     28  C   UNL     1       1.992   4.365  21.215  0.00  0.00    +0.000 C 
BRANCH  28  29
ATOM     29  C   UNL     1       1.102   3.356  20.494  0.00  0.00    +0.000 C 
BRANCH  29  30
ATOM     30  O   UNL     1       1.829   2.651  19.490  0.00  0.00    +0.000 OA
ATOM     31  H   UNL     1       2.618   2.276  19.929  0.00  0.00    +0.000 HD
ENDBRANCH  29  30
ENDBRANCH  28  29
ENDBRANCH   8  28
TORSDOF 10
ENDMDL
MODEL 5
REMARK VINA RESULT:      -6.3      0.711      2.425
REMARK  Name = 
REMARK  14 active torsions:
REMARK  status: ('A' for Active; 'I' for Inactive)
REMARK    1  A    between atoms: C_1  and  C_2
REMARK    2  A    between atoms: C_2  and  C_3
REMARK    3  A    between atoms: C_3  and  S_4
REMARK    4  A    between atoms: S_4  and  C_5
REMARK    5  A    between atoms: N_8  and  C_9
REMARK    6  A    between atoms: C_11  and  O_12
REMARK    7  A    between atoms: O_12  and  C_13
REMARK    8  A    between atoms: C_14  and  O_15
REMARK    9  A    between atoms: O_15  and  C_16
REMARK   10  A    between atoms: C_17  and  O_18
REMARK   11  A    between atoms: O_18  and  C_19
REMARK   12  A    between atoms: N_24  and  C_25
REMARK   13  A    between atoms: C_25  and  C_26
REMARK   14  A    between atoms: C_26  and  O_27
REMARK                            x       y       z     vdW  Elec       q    Type
REMARK                         _______ _______ _______ _____ _____    ______ ____
ROOT
ATOM      1  C   UNL     1       4.135   5.613  17.128  0.00  0.00    +0.000 A 
ATOM      2  N   UNL     1       3.916   6.942  17.271  0.00  0.00    +0.000 NA
ATOM      3  C   UNL     1       3.044   7.373  18.216  0.00  0.00    +0.000 A 
ATOM      4  N   UNL     1       2.802   8.748  18.332  0.00  0.00    +0.000 N 
ATOM      5  C   UNL     1       2.469   6.425  19.060  0.00  0.00    +0.000 A 
ATOM      6  N   UNL     1       1.603   6.511  20.121  0.00  0.00    +0.000 NA
ATOM      7  N   UNL     1       1.355   5.284  20.555  0.00  0.00    +0.000 NA
ATOM      8  N   UNL     1       2.067   4.433  19.779  0.00  0.00    +0.000 N 
ATOM      9  C   UNL     1       2.786   5.099  18.827  0.00  0.00    +0.000 A 
ATOM     10  N   UNL     1       3.603   4.618  17.879  0.00  0.00    +0.000 NA
ATOM     11  H   UNL     1       3.444   9.315  17.795  0.00  0.00    +0.000 HD
ENDROOT
BRANCH   4  12
ATOM     12  C   UNL     1       1.611   9.380  18.725  0.00  0.00    +0.000 A 
ATOM     13  C   UNL     1       1.401   9.625  20.074  0.00  0.00    +0.000 A 
ATOM     14  C   UNL     1       0.208  10.196  20.536  0.00  0.00    +0.000 A 
ATOM     15  C   UNL     1      -0.795  10.591  19.613  0.00  0.00    +0.000 A 
ATOM     16  C   UNL     1      -0.601  10.324  18.239  0.00  0.00    +0.000 A 
ATOM     17  C   UNL     1       0.597   9.721  17.825  0.00  0.00    +0.000 A 
BRANCH  14  18
ATOM     18  O   UNL     1      -0.001  10.429  21.880  0.00  0.00    +0.000 OA
ATOM     19  C   UNL     1      -0.325   9.280  22.665  0.00  0.00    +0.000 C 
ENDBRANCH  14  18
BRANCH  15  20
ATOM     20  O   UNL     1      -1.928  11.144  20.165  0.00  0.00    +0.000 OA
ATOM     21  C   UNL     1      -2.068  12.564  20.130  0.00  0.00    +0.000 C 
ENDBRANCH  15  20
BRANCH  16  22
ATOM     22  O   UNL     1      -1.602  10.632  17.353  0.00  0.00    +0.000 OA
ATOM     23  C   UNL     1      -2.351   9.568  16.776  0.00  0.00    +0.000 C 
ENDBRANCH  16  22
ENDBRANCH   4  12
BRANCH   1  24
ATOM     24  S   UNL     1       5.204   5.130  15.790  0.00  0.00    +0.000 S 
BRANCH  24  25
ATOM     25  C   UNL     1       6.720   4.795  16.746  0.00  0.00    +0.000 C 
BRANCH  25  27
ATOM     26  C   UNL     1       7.704   6.045  18.709  0.00  0.00    +0.000 C 
ATOM     27  C   UNL     1       7.337   6.107  17.231  0.00  0.00    +0.000 C 
ENDBRANCH  25  27
ENDBRANCH  24  25
ENDBRANCH   1  24
BRANCH   8  28
ATOM     28  C   UNL     1       1.998   3.010  20.019  0.00  0.00    +0.000 C 
BRANCH  28  29
ATOM     29  C   UNL     1       2.748   2.568  21.273  0.00  0.00    +0.000 C 
BRANCH  29  30
ATOM     30  O   UNL     1       2.319   3.302  22.417  0.00  0.00    +0.000 OA
ATOM     31  H   UNL     1       2.500   4.244  22.228  0.00  0.00    +0.000 HD
ENDBRANCH  29  30
ENDBRANCH  28  29
ENDBRANCH   8  28
TORSDOF 10
ENDMDL
MODEL 6
REMARK VINA RESULT:      -6.3      3.346      8.362
REMARK  Name = 
REMARK  14 active torsions:
REMARK  status: ('A' for Active; 'I' for Inactive)
REMARK    1  A    between atoms: C_1  and  C_2
REMARK    2  A    between atoms: C_2  and  C_3
REMARK    3  A    between atoms: C_3  and  S_4
REMARK    4  A    between atoms: S_4  and  C_5
REMARK    5  A    between atoms: N_8  and  C_9
REMARK    6  A    between atoms: C_11  and  O_12
REMARK    7  A    between atoms: O_12  and  C_13
REMARK    8  A    between atoms: C_14  and  O_15
REMARK    9  A    between atoms: O_15  and  C_16
REMARK   10  A    between atoms: C_17  and  O_18
REMARK   11  A    between atoms: O_18  and  C_19
REMARK   12  A    between atoms: N_24  and  C_25
REMARK   13  A    between atoms: C_25  and  C_26
REMARK   14  A    between atoms: C_26  and  O_27
REMARK                            x       y       z     vdW  Elec       q    Type
REMARK                         _______ _______ _______ _____ _____    ______ ____
ROOT
ATOM      1  C   UNL     1      -0.717  10.803  21.808  0.00  0.00    +0.000 A 
ATOM      2  N   UNL     1       0.223   9.847  22.002  0.00  0.00    +0.000 NA
ATOM      3  C   UNL     1       0.739   9.199  20.928  0.00  0.00    +0.000 A 
ATOM      4  N   UNL     1       1.688   8.191  21.143  0.00  0.00    +0.000 N 
ATOM      5  C   UNL     1       0.335   9.606  19.658  0.00  0.00    +0.000 A 
ATOM      6  N   UNL     1       0.677   9.209  18.390  0.00  0.00    +0.000 NA
ATOM      7  N   UNL     1      -0.037   9.918  17.527  0.00  0.00    +0.000 NA
ATOM      8  N   UNL     1      -0.815  10.759  18.247  0.00  0.00    +0.000 N 
ATOM      9  C   UNL     1      -0.617  10.606  19.590  0.00  0.00    +0.000 A 
ATOM     10  N   UNL     1      -1.193  11.245  20.619  0.00  0.00    +0.000 NA
ATOM     11  H   UNL     1       2.028   8.155  22.095  0.00  0.00    +0.000 HD
ENDROOT
BRANCH   4  12
ATOM     12  C   UNL     1       1.899   7.032  20.377  0.00  0.00    +0.000 A 
ATOM     13  C   UNL     1       1.319   5.843  20.794  0.00  0.00    +0.000 A 
ATOM     14  C   UNL     1       1.541   4.642  20.109  0.00  0.00    +0.000 A 
ATOM     15  C   UNL     1       2.327   4.633  18.928  0.00  0.00    +0.000 A 
ATOM     16  C   UNL     1       2.941   5.833  18.508  0.00  0.00    +0.000 A 
ATOM     17  C   UNL     1       2.716   7.008  19.244  0.00  0.00    +0.000 A 
BRANCH  14  18
ATOM     18  O   UNL     1       0.971   3.459  20.533  0.00  0.00    +0.000 OA
ATOM     19  C   UNL     1       1.591   2.842  21.664  0.00  0.00    +0.000 C 
ENDBRANCH  14  18
BRANCH  15  20
ATOM     20  O   UNL     1       2.484   3.404  18.327  0.00  0.00    +0.000 OA
ATOM     21  C   UNL     1       3.702   2.695  18.556  0.00  0.00    +0.000 C 
ENDBRANCH  15  20
BRANCH  16  22
ATOM     22  O   UNL     1       3.766   5.812  17.411  0.00  0.00    +0.000 OA
ATOM     23  C   UNL     1       4.653   6.906  17.205  0.00  0.00    +0.000 C 
ENDBRANCH  16  22
ENDBRANCH   4  12
BRANCH   1  24
ATOM     24  S   UNL     1      -1.424  11.522  23.276  0.00  0.00    +0.000 S 
BRANCH  24  25
ATOM     25  C   UNL     1      -2.522  12.747  22.490  0.00  0.00    +0.000 C 
BRANCH  25  27
ATOM     26  C   UNL     1      -4.099  12.405  24.433  0.00  0.00    +0.000 C 
ATOM     27  C   UNL     1      -3.394  13.425  23.546  0.00  0.00    +0.000 C 
ENDBRANCH  25  27
ENDBRANCH  24  25
ENDBRANCH   1  24
BRANCH   8  28
ATOM     28  C   UNL     1      -1.711  11.668  17.570  0.00  0.00    +0.000 C 
BRANCH  28  29
ATOM     29  C   UNL     1      -2.654  10.976  16.589  0.00  0.00    +0.000 C 
BRANCH  29  30
ATOM     30  O   UNL     1      -3.006   9.672  17.044  0.00  0.00    +0.000 OA
ATOM     31  H   UNL     1      -3.057   9.721  18.019  0.00  0.00    +0.000 HD
ENDBRANCH  29  30
ENDBRANCH  28  29
ENDBRANCH   8  28
TORSDOF 10
ENDMDL
MODEL 7
REMARK VINA RESULT:      -6.3      1.489      2.742
REMARK  Name = 
REMARK  14 active torsions:
REMARK  status: ('A' for Active; 'I' for Inactive)
REMARK    1  A    between atoms: C_1  and  C_2
REMARK    2  A    between atoms: C_2  and  C_3
REMARK    3  A    between atoms: C_3  and  S_4
REMARK    4  A    between atoms: S_4  and  C_5
REMARK    5  A    between atoms: N_8  and  C_9
REMARK    6  A    between atoms: C_11  and  O_12
REMARK    7  A    between atoms: O_12  and  C_13
REMARK    8  A    between atoms: C_14  and  O_15
REMARK    9  A    between atoms: O_15  and  C_16
REMARK   10  A    between atoms: C_17  and  O_18
REMARK   11  A    between atoms: O_18  and  C_19
REMARK   12  A    between atoms: N_24  and  C_25
REMARK   13  A    between atoms: C_25  and  C_26
REMARK   14  A    between atoms: C_26  and  O_27
REMARK                            x       y       z     vdW  Elec       q    Type
REMARK                         _______ _______ _______ _____ _____    ______ ____
ROOT
ATOM      1  C   UNL     1       4.132   6.548  17.161  0.00  0.00    +0.000 A 
ATOM      2  N   UNL     1       3.724   7.839  17.210  0.00  0.00    +0.000 NA
ATOM      3  C   UNL     1       2.846   8.221  18.171  0.00  0.00    +0.000 A 
ATOM      4  N   UNL     1       2.408   9.551  18.192  0.00  0.00    +0.000 N 
ATOM      5  C   UNL     1       2.464   7.278  19.123  0.00  0.00    +0.000 A 
ATOM      6  N   UNL     1       1.649   7.331  20.226  0.00  0.00    +0.000 NA
ATOM      7  N   UNL     1       1.611   6.124  20.772  0.00  0.00    +0.000 NA
ATOM      8  N   UNL     1       2.401   5.321  20.023  0.00  0.00    +0.000 N 
ATOM      9  C   UNL     1       2.964   5.997  18.977  0.00  0.00    +0.000 A 
ATOM     10  N   UNL     1       3.794   5.557  18.020  0.00  0.00    +0.000 NA
ATOM     11  H   UNL     1       2.928  10.156  17.571  0.00  0.00    +0.000 HD
ENDROOT
BRANCH   4  12
ATOM     12  C   UNL     1       1.156  10.036  18.608  0.00  0.00    +0.000 A 
ATOM     13  C   UNL     1       1.087  10.786  19.772  0.00  0.00    +0.000 A 
ATOM     14  C   UNL     1      -0.138  11.246  20.274  0.00  0.00    +0.000 A 
ATOM     15  C   UNL     1      -1.337  10.998  19.557  0.00  0.00    +0.000 A 
ATOM     16  C   UNL     1      -1.280  10.215  18.382  0.00  0.00    +0.000 A 
ATOM     17  C   UNL     1      -0.034   9.748  17.934  0.00  0.00    +0.000 A 
BRANCH  14  18
ATOM     18  O   UNL     1      -0.204  11.983  21.438  0.00  0.00    +0.000 OA
ATOM     19  C   UNL     1       0.377  13.288  21.380  0.00  0.00    +0.000 C 
ENDBRANCH  14  18
BRANCH  15  20
ATOM     20  O   UNL     1      -2.486  11.493  20.130  0.00  0.00    +0.000 OA
ATOM     21  C   UNL     1      -2.997  12.735  19.645  0.00  0.00    +0.000 C 
ENDBRANCH  15  20
BRANCH  16  22
ATOM     22  O   UNL     1      -2.447   9.906  17.730  0.00  0.00    +0.000 OA
ATOM     23  C   UNL     1      -2.693  10.498  16.459  0.00  0.00    +0.000 C 
ENDBRANCH  16  22
ENDBRANCH   4  12
BRANCH   1  24
ATOM     24  S   UNL     1       5.192   6.109  15.800  0.00  0.00    +0.000 S 
BRANCH  24  25
ATOM     25  C   UNL     1       5.307   4.314  16.100  0.00  0.00    +0.000 C 
BRANCH  25  27
ATOM     26  C   UNL     1       6.821   4.668  14.109  0.00  0.00    +0.000 C 
ATOM     27  C   UNL     1       6.106   3.644  14.982  0.00  0.00    +0.000 C 
ENDBRANCH  25  27
ENDBRANCH  24  25
ENDBRANCH   1  24
BRANCH   8  28
ATOM     28  C   UNL     1       2.559   3.930  20.380  0.00  0.00    +0.000 C 
BRANCH  28  29
ATOM     29  C   UNL     1       1.289   3.299  20.944  0.00  0.00    +0.000 C 
BRANCH  29  30
ATOM     30  O   UNL     1       1.548   2.625  22.173  0.00  0.00    +0.000 OA
ATOM     31  H   UNL     1       1.805   1.711  21.941  0.00  0.00    +0.000 HD
ENDBRANCH  29  30
ENDBRANCH  28  29
ENDBRANCH   8  28
TORSDOF 10
ENDMDL
MODEL 8
REMARK VINA RESULT:      -6.2      1.129      2.501
REMARK  Name = 
REMARK  14 active torsions:
REMARK  status: ('A' for Active; 'I' for Inactive)
REMARK    1  A    between atoms: C_1  and  C_2
REMARK    2  A    between atoms: C_2  and  C_3
REMARK    3  A    between atoms: C_3  and  S_4
REMARK    4  A    between atoms: S_4  and  C_5
REMARK    5  A    between atoms: N_8  and  C_9
REMARK    6  A    between atoms: C_11  and  O_12
REMARK    7  A    between atoms: O_12  and  C_13
REMARK    8  A    between atoms: C_14  and  O_15
REMARK    9  A    between atoms: O_15  and  C_16
REMARK   10  A    between atoms: C_17  and  O_18
REMARK   11  A    between atoms: O_18  and  C_19
REMARK   12  A    between atoms: N_24  and  C_25
REMARK   13  A    between atoms: C_25  and  C_26
REMARK   14  A    between atoms: C_26  and  O_27
REMARK                            x       y       z     vdW  Elec       q    Type
REMARK                         _______ _______ _______ _____ _____    ______ ____
ROOT
ATOM      1  C   UNL     1       4.348   6.262  17.093  0.00  0.00    +0.000 A 
ATOM      2  N   UNL     1       3.928   7.549  17.072  0.00  0.00    +0.000 NA
ATOM      3  C   UNL     1       3.027   7.967  17.996  0.00  0.00    +0.000 A 
ATOM      4  N   UNL     1       2.577   9.292  17.946  0.00  0.00    +0.000 N 
ATOM      5  C   UNL     1       2.634   7.066  18.984  0.00  0.00    +0.000 A 
ATOM      6  N   UNL     1       1.796   7.163  20.066  0.00  0.00    +0.000 NA
ATOM      7  N   UNL     1       1.757   5.982  20.668  0.00  0.00    +0.000 NA
ATOM      8  N   UNL     1       2.569   5.153  19.973  0.00  0.00    +0.000 N 
ATOM      9  C   UNL     1       3.147   5.784  18.908  0.00  0.00    +0.000 A 
ATOM     10  N   UNL     1       4.001   5.309  17.991  0.00  0.00    +0.000 NA
ATOM     11  H   UNL     1       3.105   9.872  17.308  0.00  0.00    +0.000 HD
ENDROOT
BRANCH   4  12
ATOM     12  C   UNL     1       1.313   9.784  18.313  0.00  0.00    +0.000 A 
ATOM     13  C   UNL     1       1.197  10.512  19.487  0.00  0.00    +0.000 A 
ATOM     14  C   UNL     1      -0.044  10.977  19.940  0.00  0.00    +0.000 A 
ATOM     15  C   UNL     1      -1.211  10.757  19.164  0.00  0.00    +0.000 A 
ATOM     16  C   UNL     1      -1.108   9.996  17.978  0.00  0.00    +0.000 A 
ATOM     17  C   UNL     1       0.152   9.524  17.579  0.00  0.00    +0.000 A 
BRANCH  14  18
ATOM     18  O   UNL     1      -0.157  11.692  21.115  0.00  0.00    +0.000 OA
ATOM     19  C   UNL     1       0.575  12.919  21.166  0.00  0.00    +0.000 C 
ENDBRANCH  14  18
BRANCH  15  20
ATOM     20  O   UNL     1      -2.381  11.254  19.692  0.00  0.00    +0.000 OA
ATOM     21  C   UNL     1      -2.782  12.571  19.314  0.00  0.00    +0.000 C 
ENDBRANCH  15  20
BRANCH  16  22
ATOM     22  O   UNL     1      -2.247   9.714  17.266  0.00  0.00    +0.000 OA
ATOM     23  C   UNL     1      -2.548  10.506  16.122  0.00  0.00    +0.000 C 
ENDBRANCH  16  22
ENDBRANCH   4  12
BRANCH   1  24
ATOM     24  S   UNL     1       5.441   5.769  15.776  0.00  0.00    +0.000 S 
BRANCH  24  25
ATOM     25  C   UNL     1       6.976   5.575  16.741  0.00  0.00    +0.000 C 
BRANCH  25  27
ATOM     26  C   UNL     1       7.758   7.856  17.493  0.00  0.00    +0.000 C 
ATOM     27  C   UNL     1       7.009   6.587  17.885  0.00  0.00    +0.000 C 
ENDBRANCH  25  27
ENDBRANCH  24  25
ENDBRANCH   1  24
BRANCH   8  28
ATOM     28  C   UNL     1       2.732   3.781  20.399  0.00  0.00    +0.000 C 
BRANCH  28  29
ATOM     29  C   UNL     1       1.882   3.416  21.613  0.00  0.00    +0.000 C 
BRANCH  29  30
ATOM     30  O   UNL     1       2.184   2.104  22.080  0.00  0.00    +0.000 OA
ATOM     31  H   UNL     1       1.985   2.096  23.037  0.00  0.00    +0.000 HD
ENDBRANCH  29  30
ENDBRANCH  28  29
ENDBRANCH   8  28
TORSDOF 10
ENDMDL
MODEL 9
REMARK VINA RESULT:      -6.2      1.221      2.441
REMARK  Name = 
REMARK  14 active torsions:
REMARK  status: ('A' for Active; 'I' for Inactive)
REMARK    1  A    between atoms: C_1  and  C_2
REMARK    2  A    between atoms: C_2  and  C_3
REMARK    3  A    between atoms: C_3  and  S_4
REMARK    4  A    between atoms: S_4  and  C_5
REMARK    5  A    between atoms: N_8  and  C_9
REMARK    6  A    between atoms: C_11  and  O_12
REMARK    7  A    between atoms: O_12  and  C_13
REMARK    8  A    between atoms: C_14  and  O_15
REMARK    9  A    between atoms: O_15  and  C_16
REMARK   10  A    between atoms: C_17  and  O_18
REMARK   11  A    between atoms: O_18  and  C_19
REMARK   12  A    between atoms: N_24  and  C_25
REMARK   13  A    between atoms: C_25  and  C_26
REMARK   14  A    between atoms: C_26  and  O_27
REMARK                            x       y       z     vdW  Elec       q    Type
REMARK                         _______ _______ _______ _____ _____    ______ ____
ROOT
ATOM      1  C   UNL     1       4.054   6.411  17.390  0.00  0.00    +0.000 A 
ATOM      2  N   UNL     1       3.643   7.698  17.291  0.00  0.00    +0.000 NA
ATOM      3  C   UNL     1       2.753   8.181  18.194  0.00  0.00    +0.000 A 
ATOM      4  N   UNL     1       2.313   9.504  18.064  0.00  0.00    +0.000 N 
ATOM      5  C   UNL     1       2.361   7.347  19.239  0.00  0.00    +0.000 A 
ATOM      6  N   UNL     1       1.533   7.519  20.320  0.00  0.00    +0.000 NA
ATOM      7  N   UNL     1       1.490   6.379  20.996  0.00  0.00    +0.000 NA
ATOM      8  N   UNL     1       2.290   5.500  20.348  0.00  0.00    +0.000 N 
ATOM      9  C   UNL     1       2.864   6.059  19.241  0.00  0.00    +0.000 A 
ATOM     10  N   UNL     1       3.707   5.519  18.349  0.00  0.00    +0.000 NA
ATOM     11  H   UNL     1       2.840  10.038  17.387  0.00  0.00    +0.000 HD
ENDROOT
BRANCH   4  12
ATOM     12  C   UNL     1       1.056  10.029  18.409  0.00  0.00    +0.000 A 
ATOM     13  C   UNL     1       0.983  10.964  19.430  0.00  0.00    +0.000 A 
ATOM     14  C   UNL     1      -0.246  11.480  19.863  0.00  0.00    +0.000 A 
ATOM     15  C   UNL     1      -1.447  11.089  19.216  0.00  0.00    +0.000 A 
ATOM     16  C   UNL     1      -1.386  10.119  18.191  0.00  0.00    +0.000 A 
ATOM     17  C   UNL     1      -0.135   9.607  17.811  0.00  0.00    +0.000 A 
BRANCH  14  18
ATOM     18  O   UNL     1      -0.316  12.403  20.886  0.00  0.00    +0.000 OA
ATOM     19  C   UNL     1       0.175  13.709  20.576  0.00  0.00    +0.000 C 
ENDBRANCH  14  18
BRANCH  15  20
ATOM     20  O   UNL     1      -2.600  11.652  19.713  0.00  0.00    +0.000 OA
ATOM     21  C   UNL     1      -3.424  12.398  18.816  0.00  0.00    +0.000 C 
ENDBRANCH  15  20
BRANCH  16  22
ATOM     22  O   UNL     1      -2.553   9.681  17.617  0.00  0.00    +0.000 OA
ATOM     23  C   UNL     1      -2.720   9.835  16.212  0.00  0.00    +0.000 C 
ENDBRANCH  16  22
ENDBRANCH   4  12
BRANCH   1  24
ATOM     24  S   UNL     1       5.131   5.828  16.098  0.00  0.00    +0.000 S 
BRANCH  24  25
ATOM     25  C   UNL     1       5.915   4.443  16.989  0.00  0.00    +0.000 C 
BRANCH  25  27
ATOM     26  C   UNL     1       7.652   5.437  18.529  0.00  0.00    +0.000 C 
ATOM     27  C   UNL     1       7.401   4.729  17.203  0.00  0.00    +0.000 C 
ENDBRANCH  25  27
ENDBRANCH  24  25
ENDBRANCH   1  24
BRANCH   8  28
ATOM     28  C   UNL     1       2.446   4.157  20.858  0.00  0.00    +0.000 C 
BRANCH  28  29
ATOM     29  C   UNL     1       1.153   3.346  20.838  0.00  0.00    +0.000 C 
BRANCH  29  30
ATOM     30  O   UNL     1       0.993   2.659  19.599  0.00  0.00    +0.000 OA
ATOM     31  H   UNL     1       0.725   3.330  18.941  0.00  0.00    +0.000 HD
ENDBRANCH  29  30
ENDBRANCH  28  29
ENDBRANCH   8  28
TORSDOF 10
ENDMDL
