MODEL 1
REMARK VINA RESULT:      -8.5      0.000      0.000
REMARK  Name = 
REMARK  7 active torsions:
REMARK  status: ('A' for Active; 'I' for Inactive)
REMARK    1  A    between atoms: C_1  and  O_2
REMARK    2  A    between atoms: O_2  and  C_3
REMARK    3  A    between atoms: C_6  and  C_7
REMARK    4  A    between atoms: N_9  and  C_10
REMARK    5  A    between atoms: C_15  and  C_16
REMARK    6  A    between atoms: N_18  and  C_19
REMARK    7  A    between atoms: C_19  and  C_20
REMARK                            x       y       z     vdW  Elec       q    Type
REMARK                         _______ _______ _______ _____ _____    ______ ____
ROOT
ATOM      1  C   UNL     1       5.100   5.997  16.816  0.00  0.00    +0.000 A 
ATOM      2  C   UNL     1       5.286   6.250  15.442  0.00  0.00    +0.000 A 
ATOM      3  C   UNL     1       5.990   5.363  14.624  0.00  0.00    +0.000 A 
ATOM      4  C   UNL     1       6.492   4.183  15.156  0.00  0.00    +0.000 A 
ATOM      5  C   UNL     1       6.297   3.901  16.507  0.00  0.00    +0.000 A 
ATOM      6  C   UNL     1       5.612   4.796  17.360  0.00  0.00    +0.000 A 
ENDROOT
BRANCH   1   9
ATOM      7  C   UNL     1       3.028   6.701  17.915  0.00  0.00    +0.000 C 
ATOM      8  O   UNL     1       2.461   5.626  17.725  0.00  0.00    +0.000 OA
ATOM      9  N   UNL     1       4.323   6.968  17.509  0.00  0.00    +0.000 N 
ATOM     10  H   UNL     1       4.827   7.546  18.172  0.00  0.00    +0.000 HD
BRANCH   7  14
ATOM     11  C   UNL     1       0.641   9.629  19.953  0.00  0.00    +0.000 A 
ATOM     12  C   UNL     1       1.190   8.544  20.637  0.00  0.00    +0.000 A 
ATOM     13  C   UNL     1       2.012   7.629  19.975  0.00  0.00    +0.000 A 
ATOM     14  C   UNL     1       2.292   7.788  18.614  0.00  0.00    +0.000 A 
ATOM     15  C   UNL     1       1.755   8.883  17.925  0.00  0.00    +0.000 A 
ATOM     16  C   UNL     1       0.929   9.800  18.597  0.00  0.00    +0.000 A 
BRANCH  11  18
ATOM     17  C   UNL     1      -0.699  11.585  20.085  0.00  0.00    +0.000 C 
ATOM     18  O   UNL     1      -0.214  10.395  20.694  0.00  0.00    +0.000 OA
ENDBRANCH  11  18
ENDBRANCH   7  14
ENDBRANCH   1   9
BRANCH   6  19
ATOM     19  C   UNL     1       5.349   4.238  18.726  0.00  0.00    +0.000 C 
ATOM     20  O   UNL     1       5.516   4.955  19.712  0.00  0.00    +0.000 OA
ATOM     21  N   UNL     1       4.883   2.955  18.835  0.00  0.00    +0.000 N 
ATOM     22  H   UNL     1       4.442   2.543  18.016  0.00  0.00    +0.000 HD
BRANCH  21  23
ATOM     23  C   UNL     1       4.599   2.335  20.108  0.00  0.00    +0.000 C 
BRANCH  23  24
ATOM     24  C   UNL     1       3.183   2.574  20.473  0.00  0.00    +0.000 A 
ATOM     25  C   UNL     1       2.537   2.790  21.672  0.00  0.00    +0.000 A 
ATOM     26  C   UNL     1       1.163   2.944  21.367  0.00  0.00    +0.000 A 
ATOM     27  C   UNL     1       1.057   2.801  20.003  0.00  0.00    +0.000 A 
ATOM     28  O   UNL     1       2.278   2.577  19.451  0.00  0.00    +0.000 OA
ENDBRANCH  23  24
ENDBRANCH  21  23
ENDBRANCH   6  19
TORSDOF 6
ENDMDL
MODEL 2
REMARK VINA RESULT:      -8.5      0.721      1.284
REMARK  Name = 
REMARK  7 active torsions:
REMARK  status: ('A' for Active; 'I' for Inactive)
REMARK    1  A    between atoms: C_1  and  O_2
REMARK    2  A    between atoms: O_2  and  C_3
REMARK    3  A    between atoms: C_6  and  C_7
REMARK    4  A    between atoms: N_9  and  C_10
REMARK    5  A    between atoms: C_15  and  C_16
REMARK    6  A    between atoms: N_18  and  C_19
REMARK    7  A    between atoms: C_19  and  C_20
REMARK                            x       y       z     vdW  Elec       q    Type
REMARK                         _______ _______ _______ _____ _____    ______ ____
ROOT
ATOM      1  C   UNL     1       5.060   6.011  16.860  0.00  0.00    +0.000 A 
ATOM      2  C   UNL     1       5.239   6.257  15.484  0.00  0.00    +0.000 A 
ATOM      3  C   UNL     1       5.980   5.390  14.677  0.00  0.00    +0.000 A 
ATOM      4  C   UNL     1       6.529   4.238  15.222  0.00  0.00    +0.000 A 
ATOM      5  C   UNL     1       6.342   3.962  16.575  0.00  0.00    +0.000 A 
ATOM      6  C   UNL     1       5.619   4.837  17.418  0.00  0.00    +0.000 A 
ENDROOT
BRANCH   1   9
ATOM      7  C   UNL     1       2.953   6.646  17.934  0.00  0.00    +0.000 C 
ATOM      8  O   UNL     1       2.425   5.552  17.741  0.00  0.00    +0.000 OA
ATOM      9  N   UNL     1       4.242   6.956  17.542  0.00  0.00    +0.000 N 
ATOM     10  H   UNL     1       4.719   7.553  18.208  0.00  0.00    +0.000 HD
BRANCH   7  14
ATOM     11  C   UNL     1       0.980   9.904  19.914  0.00  0.00    +0.000 A 
ATOM     12  C   UNL     1       1.269   9.958  18.549  0.00  0.00    +0.000 A 
ATOM     13  C   UNL     1       1.859   8.869  17.905  0.00  0.00    +0.000 A 
ATOM     14  C   UNL     1       2.172   7.709  18.622  0.00  0.00    +0.000 A 
ATOM     15  C   UNL     1       1.872   7.643  19.988  0.00  0.00    +0.000 A 
ATOM     16  C   UNL     1       1.277   8.742  20.631  0.00  0.00    +0.000 A 
BRANCH  11  18
ATOM     17  C   UNL     1       1.064  12.276  19.965  0.00  0.00    +0.000 C 
ATOM     18  O   UNL     1       0.487  11.066  20.437  0.00  0.00    +0.000 OA
ENDBRANCH  11  18
ENDBRANCH   7  14
ENDBRANCH   1   9
BRANCH   6  19
ATOM     19  C   UNL     1       5.376   4.283  18.789  0.00  0.00    +0.000 C 
ATOM     20  O   UNL     1       5.546   5.006  19.770  0.00  0.00    +0.000 OA
ATOM     21  N   UNL     1       4.925   2.996  18.909  0.00  0.00    +0.000 N 
ATOM     22  H   UNL     1       4.479   2.576  18.097  0.00  0.00    +0.000 HD
BRANCH  21  23
ATOM     23  C   UNL     1       4.660   2.379  20.188  0.00  0.00    +0.000 C 
BRANCH  23  24
ATOM     24  C   UNL     1       3.231   2.555  20.539  0.00  0.00    +0.000 A 
ATOM     25  C   UNL     1       2.093   2.786  19.794  0.00  0.00    +0.000 A 
ATOM     26  C   UNL     1       1.020   2.868  20.713  0.00  0.00    +0.000 A 
ATOM     27  C   UNL     1       1.572   2.694  21.960  0.00  0.00    +0.000 A 
ATOM     28  O   UNL     1       2.914   2.502  21.865  0.00  0.00    +0.000 OA
ENDBRANCH  23  24
ENDBRANCH  21  23
ENDBRANCH   6  19
TORSDOF 6
ENDMDL
MODEL 3
REMARK VINA RESULT:      -8.4      0.926      1.127
REMARK  Name = 
REMARK  7 active torsions:
REMARK  status: ('A' for Active; 'I' for Inactive)
REMARK    1  A    between atoms: C_1  and  O_2
REMARK    2  A    between atoms: O_2  and  C_3
REMARK    3  A    between atoms: C_6  and  C_7
REMARK    4  A    between atoms: N_9  and  C_10
REMARK    5  A    between atoms: C_15  and  C_16
REMARK    6  A    between atoms: N_18  and  C_19
REMARK    7  A    between atoms: C_19  and  C_20
REMARK                            x       y       z     vdW  Elec       q    Type
REMARK                         _______ _______ _______ _____ _____    ______ ____
ROOT
ATOM      1  C   UNL     1       4.982   5.745  16.690  0.00  0.00    +0.000 A 
ATOM      2  C   UNL     1       5.188   6.194  15.370  0.00  0.00    +0.000 A 
ATOM      3  C   UNL     1       5.807   5.386  14.412  0.00  0.00    +0.000 A 
ATOM      4  C   UNL     1       6.200   4.098  14.744  0.00  0.00    +0.000 A 
ATOM      5  C   UNL     1       5.982   3.624  16.036  0.00  0.00    +0.000 A 
ATOM      6  C   UNL     1       5.383   4.431  17.031  0.00  0.00    +0.000 A 
ENDROOT
BRANCH   1   9
ATOM      7  C   UNL     1       3.006   6.417  17.970  0.00  0.00    +0.000 C 
ATOM      8  O   UNL     1       2.364   5.413  17.671  0.00  0.00    +0.000 OA
ATOM      9  N   UNL     1       4.298   6.659  17.539  0.00  0.00    +0.000 N 
ATOM     10  H   UNL     1       4.865   7.115  18.246  0.00  0.00    +0.000 HD
BRANCH   7  14
ATOM     11  C   UNL     1       0.892   9.195  20.469  0.00  0.00    +0.000 A 
ATOM     12  C   UNL     1       1.349   7.975  20.972  0.00  0.00    +0.000 A 
ATOM     13  C   UNL     1       2.085   7.106  20.165  0.00  0.00    +0.000 A 
ATOM     14  C   UNL     1       2.371   7.445  18.838  0.00  0.00    +0.000 A 
ATOM     15  C   UNL     1       1.927   8.674  18.332  0.00  0.00    +0.000 A 
ATOM     16  C   UNL     1       1.188   9.545  19.150  0.00  0.00    +0.000 A 
BRANCH  11  18
ATOM     17  C   UNL     1      -0.446   9.198  22.430  0.00  0.00    +0.000 C 
ATOM     18  O   UNL     1       0.111   9.910  21.333  0.00  0.00    +0.000 OA
ENDBRANCH  11  18
ENDBRANCH   7  14
ENDBRANCH   1   9
BRANCH   6  19
ATOM     19  C   UNL     1       5.072   3.690  18.296  0.00  0.00    +0.000 C 
ATOM     20  O   UNL     1       5.446   4.154  19.373  0.00  0.00    +0.000 OA
ATOM     21  N   UNL     1       4.339   2.537  18.220  0.00  0.00    +0.000 N 
ATOM     22  H   UNL     1       3.775   2.391  17.386  0.00  0.00    +0.000 HD
BRANCH  21  23
ATOM     23  C   UNL     1       3.989   1.759  19.386  0.00  0.00    +0.000 C 
BRANCH  23  24
ATOM     24  C   UNL     1       2.798   2.351  20.040  0.00  0.00    +0.000 A 
ATOM     25  C   UNL     1       1.536   2.682  19.592  0.00  0.00    +0.000 A 
ATOM     26  C   UNL     1       0.844   3.225  20.702  0.00  0.00    +0.000 A 
ATOM     27  C   UNL     1       1.732   3.202  21.752  0.00  0.00    +0.000 A 
ATOM     28  O   UNL     1       2.920   2.672  21.361  0.00  0.00    +0.000 OA
ENDBRANCH  23  24
ENDBRANCH  21  23
ENDBRANCH   6  19
TORSDOF 6
ENDMDL
MODEL 4
REMARK VINA RESULT:      -8.2      2.183      4.431
REMARK  Name = 
REMARK  7 active torsions:
REMARK  status: ('A' for Active; 'I' for Inactive)
REMARK    1  A    between atoms: C_1  and  O_2
REMARK    2  A    between atoms: O_2  and  C_3
REMARK    3  A    between atoms: C_6  and  C_7
REMARK    4  A    between atoms: N_9  and  C_10
REMARK    5  A    between atoms: C_15  and  C_16
REMARK    6  A    between atoms: N_18  and  C_19
REMARK    7  A    between atoms: C_19  and  C_20
REMARK                            x       y       z     vdW  Elec       q    Type
REMARK                         _______ _______ _______ _____ _____    ______ ____
ROOT
ATOM      1  C   UNL     1       2.296   4.312  18.134  0.00  0.00    +0.000 A 
ATOM      2  C   UNL     1       1.408   3.493  18.860  0.00  0.00    +0.000 A 
ATOM      3  C   UNL     1       1.610   2.115  18.969  0.00  0.00    +0.000 A 
ATOM      4  C   UNL     1       2.724   1.530  18.383  0.00  0.00    +0.000 A 
ATOM      5  C   UNL     1       3.628   2.326  17.683  0.00  0.00    +0.000 A 
ATOM      6  C   UNL     1       3.432   3.719  17.535  0.00  0.00    +0.000 A 
ENDROOT
BRANCH   1   9
ATOM      7  C   UNL     1       2.488   6.540  19.131  0.00  0.00    +0.000 C 
ATOM      8  O   UNL     1       3.231   6.166  20.036  0.00  0.00    +0.000 OA
ATOM      9  N   UNL     1       1.988   5.702  18.152  0.00  0.00    +0.000 N 
ATOM     10  H   UNL     1       1.929   6.152  17.246  0.00  0.00    +0.000 HD
BRANCH   7  14
ATOM     11  C   UNL     1       1.020  10.570  18.937  0.00  0.00    +0.000 A 
ATOM     12  C   UNL     1       0.864   9.800  20.091  0.00  0.00    +0.000 A 
ATOM     13  C   UNL     1       1.396   8.511  20.162  0.00  0.00    +0.000 A 
ATOM     14  C   UNL     1       2.090   7.973  19.073  0.00  0.00    +0.000 A 
ATOM     15  C   UNL     1       2.263   8.746  17.918  0.00  0.00    +0.000 A 
ATOM     16  C   UNL     1       1.726  10.043  17.853  0.00  0.00    +0.000 A 
BRANCH  11  18
ATOM     17  C   UNL     1       1.155  12.924  18.658  0.00  0.00    +0.000 C 
ATOM     18  O   UNL     1       0.377  11.775  18.965  0.00  0.00    +0.000 OA
ENDBRANCH  11  18
ENDBRANCH   7  14
ENDBRANCH   1   9
BRANCH   6  19
ATOM     19  C   UNL     1       4.596   4.424  16.907  0.00  0.00    +0.000 C 
ATOM     20  O   UNL     1       4.431   5.540  16.417  0.00  0.00    +0.000 OA
ATOM     21  N   UNL     1       5.825   3.822  16.939  0.00  0.00    +0.000 N 
ATOM     22  H   UNL     1       5.978   3.097  17.636  0.00  0.00    +0.000 HD
BRANCH  21  23
ATOM     23  C   UNL     1       7.004   4.427  16.363  0.00  0.00    +0.000 C 
BRANCH  23  24
ATOM     24  C   UNL     1       7.420   5.588  17.185  0.00  0.00    +0.000 A 
ATOM     25  C   UNL     1       7.758   5.736  18.515  0.00  0.00    +0.000 A 
ATOM     26  C   UNL     1       8.057   7.107  18.704  0.00  0.00    +0.000 A 
ATOM     27  C   UNL     1       7.870   7.709  17.482  0.00  0.00    +0.000 A 
ATOM     28  O   UNL     1       7.485   6.796  16.553  0.00  0.00    +0.000 OA
ENDBRANCH  23  24
ENDBRANCH  21  23
ENDBRANCH   6  19
TORSDOF 6
ENDMDL
MODEL 5
REMARK VINA RESULT:      -8.2      2.152      4.893
REMARK  Name = 
REMARK  7 active torsions:
REMARK  status: ('A' for Active; 'I' for Inactive)
REMARK    1  A    between atoms: C_1  and  O_2
REMARK    2  A    between atoms: O_2  and  C_3
REMARK    3  A    between atoms: C_6  and  C_7
REMARK    4  A    between atoms: N_9  and  C_10
REMARK    5  A    between atoms: C_15  and  C_16
REMARK    6  A    between atoms: N_18  and  C_19
REMARK    7  A    between atoms: C_19  and  C_20
REMARK                            x       y       z     vdW  Elec       q    Type
REMARK                         _______ _______ _______ _____ _____    ______ ____
ROOT
ATOM      1  C   UNL     1       2.353   4.397  18.092  0.00  0.00    +0.000 A 
ATOM      2  C   UNL     1       1.480   3.511  18.754  0.00  0.00    +0.000 A 
ATOM      3  C   UNL     1       1.726   2.136  18.792  0.00  0.00    +0.000 A 
ATOM      4  C   UNL     1       2.870   1.621  18.200  0.00  0.00    +0.000 A 
ATOM      5  C   UNL     1       3.761   2.483  17.562  0.00  0.00    +0.000 A 
ATOM      6  C   UNL     1       3.521   3.875  17.486  0.00  0.00    +0.000 A 
ENDROOT
BRANCH   1   9
ATOM      7  C   UNL     1       2.428   6.566  19.226  0.00  0.00    +0.000 C 
ATOM      8  O   UNL     1       3.143   6.160  20.140  0.00  0.00    +0.000 OA
ATOM      9  N   UNL     1       1.998   5.773  18.178  0.00  0.00    +0.000 N 
ATOM     10  H   UNL     1       1.962   6.275  17.298  0.00  0.00    +0.000 HD
BRANCH   7  14
ATOM     11  C   UNL     1       0.831  10.550  19.248  0.00  0.00    +0.000 A 
ATOM     12  C   UNL     1       0.786   9.749  20.390  0.00  0.00    +0.000 A 
ATOM     13  C   UNL     1       1.360   8.477  20.387  0.00  0.00    +0.000 A 
ATOM     14  C   UNL     1       1.984   7.986  19.236  0.00  0.00    +0.000 A 
ATOM     15  C   UNL     1       2.045   8.791  18.091  0.00  0.00    +0.000 A 
ATOM     16  C   UNL     1       1.466  10.071  18.100  0.00  0.00    +0.000 A 
BRANCH  11  18
ATOM     17  C   UNL     1      -0.256  12.118  20.661  0.00  0.00    +0.000 C 
ATOM     18  O   UNL     1       0.156  11.734  19.356  0.00  0.00    +0.000 OA
ENDBRANCH  11  18
ENDBRANCH   7  14
ENDBRANCH   1   9
BRANCH   6  19
ATOM     19  C   UNL     1       4.672   4.651  16.922  0.00  0.00    +0.000 C 
ATOM     20  O   UNL     1       4.546   5.859  16.727  0.00  0.00    +0.000 OA
ATOM     21  N   UNL     1       5.851   3.999  16.683  0.00  0.00    +0.000 N 
ATOM     22  H   UNL     1       6.012   3.121  17.171  0.00  0.00    +0.000 HD
BRANCH  21  23
ATOM     23  C   UNL     1       7.014   4.665  16.145  0.00  0.00    +0.000 C 
BRANCH  23  24
ATOM     24  C   UNL     1       7.001   4.572  14.666  0.00  0.00    +0.000 A 
ATOM     25  C   UNL     1       6.267   3.823  13.770  0.00  0.00    +0.000 A 
ATOM     26  C   UNL     1       6.725   4.177  12.478  0.00  0.00    +0.000 A 
ATOM     27  C   UNL     1       7.717   5.110  12.669  0.00  0.00    +0.000 A 
ATOM     28  O   UNL     1       7.891   5.358  13.993  0.00  0.00    +0.000 OA
ENDBRANCH  23  24
ENDBRANCH  21  23
ENDBRANCH   6  19
TORSDOF 6
ENDMDL
MODEL 6
REMARK VINA RESULT:      -8.2      1.716      4.634
REMARK  Name = 
REMARK  7 active torsions:
REMARK  status: ('A' for Active; 'I' for Inactive)
REMARK    1  A    between atoms: C_1  and  O_2
REMARK    2  A    between atoms: O_2  and  C_3
REMARK    3  A    between atoms: C_6  and  C_7
REMARK    4  A    between atoms: N_9  and  C_10
REMARK    5  A    between atoms: C_15  and  C_16
REMARK    6  A    between atoms: N_18  and  C_19
REMARK    7  A    between atoms: C_19  and  C_20
REMARK                            x       y       z     vdW  Elec       q    Type
REMARK                         _______ _______ _______ _____ _____    ______ ____
ROOT
ATOM      1  C   UNL     1       3.143   4.884  20.159  0.00  0.00    +0.000 A 
ATOM      2  C   UNL     1       2.375   4.148  21.084  0.00  0.00    +0.000 A 
ATOM      3  C   UNL     1       2.596   2.786  21.297  0.00  0.00    +0.000 A 
ATOM      4  C   UNL     1       3.616   2.136  20.617  0.00  0.00    +0.000 A 
ATOM      5  C   UNL     1       4.405   2.850  19.717  0.00  0.00    +0.000 A 
ATOM      6  C   UNL     1       4.183   4.223  19.463  0.00  0.00    +0.000 A 
ENDROOT
BRANCH   1   9
ATOM      7  C   UNL     1       2.186   6.810  18.988  0.00  0.00    +0.000 C 
ATOM      8  O   UNL     1       1.824   6.149  18.017  0.00  0.00    +0.000 OA
ATOM      9  N   UNL     1       2.834   6.271  20.084  0.00  0.00    +0.000 N 
ATOM     10  H   UNL     1       2.554   6.708  20.955  0.00  0.00    +0.000 HD
BRANCH   7  14
ATOM     11  C   UNL     1       1.114  10.966  18.963  0.00  0.00    +0.000 A 
ATOM     12  C   UNL     1       0.818  10.152  20.057  0.00  0.00    +0.000 A 
ATOM     13  C   UNL     1       1.222   8.816  20.077  0.00  0.00    +0.000 A 
ATOM     14  C   UNL     1       1.928   8.275  18.997  0.00  0.00    +0.000 A 
ATOM     15  C   UNL     1       2.241   9.091  17.903  0.00  0.00    +0.000 A 
ATOM     16  C   UNL     1       1.832  10.435  17.888  0.00  0.00    +0.000 A 
BRANCH  11  18
ATOM     17  C   UNL     1       0.102  12.648  20.298  0.00  0.00    +0.000 C 
ATOM     18  O   UNL     1       0.585  12.225  19.030  0.00  0.00    +0.000 OA
ENDBRANCH  11  18
ENDBRANCH   7  14
ENDBRANCH   1   9
BRANCH   6  19
ATOM     19  C   UNL     1       5.240   4.852  18.607  0.00  0.00    +0.000 C 
ATOM     20  O   UNL     1       5.156   6.047  18.326  0.00  0.00    +0.000 OA
ATOM     21  N   UNL     1       6.299   4.086  18.199  0.00  0.00    +0.000 N 
ATOM     22  H   UNL     1       6.499   3.239  18.726  0.00  0.00    +0.000 HD
BRANCH  21  23
ATOM     23  C   UNL     1       7.365   4.606  17.375  0.00  0.00    +0.000 C 
BRANCH  23  24
ATOM     24  C   UNL     1       6.997   4.479  15.945  0.00  0.00    +0.000 A 
ATOM     25  C   UNL     1       6.080   3.703  15.268  0.00  0.00    +0.000 A 
ATOM     26  C   UNL     1       6.208   4.032  13.897  0.00  0.00    +0.000 A 
ATOM     27  C   UNL     1       7.203   4.979  13.824  0.00  0.00    +0.000 A 
ATOM     28  O   UNL     1       7.687   5.259  15.063  0.00  0.00    +0.000 OA
ENDBRANCH  23  24
ENDBRANCH  21  23
ENDBRANCH   6  19
TORSDOF 6
ENDMDL
MODEL 7
REMARK VINA RESULT:      -8.0      2.187      4.522
REMARK  Name = 
REMARK  7 active torsions:
REMARK  status: ('A' for Active; 'I' for Inactive)
REMARK    1  A    between atoms: C_1  and  O_2
REMARK    2  A    between atoms: O_2  and  C_3
REMARK    3  A    between atoms: C_6  and  C_7
REMARK    4  A    between atoms: N_9  and  C_10
REMARK    5  A    between atoms: C_15  and  C_16
REMARK    6  A    between atoms: N_18  and  C_19
REMARK    7  A    between atoms: C_19  and  C_20
REMARK                            x       y       z     vdW  Elec       q    Type
REMARK                         _______ _______ _______ _____ _____    ______ ____
ROOT
ATOM      1  C   UNL     1       2.249   4.333  18.132  0.00  0.00    +0.000 A 
ATOM      2  C   UNL     1       1.381   3.493  18.859  0.00  0.00    +0.000 A 
ATOM      3  C   UNL     1       1.630   2.125  18.991  0.00  0.00    +0.000 A 
ATOM      4  C   UNL     1       2.772   1.572  18.429  0.00  0.00    +0.000 A 
ATOM      5  C   UNL     1       3.657   2.389  17.728  0.00  0.00    +0.000 A 
ATOM      6  C   UNL     1       3.414   3.771  17.557  0.00  0.00    +0.000 A 
ENDROOT
BRANCH   1   9
ATOM      7  C   UNL     1       2.327   6.575  19.112  0.00  0.00    +0.000 C 
ATOM      8  O   UNL     1       3.049   6.235  20.048  0.00  0.00    +0.000 OA
ATOM      9  N   UNL     1       1.892   5.711  18.125  0.00  0.00    +0.000 N 
ATOM     10  H   UNL     1       1.850   6.151  17.213  0.00  0.00    +0.000 HD
BRANCH   7  14
ATOM     11  C   UNL     1       1.363  10.753  18.902  0.00  0.00    +0.000 A 
ATOM     12  C   UNL     1       1.969  10.098  17.829  0.00  0.00    +0.000 A 
ATOM     13  C   UNL     1       2.225   8.727  17.887  0.00  0.00    +0.000 A 
ATOM     14  C   UNL     1       1.881   7.992  19.027  0.00  0.00    +0.000 A 
ATOM     15  C   UNL     1       1.260   8.641  20.102  0.00  0.00    +0.000 A 
ATOM     16  C   UNL     1       1.004  10.021  20.036  0.00  0.00    +0.000 A 
BRANCH  11  18
ATOM     17  C   UNL     1      -0.065  12.630  18.631  0.00  0.00    +0.000 C 
ATOM     18  O   UNL     1       1.251  12.107  18.752  0.00  0.00    +0.000 OA
ENDBRANCH  11  18
ENDBRANCH   7  14
ENDBRANCH   1   9
BRANCH   6  19
ATOM     19  C   UNL     1       4.560   4.508  16.934  0.00  0.00    +0.000 C 
ATOM     20  O   UNL     1       4.397   5.668  16.556  0.00  0.00    +0.000 OA
ATOM     21  N   UNL     1       5.775   3.883  16.846  0.00  0.00    +0.000 N 
ATOM     22  H   UNL     1       5.945   3.094  17.466  0.00  0.00    +0.000 HD
BRANCH  21  23
ATOM     23  C   UNL     1       6.936   4.515  16.265  0.00  0.00    +0.000 C 
BRANCH  23  24
ATOM     24  C   UNL     1       7.383   5.629  17.133  0.00  0.00    +0.000 A 
ATOM     25  C   UNL     1       7.733   5.712  18.465  0.00  0.00    +0.000 A 
ATOM     26  C   UNL     1       8.064   7.066  18.712  0.00  0.00    +0.000 A 
ATOM     27  C   UNL     1       7.884   7.725  17.518  0.00  0.00    +0.000 A 
ATOM     28  O   UNL     1       7.473   6.861  16.553  0.00  0.00    +0.000 OA
ENDBRANCH  23  24
ENDBRANCH  21  23
ENDBRANCH   6  19
TORSDOF 6
ENDMDL
MODEL 8
REMARK VINA RESULT:      -8.0      1.838      4.759
REMARK  Name = 
REMARK  7 active torsions:
REMARK  status: ('A' for Active; 'I' for Inactive)
REMARK    1  A    between atoms: C_1  and  O_2
REMARK    2  A    between atoms: O_2  and  C_3
REMARK    3  A    between atoms: C_6  and  C_7
REMARK    4  A    between atoms: N_9  and  C_10
REMARK    5  A    between atoms: C_15  and  C_16
REMARK    6  A    between atoms: N_18  and  C_19
REMARK    7  A    between atoms: C_19  and  C_20
REMARK                            x       y       z     vdW  Elec       q    Type
REMARK                         _______ _______ _______ _____ _____    ______ ____
ROOT
ATOM      1  C   UNL     1       3.087   4.863  20.180  0.00  0.00    +0.000 A 
ATOM      2  C   UNL     1       2.332   4.116  21.107  0.00  0.00    +0.000 A 
ATOM      3  C   UNL     1       2.605   2.768  21.354  0.00  0.00    +0.000 A 
ATOM      4  C   UNL     1       3.663   2.147  20.706  0.00  0.00    +0.000 A 
ATOM      5  C   UNL     1       4.439   2.874  19.805  0.00  0.00    +0.000 A 
ATOM      6  C   UNL     1       4.166   4.231  19.518  0.00  0.00    +0.000 A 
ENDROOT
BRANCH   1   9
ATOM      7  C   UNL     1       2.102   6.729  18.938  0.00  0.00    +0.000 C 
ATOM      8  O   UNL     1       1.810   6.039  17.964  0.00  0.00    +0.000 OA
ATOM      9  N   UNL     1       2.724   6.235  20.070  0.00  0.00    +0.000 N 
ATOM     10  H   UNL     1       2.388   6.672  20.921  0.00  0.00    +0.000 HD
BRANCH   7  14
ATOM     11  C   UNL     1       1.504  10.980  18.923  0.00  0.00    +0.000 A 
ATOM     12  C   UNL     1       2.111  10.333  17.845  0.00  0.00    +0.000 A 
ATOM     13  C   UNL     1       2.249   8.944  17.837  0.00  0.00    +0.000 A 
ATOM     14  C   UNL     1       1.782   8.182  18.913  0.00  0.00    +0.000 A 
ATOM     15  C   UNL     1       1.159   8.823  19.991  0.00  0.00    +0.000 A 
ATOM     16  C   UNL     1       1.023  10.222  19.993  0.00  0.00    +0.000 A 
BRANCH  11  18
ATOM     17  C   UNL     1       1.885  13.049  20.024  0.00  0.00    +0.000 C 
ATOM     18  O   UNL     1       1.514  12.345  18.847  0.00  0.00    +0.000 OA
ENDBRANCH  11  18
ENDBRANCH   7  14
ENDBRANCH   1   9
BRANCH   6  19
ATOM     19  C   UNL     1       5.212   4.884  18.666  0.00  0.00    +0.000 C 
ATOM     20  O   UNL     1       5.126   6.087  18.423  0.00  0.00    +0.000 OA
ATOM     21  N   UNL     1       6.264   4.130  18.221  0.00  0.00    +0.000 N 
ATOM     22  H   UNL     1       6.471   3.268  18.720  0.00  0.00    +0.000 HD
BRANCH  21  23
ATOM     23  C   UNL     1       7.320   4.674  17.399  0.00  0.00    +0.000 C 
BRANCH  23  24
ATOM     24  C   UNL     1       6.966   4.521  15.969  0.00  0.00    +0.000 A 
ATOM     25  C   UNL     1       6.067   3.720  15.295  0.00  0.00    +0.000 A 
ATOM     26  C   UNL     1       6.202   4.032  13.920  0.00  0.00    +0.000 A 
ATOM     27  C   UNL     1       7.182   4.993  13.842  0.00  0.00    +0.000 A 
ATOM     28  O   UNL     1       7.651   5.298  15.080  0.00  0.00    +0.000 OA
ENDBRANCH  23  24
ENDBRANCH  21  23
ENDBRANCH   6  19
TORSDOF 6
ENDMDL
MODEL 9
REMARK VINA RESULT:      -7.9      1.196      1.829
REMARK  Name = 
REMARK  7 active torsions:
REMARK  status: ('A' for Active; 'I' for Inactive)
REMARK    1  A    between atoms: C_1  and  O_2
REMARK    2  A    between atoms: O_2  and  C_3
REMARK    3  A    between atoms: C_6  and  C_7
REMARK    4  A    between atoms: N_9  and  C_10
REMARK    5  A    between atoms: C_15  and  C_16
REMARK    6  A    between atoms: N_18  and  C_19
REMARK    7  A    between atoms: C_19  and  C_20
REMARK                            x       y       z     vdW  Elec       q    Type
REMARK                         _______ _______ _______ _____ _____    ______ ____
ROOT
ATOM      1  C   UNL     1       4.744   5.662  16.456  0.00  0.00    +0.000 A 
ATOM      2  C   UNL     1       5.690   6.327  15.650  0.00  0.00    +0.000 A 
ATOM      3  C   UNL     1       6.651   5.623  14.920  0.00  0.00    +0.000 A 
ATOM      4  C   UNL     1       6.664   4.235  14.953  0.00  0.00    +0.000 A 
ATOM      5  C   UNL     1       5.721   3.557  15.723  0.00  0.00    +0.000 A 
ATOM      6  C   UNL     1       4.755   4.248  16.492  0.00  0.00    +0.000 A 
ENDROOT
BRANCH   1   9
ATOM      7  C   UNL     1       3.551   6.414  18.459  0.00  0.00    +0.000 C 
ATOM      8  O   UNL     1       4.121   5.618  19.202  0.00  0.00    +0.000 OA
ATOM      9  N   UNL     1       3.799   6.509  17.101  0.00  0.00    +0.000 N 
ATOM     10  H   UNL     1       3.760   7.465  16.765  0.00  0.00    +0.000 HD
BRANCH   7  14
ATOM     11  C   UNL     1       0.847   9.289  20.146  0.00  0.00    +0.000 A 
ATOM     12  C   UNL     1       1.290   9.403  18.827  0.00  0.00    +0.000 A 
ATOM     13  C   UNL     1       2.124   8.431  18.272  0.00  0.00    +0.000 A 
ATOM     14  C   UNL     1       2.530   7.330  19.034  0.00  0.00    +0.000 A 
ATOM     15  C   UNL     1       2.077   7.203  20.354  0.00  0.00    +0.000 A 
ATOM     16  C   UNL     1       1.238   8.185  20.906  0.00  0.00    +0.000 A 
BRANCH  11  18
ATOM     17  C   UNL     1      -0.350  10.290  21.936  0.00  0.00    +0.000 C 
ATOM     18  O   UNL     1       0.111  10.351  20.593  0.00  0.00    +0.000 OA
ENDBRANCH  11  18
ENDBRANCH   7  14
ENDBRANCH   1   9
BRANCH   6  19
ATOM     19  C   UNL     1       3.725   3.350  17.105  0.00  0.00    +0.000 C 
ATOM     20  O   UNL     1       2.560   3.412  16.710  0.00  0.00    +0.000 OA
ATOM     21  N   UNL     1       4.119   2.449  18.057  0.00  0.00    +0.000 N 
ATOM     22  H   UNL     1       5.104   2.201  18.092  0.00  0.00    +0.000 HD
BRANCH  21  23
ATOM     23  C   UNL     1       3.197   1.542  18.700  0.00  0.00    +0.000 C 
BRANCH  23  24
ATOM     24  C   UNL     1       2.441   2.263  19.751  0.00  0.00    +0.000 A 
ATOM     25  C   UNL     1       1.144   2.726  19.838  0.00  0.00    +0.000 A 
ATOM     26  C   UNL     1       1.022   3.347  21.105  0.00  0.00    +0.000 A 
ATOM     27  C   UNL     1       2.255   3.234  21.704  0.00  0.00    +0.000 A 
ATOM     28  O   UNL     1       3.122   2.576  20.891  0.00  0.00    +0.000 OA
ENDBRANCH  23  24
ENDBRANCH  21  23
ENDBRANCH   6  19
TORSDOF 6
ENDMDL
