MODEL 1
REMARK VINA RESULT:      -9.1      0.000      0.000
REMARK  Name = 
REMARK  4 active torsions:
REMARK  status: ('A' for Active; 'I' for Inactive)
REMARK    1  A    between atoms: C_1  and  C_2
REMARK    2  A    between atoms: C_2  and  N_3
REMARK    3  A    between atoms: C_14  and  S_15
REMARK    4  A    between atoms: S_15  and  N_18
REMARK                            x       y       z     vdW  Elec       q    Type
REMARK                         _______ _______ _______ _____ _____    ______ ____
ROOT
ATOM      1  N   UNL     1       0.587  10.692  19.530  0.00  0.00    +0.000 N 
ATOM      2  C   UNL     1      -0.030  10.720  20.765  0.00  0.00    +0.000 A 
ATOM      3  C   UNL     1      -0.841  11.697  21.368  0.00  0.00    +0.000 A 
ATOM      4  C   UNL     1      -1.313  11.457  22.660  0.00  0.00    +0.000 A 
ATOM      5  C   UNL     1      -0.989  10.281  23.333  0.00  0.00    +0.000 A 
ATOM      6  C   UNL     1      -0.189   9.307  22.722  0.00  0.00    +0.000 A 
ATOM      7  C   UNL     1       0.300   9.517  21.414  0.00  0.00    +0.000 A 
ATOM      8  C   UNL     1       1.116   8.756  20.520  0.00  0.00    +0.000 A 
ATOM      9  N   UNL     1       1.712   7.530  20.640  0.00  0.00    +0.000 NA
ATOM     10  C   UNL     1       2.438   7.149  19.561  0.00  0.00    +0.000 A 
ATOM     11  C   UNL     1       3.126   5.929  19.564  0.00  0.00    +0.000 A 
ATOM     12  C   UNL     1       3.899   5.531  18.461  0.00  0.00    +0.000 A 
ATOM     13  C   UNL     1       3.991   6.342  17.336  0.00  0.00    +0.000 A 
ATOM     14  C   UNL     1       3.304   7.550  17.319  0.00  0.00    +0.000 A 
ATOM     15  C   UNL     1       2.544   7.966  18.397  0.00  0.00    +0.000 A 
ATOM     16  N   UNL     1       1.951   9.153  18.272  0.00  0.00    +0.000 NA
ATOM     17  C   UNL     1       1.256   9.509  19.364  0.00  0.00    +0.000 A 
ENDROOT
BRANCH  12  18
ATOM     18  S   UNL     1       4.826   4.014  18.464  0.00  0.00    +0.000 S 
ATOM     19  O   UNL     1       5.924   4.198  17.535  0.00  0.00    +0.000 OA
ATOM     20  O   UNL     1       5.060   3.630  19.839  0.00  0.00    +0.000 OA
BRANCH  18  21
ATOM     21  N   UNL     1       3.745   2.887  17.779  0.00  0.00    +0.000 NA
ATOM     22  C   UNL     1       2.563   3.422  17.036  0.00  0.00    +0.000 C 
ATOM     23  C   UNL     1       1.414   3.798  17.979  0.00  0.00    +0.000 C 
ATOM     24  O   UNL     1       1.037   2.699  18.822  0.00  0.00    +0.000 OA
ATOM     25  C   UNL     1       2.148   2.215  19.591  0.00  0.00    +0.000 C 
ATOM     26  C   UNL     1       3.303   1.777  18.687  0.00  0.00    +0.000 C 
ENDBRANCH  18  21
ENDBRANCH  12  18
BRANCH   1  28
ATOM     27  C   UNL     1       1.752  12.748  18.789  0.00  0.00    +0.000 C 
ATOM     28  C   UNL     1       0.617  11.769  18.556  0.00  0.00    +0.000 C 
ENDBRANCH   1  28
TORSDOF 3
ENDMDL
MODEL 2
REMARK VINA RESULT:      -9.1      1.453      2.030
REMARK  Name = 
REMARK  4 active torsions:
REMARK  status: ('A' for Active; 'I' for Inactive)
REMARK    1  A    between atoms: C_1  and  C_2
REMARK    2  A    between atoms: C_2  and  N_3
REMARK    3  A    between atoms: C_14  and  S_15
REMARK    4  A    between atoms: S_15  and  N_18
REMARK                            x       y       z     vdW  Elec       q    Type
REMARK                         _______ _______ _______ _____ _____    ______ ____
ROOT
ATOM      1  N   UNL     1      -0.305  12.359  19.555  0.00  0.00    +0.000 N 
ATOM      2  C   UNL     1      -0.997  12.570  20.731  0.00  0.00    +0.000 A 
ATOM      3  C   UNL     1      -1.754  13.671  21.169  0.00  0.00    +0.000 A 
ATOM      4  C   UNL     1      -2.330  13.610  22.440  0.00  0.00    +0.000 A 
ATOM      5  C   UNL     1      -2.162  12.489  23.249  0.00  0.00    +0.000 A 
ATOM      6  C   UNL     1      -1.415  11.392  22.802  0.00  0.00    +0.000 A 
ATOM      7  C   UNL     1      -0.823  11.419  21.520  0.00  0.00    +0.000 A 
ATOM      8  C   UNL     1      -0.021  10.502  20.771  0.00  0.00    +0.000 A 
ATOM      9  N   UNL     1       0.451   9.250  21.058  0.00  0.00    +0.000 NA
ATOM     10  C   UNL     1       1.209   8.697  20.081  0.00  0.00    +0.000 A 
ATOM     11  C   UNL     1       1.781   7.430  20.259  0.00  0.00    +0.000 A 
ATOM     12  C   UNL     1       2.586   6.853  19.262  0.00  0.00    +0.000 A 
ATOM     13  C   UNL     1       2.826   7.530  18.072  0.00  0.00    +0.000 A 
ATOM     14  C   UNL     1       2.255   8.782  17.882  0.00  0.00    +0.000 A 
ATOM     15  C   UNL     1       1.466   9.373  18.853  0.00  0.00    +0.000 A 
ATOM     16  N   UNL     1       0.993  10.586  18.564  0.00  0.00    +0.000 NA
ATOM     17  C   UNL     1       0.263  11.113  19.559  0.00  0.00    +0.000 A 
ENDROOT
BRANCH  12  18
ATOM     18  S   UNL     1       3.367   5.273  19.488  0.00  0.00    +0.000 S 
ATOM     19  O   UNL     1       4.798   5.508  19.440  0.00  0.00    +0.000 OA
ATOM     20  O   UNL     1       2.751   4.620  20.623  0.00  0.00    +0.000 OA
BRANCH  18  21
ATOM     21  N   UNL     1       2.933   4.410  18.083  0.00  0.00    +0.000 NA
ATOM     22  C   UNL     1       1.529   3.904  17.986  0.00  0.00    +0.000 C 
ATOM     23  C   UNL     1       1.341   2.580  18.735  0.00  0.00    +0.000 C 
ATOM     24  O   UNL     1       2.277   1.585  18.297  0.00  0.00    +0.000 OA
ATOM     25  C   UNL     1       3.633   2.029  18.445  0.00  0.00    +0.000 C 
ATOM     26  C   UNL     1       3.882   3.325  17.668  0.00  0.00    +0.000 C 
ENDBRANCH  18  21
ENDBRANCH  12  18
BRANCH   1  28
ATOM     27  C   UNL     1       1.037  14.277  18.743  0.00  0.00    +0.000 C 
ATOM     28  C   UNL     1      -0.112  13.320  18.483  0.00  0.00    +0.000 C 
ENDBRANCH   1  28
TORSDOF 3
ENDMDL
MODEL 3
REMARK VINA RESULT:      -9.0      4.030      8.589
REMARK  Name = 
REMARK  4 active torsions:
REMARK  status: ('A' for Active; 'I' for Inactive)
REMARK    1  A    between atoms: C_1  and  C_2
REMARK    2  A    between atoms: C_2  and  N_3
REMARK    3  A    between atoms: C_14  and  S_15
REMARK    4  A    between atoms: S_15  and  N_18
REMARK                            x       y       z     vdW  Elec       q    Type
REMARK                         _______ _______ _______ _____ _____    ______ ____
ROOT
ATOM      1  N   UNL     1       4.172   4.392  18.401  0.00  0.00    +0.000 N 
ATOM      2  C   UNL     1       4.832   4.494  17.193  0.00  0.00    +0.000 A 
ATOM      3  C   UNL     1       5.637   3.571  16.502  0.00  0.00    +0.000 A 
ATOM      4  C   UNL     1       6.203   3.969  15.289  0.00  0.00    +0.000 A 
ATOM      5  C   UNL     1       5.975   5.243  14.777  0.00  0.00    +0.000 A 
ATOM      6  C   UNL     1       5.164   6.154  15.465  0.00  0.00    +0.000 A 
ATOM      7  C   UNL     1       4.573   5.782  16.692  0.00  0.00    +0.000 A 
ATOM      8  C   UNL     1       3.717   6.442  17.629  0.00  0.00    +0.000 A 
ATOM      9  N   UNL     1       3.168   7.696  17.644  0.00  0.00    +0.000 NA
ATOM     10  C   UNL     1       2.412   7.965  18.736  0.00  0.00    +0.000 A 
ATOM     11  C   UNL     1       1.816   9.224  18.892  0.00  0.00    +0.000 A 
ATOM     12  C   UNL     1       1.047   9.524  20.029  0.00  0.00    +0.000 A 
ATOM     13  C   UNL     1       0.856   8.570  21.022  0.00  0.00    +0.000 A 
ATOM     14  C   UNL     1       1.434   7.316  20.870  0.00  0.00    +0.000 A 
ATOM     15  C   UNL     1       2.202   7.001  19.764  0.00  0.00    +0.000 A 
ATOM     16  N   UNL     1       2.723   5.774  19.743  0.00  0.00    +0.000 NA
ATOM     17  C   UNL     1       3.481   5.545  18.659  0.00  0.00    +0.000 A 
ENDROOT
BRANCH  12  18
ATOM     18  S   UNL     1       0.328  11.131  20.276  0.00  0.00    +0.000 S 
ATOM     19  O   UNL     1      -1.110  10.953  20.224  0.00  0.00    +0.000 OA
ATOM     20  O   UNL     1       0.969  11.742  21.421  0.00  0.00    +0.000 OA
BRANCH  18  21
ATOM     21  N   UNL     1       0.799  11.995  18.884  0.00  0.00    +0.000 NA
ATOM     22  C   UNL     1       2.095  12.739  18.934  0.00  0.00    +0.000 C 
ATOM     23  C   UNL     1       1.948  14.107  19.610  0.00  0.00    +0.000 C 
ATOM     24  O   UNL     1       0.925  14.899  18.989  0.00  0.00    +0.000 OA
ATOM     25  C   UNL     1      -0.343  14.225  18.992  0.00  0.00    +0.000 C 
ATOM     26  C   UNL     1      -0.256  12.873  18.278  0.00  0.00    +0.000 C 
ENDBRANCH  18  21
ENDBRANCH  12  18
BRANCH   1  28
ATOM     27  C   UNL     1       3.257   2.170  19.002  0.00  0.00    +0.000 C 
ATOM     28  C   UNL     1       4.240   3.278  19.330  0.00  0.00    +0.000 C 
ENDBRANCH   1  28
TORSDOF 3
ENDMDL
MODEL 4
REMARK VINA RESULT:      -8.9      1.192      1.599
REMARK  Name = 
REMARK  4 active torsions:
REMARK  status: ('A' for Active; 'I' for Inactive)
REMARK    1  A    between atoms: C_1  and  C_2
REMARK    2  A    between atoms: C_2  and  N_3
REMARK    3  A    between atoms: C_14  and  S_15
REMARK    4  A    between atoms: S_15  and  N_18
REMARK                            x       y       z     vdW  Elec       q    Type
REMARK                         _______ _______ _______ _____ _____    ______ ____
ROOT
ATOM      1  N   UNL     1      -0.321  11.468  19.503  0.00  0.00    +0.000 N 
ATOM      2  C   UNL     1      -0.886  11.584  20.757  0.00  0.00    +0.000 A 
ATOM      3  C   UNL     1      -1.740  12.562  21.296  0.00  0.00    +0.000 A 
ATOM      4  C   UNL     1      -2.138  12.428  22.628  0.00  0.00    +0.000 A 
ATOM      5  C   UNL     1      -1.703  11.354  23.400  0.00  0.00    +0.000 A 
ATOM      6  C   UNL     1      -0.860  10.377  22.854  0.00  0.00    +0.000 A 
ATOM      7  C   UNL     1      -0.443  10.482  21.508  0.00  0.00    +0.000 A 
ATOM      8  C   UNL     1       0.389   9.688  20.657  0.00  0.00    +0.000 A 
ATOM      9  N   UNL     1       1.077   8.525  20.872  0.00  0.00    +0.000 NA
ATOM     10  C   UNL     1       1.783   8.083  19.803  0.00  0.00    +0.000 A 
ATOM     11  C   UNL     1       2.557   6.919  19.897  0.00  0.00    +0.000 A 
ATOM     12  C   UNL     1       3.310   6.461  18.803  0.00  0.00    +0.000 A 
ATOM     13  C   UNL     1       3.295   7.154  17.598  0.00  0.00    +0.000 A 
ATOM     14  C   UNL     1       2.522   8.303  17.492  0.00  0.00    +0.000 A 
ATOM     15  C   UNL     1       1.780   8.778  18.559  0.00  0.00    +0.000 A 
ATOM     16  N   UNL     1       1.097   9.902  18.342  0.00  0.00    +0.000 NA
ATOM     17  C   UNL     1       0.425  10.323  19.425  0.00  0.00    +0.000 A 
ENDROOT
BRANCH  12  18
ATOM     18  S   UNL     1       4.344   5.019  18.916  0.00  0.00    +0.000 S 
ATOM     19  O   UNL     1       4.498   4.515  17.565  0.00  0.00    +0.000 OA
ATOM     20  O   UNL     1       5.493   5.348  19.731  0.00  0.00    +0.000 OA
BRANCH  18  21
ATOM     21  N   UNL     1       3.383   3.908  19.782  0.00  0.00    +0.000 NA
ATOM     22  C   UNL     1       3.859   2.492  19.860  0.00  0.00    +0.000 C 
ATOM     23  C   UNL     1       3.481   1.690  18.609  0.00  0.00    +0.000 C 
ATOM     24  O   UNL     1       2.071   1.745  18.349  0.00  0.00    +0.000 OA
ATOM     25  C   UNL     1       1.609   3.096  18.207  0.00  0.00    +0.000 C 
ATOM     26  C   UNL     1       1.919   3.925  19.457  0.00  0.00    +0.000 C 
ENDBRANCH  18  21
ENDBRANCH  12  18
BRANCH   1  28
ATOM     27  C   UNL     1       0.588  13.571  18.559  0.00  0.00    +0.000 C 
ATOM     28  C   UNL     1      -0.410  12.437  18.424  0.00  0.00    +0.000 C 
ENDBRANCH   1  28
TORSDOF 3
ENDMDL
MODEL 5
REMARK VINA RESULT:      -8.7      3.836      8.223
REMARK  Name = 
REMARK  4 active torsions:
REMARK  status: ('A' for Active; 'I' for Inactive)
REMARK    1  A    between atoms: C_1  and  C_2
REMARK    2  A    between atoms: C_2  and  N_3
REMARK    3  A    between atoms: C_14  and  S_15
REMARK    4  A    between atoms: S_15  and  N_18
REMARK                            x       y       z     vdW  Elec       q    Type
REMARK                         _______ _______ _______ _____ _____    ______ ____
ROOT
ATOM      1  N   UNL     1       4.201   4.242  18.310  0.00  0.00    +0.000 N 
ATOM      2  C   UNL     1       4.883   4.412  17.122  0.00  0.00    +0.000 A 
ATOM      3  C   UNL     1       5.699   3.529  16.392  0.00  0.00    +0.000 A 
ATOM      4  C   UNL     1       6.286   3.996  15.215  0.00  0.00    +0.000 A 
ATOM      5  C   UNL     1       6.069   5.299  14.774  0.00  0.00    +0.000 A 
ATOM      6  C   UNL     1       5.247   6.170  15.500  0.00  0.00    +0.000 A 
ATOM      7  C   UNL     1       4.633   5.728  16.693  0.00  0.00    +0.000 A 
ATOM      8  C   UNL     1       3.762   6.334  17.651  0.00  0.00    +0.000 A 
ATOM      9  N   UNL     1       3.214   7.586  17.730  0.00  0.00    +0.000 NA
ATOM     10  C   UNL     1       2.439   7.793  18.823  0.00  0.00    +0.000 A 
ATOM     11  C   UNL     1       1.843   9.041  19.042  0.00  0.00    +0.000 A 
ATOM     12  C   UNL     1       1.054   9.276  20.180  0.00  0.00    +0.000 A 
ATOM     13  C   UNL     1       0.844   8.266  21.112  0.00  0.00    +0.000 A 
ATOM     14  C   UNL     1       1.423   7.022  20.898  0.00  0.00    +0.000 A 
ATOM     15  C   UNL     1       2.210   6.770  19.789  0.00  0.00    +0.000 A 
ATOM     16  N   UNL     1       2.730   5.545  19.705  0.00  0.00    +0.000 NA
ATOM     17  C   UNL     1       3.507   5.379  18.623  0.00  0.00    +0.000 A 
ENDROOT
BRANCH  12  18
ATOM     18  S   UNL     1       0.333  10.868  20.509  0.00  0.00    +0.000 S 
ATOM     19  O   UNL     1      -0.854  10.627  21.306  0.00  0.00    +0.000 OA
ATOM     20  O   UNL     1       1.381  11.753  20.968  0.00  0.00    +0.000 OA
BRANCH  18  21
ATOM     21  N   UNL     1      -0.171  11.401  18.970  0.00  0.00    +0.000 NA
ATOM     22  C   UNL     1      -1.011  12.636  18.903  0.00  0.00    +0.000 C 
ATOM     23  C   UNL     1      -2.491  12.339  19.174  0.00  0.00    +0.000 C 
ATOM     24  O   UNL     1      -2.999  11.325  18.296  0.00  0.00    +0.000 OA
ATOM     25  C   UNL     1      -2.243  10.109  18.394  0.00  0.00    +0.000 C 
ATOM     26  C   UNL     1      -0.763  10.348  18.080  0.00  0.00    +0.000 C 
ENDBRANCH  18  21
ENDBRANCH  12  18
BRANCH   1  28
ATOM     27  C   UNL     1       3.332   1.958  18.718  0.00  0.00    +0.000 C 
ATOM     28  C   UNL     1       4.252   3.075  19.174  0.00  0.00    +0.000 C 
ENDBRANCH   1  28
TORSDOF 3
ENDMDL
MODEL 6
REMARK VINA RESULT:      -8.6      4.088      8.611
REMARK  Name = 
REMARK  4 active torsions:
REMARK  status: ('A' for Active; 'I' for Inactive)
REMARK    1  A    between atoms: C_1  and  C_2
REMARK    2  A    between atoms: C_2  and  N_3
REMARK    3  A    between atoms: C_14  and  S_15
REMARK    4  A    between atoms: S_15  and  N_18
REMARK                            x       y       z     vdW  Elec       q    Type
REMARK                         _______ _______ _______ _____ _____    ______ ____
ROOT
ATOM      1  N   UNL     1       4.435   4.731  18.559  0.00  0.00    +0.000 N 
ATOM      2  C   UNL     1       5.064   4.764  17.330  0.00  0.00    +0.000 A 
ATOM      3  C   UNL     1       5.943   3.852  16.720  0.00  0.00    +0.000 A 
ATOM      4  C   UNL     1       6.449   4.169  15.457  0.00  0.00    +0.000 A 
ATOM      5  C   UNL     1       6.092   5.355  14.820  0.00  0.00    +0.000 A 
ATOM      6  C   UNL     1       5.208   6.254  15.429  0.00  0.00    +0.000 A 
ATOM      7  C   UNL     1       4.674   5.961  16.704  0.00  0.00    +0.000 A 
ATOM      8  C   UNL     1       3.773   6.635  17.588  0.00  0.00    +0.000 A 
ATOM      9  N   UNL     1       3.107   7.825  17.485  0.00  0.00    +0.000 NA
ATOM     10  C   UNL     1       2.345   8.139  18.562  0.00  0.00    +0.000 A 
ATOM     11  C   UNL     1       1.634   9.345  18.601  0.00  0.00    +0.000 A 
ATOM     12  C   UNL     1       0.858   9.691  19.719  0.00  0.00    +0.000 A 
ATOM     13  C   UNL     1       0.775   8.835  20.811  0.00  0.00    +0.000 A 
ATOM     14  C   UNL     1       1.468   7.632  20.777  0.00  0.00    +0.000 A 
ATOM     15  C   UNL     1       2.246   7.274  19.691  0.00  0.00    +0.000 A 
ATOM     16  N   UNL     1       2.881   6.106  19.786  0.00  0.00    +0.000 NA
ATOM     17  C   UNL     1       3.641   5.835  18.713  0.00  0.00    +0.000 A 
ENDROOT
BRANCH  12  18
ATOM     18  S   UNL     1      -0.008  11.241  19.814  0.00  0.00    +0.000 S 
ATOM     19  O   UNL     1       0.666  12.147  18.904  0.00  0.00    +0.000 OA
ATOM     20  O   UNL     1      -1.426  10.976  19.699  0.00  0.00    +0.000 OA
BRANCH  18  21
ATOM     21  N   UNL     1       0.301  11.772  21.405  0.00  0.00    +0.000 NA
ATOM     22  C   UNL     1      -0.674  11.382  22.469  0.00  0.00    +0.000 C 
ATOM     23  C   UNL     1      -1.891  12.313  22.502  0.00  0.00    +0.000 C 
ATOM     24  O   UNL     1      -1.505  13.688  22.639  0.00  0.00    +0.000 OA
ATOM     25  C   UNL     1      -0.619  14.098  21.587  0.00  0.00    +0.000 C 
ATOM     26  C   UNL     1       0.640  13.226  21.549  0.00  0.00    +0.000 C 
ENDBRANCH  18  21
ENDBRANCH  12  18
BRANCH   1  28
ATOM     27  C   UNL     1       3.754   2.506  19.409  0.00  0.00    +0.000 C 
ATOM     28  C   UNL     1       4.625   3.734  19.598  0.00  0.00    +0.000 C 
ENDBRANCH   1  28
TORSDOF 3
ENDMDL
MODEL 7
REMARK VINA RESULT:      -8.6      1.867      3.769
REMARK  Name = 
REMARK  4 active torsions:
REMARK  status: ('A' for Active; 'I' for Inactive)
REMARK    1  A    between atoms: C_1  and  C_2
REMARK    2  A    between atoms: C_2  and  N_3
REMARK    3  A    between atoms: C_14  and  S_15
REMARK    4  A    between atoms: S_15  and  N_18
REMARK                            x       y       z     vdW  Elec       q    Type
REMARK                         _______ _______ _______ _____ _____    ______ ____
ROOT
ATOM      1  N   UNL     1      -0.135  10.185  21.300  0.00  0.00    +0.000 N 
ATOM      2  C   UNL     1      -0.204  11.336  20.541  0.00  0.00    +0.000 A 
ATOM      3  C   UNL     1      -0.858  12.559  20.778  0.00  0.00    +0.000 A 
ATOM      4  C   UNL     1      -0.770  13.553  19.800  0.00  0.00    +0.000 A 
ATOM      5  C   UNL     1      -0.054  13.339  18.625  0.00  0.00    +0.000 A 
ATOM      6  C   UNL     1       0.603  12.123  18.400  0.00  0.00    +0.000 A 
ATOM      7  C   UNL     1       0.538  11.098  19.371  0.00  0.00    +0.000 A 
ATOM      8  C   UNL     1       1.073   9.776  19.462  0.00  0.00    +0.000 A 
ATOM      9  N   UNL     1       1.854   9.041  18.612  0.00  0.00    +0.000 NA
ATOM     10  C   UNL     1       2.144   7.792  19.052  0.00  0.00    +0.000 A 
ATOM     11  C   UNL     1       2.909   6.923  18.263  0.00  0.00    +0.000 A 
ATOM     12  C   UNL     1       3.200   5.619  18.698  0.00  0.00    +0.000 A 
ATOM     13  C   UNL     1       2.737   5.167  19.928  0.00  0.00    +0.000 A 
ATOM     14  C   UNL     1       1.985   6.025  20.721  0.00  0.00    +0.000 A 
ATOM     15  C   UNL     1       1.679   7.310  20.310  0.00  0.00    +0.000 A 
ATOM     16  N   UNL     1       0.933   8.030  21.147  0.00  0.00    +0.000 NA
ATOM     17  C   UNL     1       0.648   9.253  20.674  0.00  0.00    +0.000 A 
ENDROOT
BRANCH  12  18
ATOM     18  S   UNL     1       4.121   4.480  17.691  0.00  0.00    +0.000 S 
ATOM     19  O   UNL     1       4.922   3.681  18.598  0.00  0.00    +0.000 OA
ATOM     20  O   UNL     1       3.208   3.864  16.752  0.00  0.00    +0.000 OA
BRANCH  18  21
ATOM     21  N   UNL     1       5.178   5.490  16.813  0.00  0.00    +0.000 NA
ATOM     22  C   UNL     1       5.494   5.106  15.403  0.00  0.00    +0.000 C 
ATOM     23  C   UNL     1       6.603   4.051  15.329  0.00  0.00    +0.000 C 
ATOM     24  O   UNL     1       7.786   4.474  16.023  0.00  0.00    +0.000 OA
ATOM     25  C   UNL     1       7.512   4.784  17.397  0.00  0.00    +0.000 C 
ATOM     26  C   UNL     1       6.444   5.874  17.520  0.00  0.00    +0.000 C 
ENDBRANCH  18  21
ENDBRANCH  12  18
BRANCH   1  28
ATOM     27  C   UNL     1       0.088   9.579  23.692  0.00  0.00    +0.000 C 
ATOM     28  C   UNL     1      -0.841   9.929  22.544  0.00  0.00    +0.000 C 
ENDBRANCH   1  28
TORSDOF 3
ENDMDL
MODEL 8
REMARK VINA RESULT:      -8.6      4.061      8.525
REMARK  Name = 
REMARK  4 active torsions:
REMARK  status: ('A' for Active; 'I' for Inactive)
REMARK    1  A    between atoms: C_1  and  C_2
REMARK    2  A    between atoms: C_2  and  N_3
REMARK    3  A    between atoms: C_14  and  S_15
REMARK    4  A    between atoms: S_15  and  N_18
REMARK                            x       y       z     vdW  Elec       q    Type
REMARK                         _______ _______ _______ _____ _____    ______ ____
ROOT
ATOM      1  N   UNL     1       4.016   4.406  18.389  0.00  0.00    +0.000 N 
ATOM      2  C   UNL     1       4.714   4.458  17.198  0.00  0.00    +0.000 A 
ATOM      3  C   UNL     1       5.471   3.480  16.529  0.00  0.00    +0.000 A 
ATOM      4  C   UNL     1       6.094   3.835  15.331  0.00  0.00    +0.000 A 
ATOM      5  C   UNL     1       5.969   5.121  14.812  0.00  0.00    +0.000 A 
ATOM      6  C   UNL     1       5.205   6.088  15.478  0.00  0.00    +0.000 A 
ATOM      7  C   UNL     1       4.557   5.760  16.690  0.00  0.00    +0.000 A 
ATOM      8  C   UNL     1       3.725   6.481  17.603  0.00  0.00    +0.000 A 
ATOM      9  N   UNL     1       3.264   7.769  17.603  0.00  0.00    +0.000 NA
ATOM     10  C   UNL     1       2.500   8.093  18.675  0.00  0.00    +0.000 A 
ATOM     11  C   UNL     1       1.989   9.390  18.814  0.00  0.00    +0.000 A 
ATOM     12  C   UNL     1       1.213   9.746  19.930  0.00  0.00    +0.000 A 
ATOM     13  C   UNL     1       0.930   8.810  20.918  0.00  0.00    +0.000 A 
ATOM     14  C   UNL     1       1.424   7.519  20.783  0.00  0.00    +0.000 A 
ATOM     15  C   UNL     1       2.197   7.148  19.698  0.00  0.00    +0.000 A 
ATOM     16  N   UNL     1       2.632   5.888  19.691  0.00  0.00    +0.000 NA
ATOM     17  C   UNL     1       3.400   5.604  18.628  0.00  0.00    +0.000 A 
ENDROOT
BRANCH  12  18
ATOM     18  S   UNL     1       0.601  11.399  20.157  0.00  0.00    +0.000 S 
ATOM     19  O   UNL     1       1.408  11.998  21.203  0.00  0.00    +0.000 OA
ATOM     20  O   UNL     1       0.477  12.019  18.856  0.00  0.00    +0.000 OA
BRANCH  18  21
ATOM     21  N   UNL     1      -0.968  11.161  20.780  0.00  0.00    +0.000 NA
ATOM     22  C   UNL     1      -2.098  11.870  20.105  0.00  0.00    +0.000 C 
ATOM     23  C   UNL     1      -2.236  13.319  20.586  0.00  0.00    +0.000 C 
ATOM     24  O   UNL     1      -2.362  13.395  22.013  0.00  0.00    +0.000 OA
ATOM     25  C   UNL     1      -1.251  12.775  22.678  0.00  0.00    +0.000 C 
ATOM     26  C   UNL     1      -1.105  11.307  22.266  0.00  0.00    +0.000 C 
ENDBRANCH  18  21
ENDBRANCH  12  18
BRANCH   1  28
ATOM     27  C   UNL     1       2.888   2.290  19.009  0.00  0.00    +0.000 C 
ATOM     28  C   UNL     1       3.983   3.292  19.320  0.00  0.00    +0.000 C 
ENDBRANCH   1  28
TORSDOF 3
ENDMDL
MODEL 9
REMARK VINA RESULT:      -8.5      4.340      8.629
REMARK  Name = 
REMARK  4 active torsions:
REMARK  status: ('A' for Active; 'I' for Inactive)
REMARK    1  A    between atoms: C_1  and  C_2
REMARK    2  A    between atoms: C_2  and  N_3
REMARK    3  A    between atoms: C_14  and  S_15
REMARK    4  A    between atoms: S_15  and  N_18
REMARK                            x       y       z     vdW  Elec       q    Type
REMARK                         _______ _______ _______ _____ _____    ______ ____
ROOT
ATOM      1  N   UNL     1       2.945   4.825  19.578  0.00  0.00    +0.000 N 
ATOM      2  C   UNL     1       3.719   4.751  18.438  0.00  0.00    +0.000 A 
ATOM      3  C   UNL     1       4.451   3.683  17.889  0.00  0.00    +0.000 A 
ATOM      4  C   UNL     1       5.173   3.913  16.716  0.00  0.00    +0.000 A 
ATOM      5  C   UNL     1       5.166   5.164  16.105  0.00  0.00    +0.000 A 
ATOM      6  C   UNL     1       4.426   6.221  16.651  0.00  0.00    +0.000 A 
ATOM      7  C   UNL     1       3.682   6.020  17.835  0.00  0.00    +0.000 A 
ATOM      8  C   UNL     1       2.842   6.853  18.638  0.00  0.00    +0.000 A 
ATOM      9  N   UNL     1       2.468   8.164  18.521  0.00  0.00    +0.000 NA
ATOM     10  C   UNL     1       1.660   8.610  19.514  0.00  0.00    +0.000 A 
ATOM     11  C   UNL     1       1.228   9.942  19.531  0.00  0.00    +0.000 A 
ATOM     12  C   UNL     1       0.407  10.423  20.565  0.00  0.00    +0.000 A 
ATOM     13  C   UNL     1       0.000   9.579  21.592  0.00  0.00    +0.000 A 
ATOM     14  C   UNL     1       0.415   8.253  21.577  0.00  0.00    +0.000 A 
ATOM     15  C   UNL     1       1.230   7.760  20.574  0.00  0.00    +0.000 A 
ATOM     16  N   UNL     1       1.580   6.478  20.682  0.00  0.00    +0.000 NA
ATOM     17  C   UNL     1       2.395   6.074  19.695  0.00  0.00    +0.000 A 
ENDROOT
BRANCH  12  18
ATOM     18  S   UNL     1      -0.108  12.123  20.639  0.00  0.00    +0.000 S 
ATOM     19  O   UNL     1      -1.523  12.140  20.322  0.00  0.00    +0.000 OA
ATOM     20  O   UNL     1       0.394  12.695  21.870  0.00  0.00    +0.000 OA
BRANCH  18  21
ATOM     21  N   UNL     1       0.728  12.848  19.342  0.00  0.00    +0.000 NA
ATOM     22  C   UNL     1       2.008  13.556  19.650  0.00  0.00    +0.000 C 
ATOM     23  C   UNL     1       1.768  14.981  20.160  0.00  0.00    +0.000 C 
ATOM     24  O   UNL     1       0.967  15.745  19.248  0.00  0.00    +0.000 OA
ATOM     25  C   UNL     1      -0.295  15.111  18.991  0.00  0.00    +0.000 C 
ATOM     26  C   UNL     1      -0.105  13.699  18.429  0.00  0.00    +0.000 C 
ENDBRANCH  18  21
ENDBRANCH  12  18
BRANCH   1  28
ATOM     27  C   UNL     1       1.532   2.947  20.361  0.00  0.00    +0.000 C 
ATOM     28  C   UNL     1       2.779   3.784  20.577  0.00  0.00    +0.000 C 
ENDBRANCH   1  28
TORSDOF 3
ENDMDL
