MODEL 1
REMARK VINA RESULT:      -7.9      0.000      0.000
REMARK  Name = 
REMARK  14 active torsions:
REMARK  status: ('A' for Active; 'I' for Inactive)
REMARK    1  A    between atoms: C_1  and  C_2
REMARK    2  A    between atoms: C_2  and  C_3
REMARK    3  A    between atoms: C_4  and  C_5
REMARK    4  A    between atoms: C_5  and  C_6
REMARK    5  A    between atoms: C_6  and  C_7
REMARK    6  A    between atoms: C_7  and  C_8
REMARK    7  A    between atoms: C_9  and  C_10
REMARK    8  A    between atoms: C_10  and  C_11
REMARK    9  A    between atoms: C_11  and  C_12
REMARK   10  A    between atoms: C_12  and  C_13
REMARK   11  A    between atoms: C_14  and  C_15
REMARK   12  A    between atoms: C_15  and  C_16
REMARK   13  A    between atoms: C_17  and  O_18
REMARK   14  A    between atoms: C_22  and  O_23
REMARK                            x       y       z     vdW  Elec       q    Type
REMARK                         _______ _______ _______ _____ _____    ______ ____
ROOT
ATOM      1  C   UNL     1       7.109   4.927  16.961  0.00  0.00    +0.000 C 
ENDROOT
BRANCH   1   2
ATOM      2  C   UNL     1       5.731   4.417  17.237  0.00  0.00    +0.000 A 
ATOM      3  C   UNL     1       4.795   4.144  16.316  0.00  0.00    +0.000 A 
ATOM      4  O   UNL     1       3.507   3.733  16.628  0.00  0.00    +0.000 OA
ATOM      5  C   UNL     1       3.102   3.793  17.931  0.00  0.00    +0.000 A 
ATOM      6  C   UNL     1       1.748   3.603  18.192  0.00  0.00    +0.000 A 
ATOM      7  C   UNL     1       1.290   3.713  19.504  0.00  0.00    +0.000 A 
ATOM      8  C   UNL     1       2.163   3.985  20.553  0.00  0.00    +0.000 A 
ATOM      9  C   UNL     1       3.524   4.118  20.298  0.00  0.00    +0.000 A 
ATOM     10  C   UNL     1       3.975   4.041  18.985  0.00  0.00    +0.000 A 
ATOM     11  C   UNL     1       5.391   4.267  18.679  0.00  0.00    +0.000 A 
ATOM     12  O   UNL     1       6.211   4.371  19.567  0.00  0.00    +0.000 OA
BRANCH   3  13
ATOM     13  O   UNL     1       5.040   4.264  14.958  0.00  0.00    +0.000 OA
ATOM     14  H   UNL     1       5.541   3.496  14.646  0.00  0.00    +0.000 HD
ENDBRANCH   3  13
BRANCH   7  15
ATOM     15  O   UNL     1      -0.028   3.555  19.810  0.00  0.00    +0.000 OA
ATOM     16  H   UNL     1      -0.338   2.717  19.424  0.00  0.00    +0.000 HD
ENDBRANCH   7  15
ENDBRANCH   1   2
BRANCH   1  19
ATOM     17  C   UNL     1       7.690   7.208  17.836  0.00  0.00    +0.000 C 
ATOM     18  C   UNL     1       8.304   6.568  19.059  0.00  0.00    +0.000 C 
ATOM     19  C   UNL     1       7.136   6.428  16.885  0.00  0.00    +0.000 C 
BRANCH  17  20
ATOM     20  C   UNL     1       7.667   8.707  17.646  0.00  0.00    +0.000 C 
BRANCH  20  21
ATOM     21  C   UNL     1       8.570   9.427  18.627  0.00  0.00    +0.000 C 
BRANCH  21  24
ATOM     22  C   UNL     1      10.052  11.386  18.869  0.00  0.00    +0.000 C 
ATOM     23  C   UNL     1       9.918  11.244  20.373  0.00  0.00    +0.000 C 
ATOM     24  C   UNL     1       9.409  10.523  18.056  0.00  0.00    +0.000 C 
BRANCH  22  25
ATOM     25  C   UNL     1      10.897  12.480  18.256  0.00  0.00    +0.000 C 
BRANCH  25  26
ATOM     26  C   UNL     1      10.329  13.878  18.473  0.00  0.00    +0.000 C 
BRANCH  26  30
ATOM     27  C   UNL     1       6.583  14.592  17.852  0.00  0.00    +0.000 C 
ATOM     28  C   UNL     1       7.894  14.362  18.544  0.00  0.00    +0.000 C 
ATOM     29  C   UNL     1       7.912  14.405  20.050  0.00  0.00    +0.000 C 
ATOM     30  C   UNL     1       8.999  14.104  17.830  0.00  0.00    +0.000 C 
ENDBRANCH  26  30
ENDBRANCH  25  26
ENDBRANCH  22  25
ENDBRANCH  21  24
ENDBRANCH  20  21
ENDBRANCH  17  20
ENDBRANCH   1  19
TORSDOF 10
ENDMDL
MODEL 2
REMARK VINA RESULT:      -7.7      1.854      2.415
REMARK  Name = 
REMARK  14 active torsions:
REMARK  status: ('A' for Active; 'I' for Inactive)
REMARK    1  A    between atoms: C_1  and  C_2
REMARK    2  A    between atoms: C_2  and  C_3
REMARK    3  A    between atoms: C_4  and  C_5
REMARK    4  A    between atoms: C_5  and  C_6
REMARK    5  A    between atoms: C_6  and  C_7
REMARK    6  A    between atoms: C_7  and  C_8
REMARK    7  A    between atoms: C_9  and  C_10
REMARK    8  A    between atoms: C_10  and  C_11
REMARK    9  A    between atoms: C_11  and  C_12
REMARK   10  A    between atoms: C_12  and  C_13
REMARK   11  A    between atoms: C_14  and  C_15
REMARK   12  A    between atoms: C_15  and  C_16
REMARK   13  A    between atoms: C_17  and  O_18
REMARK   14  A    between atoms: C_22  and  O_23
REMARK                            x       y       z     vdW  Elec       q    Type
REMARK                         _______ _______ _______ _____ _____    ______ ____
ROOT
ATOM      1  C   UNL     1       5.151   6.538  16.347  0.00  0.00    +0.000 C 
ENDROOT
BRANCH   1   2
ATOM      2  C   UNL     1       4.055   6.047  17.237  0.00  0.00    +0.000 A 
ATOM      3  C   UNL     1       3.236   6.815  17.970  0.00  0.00    +0.000 A 
ATOM      4  O   UNL     1       2.274   6.308  18.832  0.00  0.00    +0.000 OA
ATOM      5  C   UNL     1       2.282   4.968  19.101  0.00  0.00    +0.000 A 
ATOM      6  C   UNL     1       1.469   4.516  20.137  0.00  0.00    +0.000 A 
ATOM      7  C   UNL     1       1.494   3.165  20.475  0.00  0.00    +0.000 A 
ATOM      8  C   UNL     1       2.297   2.262  19.784  0.00  0.00    +0.000 A 
ATOM      9  C   UNL     1       3.065   2.704  18.712  0.00  0.00    +0.000 A 
ATOM     10  C   UNL     1       3.064   4.059  18.396  0.00  0.00    +0.000 A 
ATOM     11  C   UNL     1       3.933   4.566  17.330  0.00  0.00    +0.000 A 
ATOM     12  O   UNL     1       4.545   3.804  16.610  0.00  0.00    +0.000 OA
BRANCH   3  13
ATOM     13  O   UNL     1       3.294   8.199  17.936  0.00  0.00    +0.000 OA
ATOM     14  H   UNL     1       3.501   8.541  18.818  0.00  0.00    +0.000 HD
ENDBRANCH   3  13
BRANCH   7  15
ATOM     15  O   UNL     1       0.732   2.675  21.493  0.00  0.00    +0.000 OA
ATOM     16  H   UNL     1       1.216   2.795  22.328  0.00  0.00    +0.000 HD
ENDBRANCH   7  15
ENDBRANCH   1   2
BRANCH   1  19
ATOM     17  C   UNL     1       7.285   6.733  17.655  0.00  0.00    +0.000 C 
ATOM     18  C   UNL     1       7.500   5.245  17.503  0.00  0.00    +0.000 C 
ATOM     19  C   UNL     1       6.187   7.304  17.120  0.00  0.00    +0.000 C 
BRANCH  17  20
ATOM     20  C   UNL     1       8.265   7.607  18.404  0.00  0.00    +0.000 C 
BRANCH  20  21
ATOM     21  C   UNL     1       8.146   9.067  18.019  0.00  0.00    +0.000 C 
BRANCH  21  24
ATOM     22  C   UNL     1       9.102  11.314  18.391  0.00  0.00    +0.000 C 
ATOM     23  C   UNL     1       8.091  11.858  17.399  0.00  0.00    +0.000 C 
ATOM     24  C   UNL     1       9.118   9.994  18.673  0.00  0.00    +0.000 C 
BRANCH  22  25
ATOM     25  C   UNL     1      10.096  12.223  19.075  0.00  0.00    +0.000 C 
BRANCH  25  26
ATOM     26  C   UNL     1       9.550  13.619  19.352  0.00  0.00    +0.000 C 
BRANCH  26  30
ATOM     27  C   UNL     1      10.287  16.720  17.169  0.00  0.00    +0.000 C 
ATOM     28  C   UNL     1       9.555  15.643  17.913  0.00  0.00    +0.000 C 
ATOM     29  C   UNL     1       8.050  15.641  17.848  0.00  0.00    +0.000 C 
ATOM     30  C   UNL     1      10.235  14.706  18.588  0.00  0.00    +0.000 C 
ENDBRANCH  26  30
ENDBRANCH  25  26
ENDBRANCH  22  25
ENDBRANCH  21  24
ENDBRANCH  20  21
ENDBRANCH  17  20
ENDBRANCH   1  19
TORSDOF 10
ENDMDL
MODEL 3
REMARK VINA RESULT:      -7.5      4.518      8.369
REMARK  Name = 
REMARK  14 active torsions:
REMARK  status: ('A' for Active; 'I' for Inactive)
REMARK    1  A    between atoms: C_1  and  C_2
REMARK    2  A    between atoms: C_2  and  C_3
REMARK    3  A    between atoms: C_4  and  C_5
REMARK    4  A    between atoms: C_5  and  C_6
REMARK    5  A    between atoms: C_6  and  C_7
REMARK    6  A    between atoms: C_7  and  C_8
REMARK    7  A    between atoms: C_9  and  C_10
REMARK    8  A    between atoms: C_10  and  C_11
REMARK    9  A    between atoms: C_11  and  C_12
REMARK   10  A    between atoms: C_12  and  C_13
REMARK   11  A    between atoms: C_14  and  C_15
REMARK   12  A    between atoms: C_15  and  C_16
REMARK   13  A    between atoms: C_17  and  O_18
REMARK   14  A    between atoms: C_22  and  O_23
REMARK                            x       y       z     vdW  Elec       q    Type
REMARK                         _______ _______ _______ _____ _____    ______ ____
ROOT
ATOM      1  C   UNL     1       2.664   6.632  19.659  0.00  0.00    +0.000 C 
ENDROOT
BRANCH   1   2
ATOM      2  C   UNL     1       2.024   7.949  19.356  0.00  0.00    +0.000 A 
ATOM      3  C   UNL     1       2.130   8.626  18.204  0.00  0.00    +0.000 A 
ATOM      4  O   UNL     1       1.568   9.878  17.994  0.00  0.00    +0.000 OA
ATOM      5  C   UNL     1       1.046  10.545  19.066  0.00  0.00    +0.000 A 
ATOM      6  C   UNL     1       0.702  11.882  18.885  0.00  0.00    +0.000 A 
ATOM      7  C   UNL     1       0.219  12.608  19.971  0.00  0.00    +0.000 A 
ATOM      8  C   UNL     1       0.055  12.017  21.220  0.00  0.00    +0.000 A 
ATOM      9  C   UNL     1       0.344  10.667  21.386  0.00  0.00    +0.000 A 
ATOM     10  C   UNL     1       0.858   9.951  20.309  0.00  0.00    +0.000 A 
ATOM     11  C   UNL     1       1.256   8.550  20.480  0.00  0.00    +0.000 A 
ATOM     12  O   UNL     1       1.005   7.953  21.507  0.00  0.00    +0.000 OA
BRANCH   3  13
ATOM     13  O   UNL     1       2.831   8.130  17.117  0.00  0.00    +0.000 OA
ATOM     14  H   UNL     1       2.499   8.532  16.301  0.00  0.00    +0.000 HD
ENDBRANCH   3  13
BRANCH   7  15
ATOM     15  O   UNL     1      -0.113  13.924  19.852  0.00  0.00    +0.000 OA
ATOM     16  H   UNL     1      -1.028  14.042  20.160  0.00  0.00    +0.000 HD
ENDBRANCH   7  15
ENDBRANCH   1   2
BRANCH   1  19
ATOM     17  C   UNL     1       1.624   4.404  20.169  0.00  0.00    +0.000 C 
ATOM     18  C   UNL     1       2.483   4.300  21.407  0.00  0.00    +0.000 C 
ATOM     19  C   UNL     1       1.734   5.487  19.373  0.00  0.00    +0.000 C 
BRANCH  17  20
ATOM     20  C   UNL     1       0.645   3.319  19.784  0.00  0.00    +0.000 C 
BRANCH  20  21
ATOM     21  C   UNL     1       1.118   2.510  18.593  0.00  0.00    +0.000 C 
BRANCH  21  24
ATOM     22  C   UNL     1       3.406   2.738  17.694  0.00  0.00    +0.000 C 
ATOM     23  C   UNL     1       3.817   1.569  18.570  0.00  0.00    +0.000 C 
ATOM     24  C   UNL     1       2.129   3.173  17.717  0.00  0.00    +0.000 C 
BRANCH  22  25
ATOM     25  C   UNL     1       4.401   3.429  16.791  0.00  0.00    +0.000 C 
BRANCH  25  26
ATOM     26  C   UNL     1       4.788   4.824  17.271  0.00  0.00    +0.000 C 
BRANCH  26  30
ATOM     27  C   UNL     1       7.835   5.715  19.473  0.00  0.00    +0.000 C 
ATOM     28  C   UNL     1       6.819   5.738  18.370  0.00  0.00    +0.000 C 
ATOM     29  C   UNL     1       6.968   6.785  17.297  0.00  0.00    +0.000 C 
ATOM     30  C   UNL     1       5.829   4.834  18.342  0.00  0.00    +0.000 C 
ENDBRANCH  26  30
ENDBRANCH  25  26
ENDBRANCH  22  25
ENDBRANCH  21  24
ENDBRANCH  20  21
ENDBRANCH  17  20
ENDBRANCH   1  19
TORSDOF 10
ENDMDL
MODEL 4
REMARK VINA RESULT:      -7.5      1.016      1.309
REMARK  Name = 
REMARK  14 active torsions:
REMARK  status: ('A' for Active; 'I' for Inactive)
REMARK    1  A    between atoms: C_1  and  C_2
REMARK    2  A    between atoms: C_2  and  C_3
REMARK    3  A    between atoms: C_4  and  C_5
REMARK    4  A    between atoms: C_5  and  C_6
REMARK    5  A    between atoms: C_6  and  C_7
REMARK    6  A    between atoms: C_7  and  C_8
REMARK    7  A    between atoms: C_9  and  C_10
REMARK    8  A    between atoms: C_10  and  C_11
REMARK    9  A    between atoms: C_11  and  C_12
REMARK   10  A    between atoms: C_12  and  C_13
REMARK   11  A    between atoms: C_14  and  C_15
REMARK   12  A    between atoms: C_15  and  C_16
REMARK   13  A    between atoms: C_17  and  O_18
REMARK   14  A    between atoms: C_22  and  O_23
REMARK                            x       y       z     vdW  Elec       q    Type
REMARK                         _______ _______ _______ _____ _____    ______ ____
ROOT
ATOM      1  C   UNL     1       7.091   5.052  16.915  0.00  0.00    +0.000 C 
ENDROOT
BRANCH   1   2
ATOM      2  C   UNL     1       5.751   4.424  17.128  0.00  0.00    +0.000 A 
ATOM      3  C   UNL     1       4.867   4.116  16.168  0.00  0.00    +0.000 A 
ATOM      4  O   UNL     1       3.606   3.592  16.424  0.00  0.00    +0.000 OA
ATOM      5  C   UNL     1       3.162   3.568  17.715  0.00  0.00    +0.000 A 
ATOM      6  C   UNL     1       1.820   3.262  17.926  0.00  0.00    +0.000 A 
ATOM      7  C   UNL     1       1.318   3.282  19.226  0.00  0.00    +0.000 A 
ATOM      8  C   UNL     1       2.136   3.581  20.312  0.00  0.00    +0.000 A 
ATOM      9  C   UNL     1       3.489   3.830  20.105  0.00  0.00    +0.000 A 
ATOM     10  C   UNL     1       3.982   3.842  18.804  0.00  0.00    +0.000 A 
ATOM     11  C   UNL     1       5.383   4.190  18.551  0.00  0.00    +0.000 A 
ATOM     12  O   UNL     1       6.167   4.322  19.469  0.00  0.00    +0.000 OA
BRANCH   3  13
ATOM     13  O   UNL     1       5.139   4.309  14.824  0.00  0.00    +0.000 OA
ATOM     14  H   UNL     1       4.957   3.495  14.332  0.00  0.00    +0.000 HD
ENDBRANCH   3  13
BRANCH   7  15
ATOM     15  O   UNL     1       0.009   3.009  19.484  0.00  0.00    +0.000 OA
ATOM     16  H   UNL     1      -0.037   2.235  20.070  0.00  0.00    +0.000 HD
ENDBRANCH   7  15
ENDBRANCH   1   2
BRANCH   1  19
ATOM     17  C   UNL     1       7.562   7.320  17.883  0.00  0.00    +0.000 C 
ATOM     18  C   UNL     1       8.298   6.664  19.028  0.00  0.00    +0.000 C 
ATOM     19  C   UNL     1       7.005   6.552  16.925  0.00  0.00    +0.000 C 
BRANCH  17  20
ATOM     20  C   UNL     1       7.418   8.821  17.782  0.00  0.00    +0.000 C 
BRANCH  20  21
ATOM     21  C   UNL     1       8.754   9.534  17.836  0.00  0.00    +0.000 C 
BRANCH  21  24
ATOM     22  C   UNL     1      10.063  11.103  19.222  0.00  0.00    +0.000 C 
ATOM     23  C   UNL     1      10.773  11.554  17.960  0.00  0.00    +0.000 C 
ATOM     24  C   UNL     1       9.113  10.147  19.149  0.00  0.00    +0.000 C 
BRANCH  22  25
ATOM     25  C   UNL     1      10.396  11.705  20.567  0.00  0.00    +0.000 C 
BRANCH  25  26
ATOM     26  C   UNL     1      10.087  13.195  20.658  0.00  0.00    +0.000 C 
BRANCH  26  30
ATOM     27  C   UNL     1       6.604  14.855  20.859  0.00  0.00    +0.000 C 
ATOM     28  C   UNL     1       8.039  14.592  20.509  0.00  0.00    +0.000 C 
ATOM     29  C   UNL     1       8.747  15.596  19.638  0.00  0.00    +0.000 C 
ATOM     30  C   UNL     1       8.663  13.505  20.986  0.00  0.00    +0.000 C 
ENDBRANCH  26  30
ENDBRANCH  25  26
ENDBRANCH  22  25
ENDBRANCH  21  24
ENDBRANCH  20  21
ENDBRANCH  17  20
ENDBRANCH   1  19
TORSDOF 10
ENDMDL
MODEL 5
REMARK VINA RESULT:      -7.4      1.025      1.507
REMARK  Name = 
REMARK  14 active torsions:
REMARK  status: ('A' for Active; 'I' for Inactive)
REMARK    1  A    between atoms: C_1  and  C_2
REMARK    2  A    between atoms: C_2  and  C_3
REMARK    3  A    between atoms: C_4  and  C_5
REMARK    4  A    between atoms: C_5  and  C_6
REMARK    5  A    between atoms: C_6  and  C_7
REMARK    6  A    between atoms: C_7  and  C_8
REMARK    7  A    between atoms: C_9  and  C_10
REMARK    8  A    between atoms: C_10  and  C_11
REMARK    9  A    between atoms: C_11  and  C_12
REMARK   10  A    between atoms: C_12  and  C_13
REMARK   11  A    between atoms: C_14  and  C_15
REMARK   12  A    between atoms: C_15  and  C_16
REMARK   13  A    between atoms: C_17  and  O_18
REMARK   14  A    between atoms: C_22  and  O_23
REMARK                            x       y       z     vdW  Elec       q    Type
REMARK                         _______ _______ _______ _____ _____    ______ ____
ROOT
ATOM      1  C   UNL     1       7.236   5.054  17.152  0.00  0.00    +0.000 C 
ENDROOT
BRANCH   1   2
ATOM      2  C   UNL     1       5.863   4.519  17.410  0.00  0.00    +0.000 A 
ATOM      3  C   UNL     1       4.966   4.179  16.474  0.00  0.00    +0.000 A 
ATOM      4  O   UNL     1       3.679   3.747  16.765  0.00  0.00    +0.000 OA
ATOM      5  C   UNL     1       3.231   3.855  18.051  0.00  0.00    +0.000 A 
ATOM      6  C   UNL     1       1.875   3.640  18.279  0.00  0.00    +0.000 A 
ATOM      7  C   UNL     1       1.373   3.797  19.569  0.00  0.00    +0.000 A 
ATOM      8  C   UNL     1       2.204   4.141  20.631  0.00  0.00    +0.000 A 
ATOM      9  C   UNL     1       3.569   4.300  20.412  0.00  0.00    +0.000 A 
ATOM     10  C   UNL     1       4.063   4.175  19.118  0.00  0.00    +0.000 A 
ATOM     11  C   UNL     1       5.482   4.426  18.845  0.00  0.00    +0.000 A 
ATOM     12  O   UNL     1       6.270   4.593  19.753  0.00  0.00    +0.000 OA
BRANCH   3  13
ATOM     13  O   UNL     1       5.250   4.243  15.119  0.00  0.00    +0.000 OA
ATOM     14  H   UNL     1       5.584   5.124  14.896  0.00  0.00    +0.000 HD
ENDBRANCH   3  13
BRANCH   7  15
ATOM     15  O   UNL     1       0.050   3.617  19.842  0.00  0.00    +0.000 OA
ATOM     16  H   UNL     1      -0.454   4.333  19.419  0.00  0.00    +0.000 HD
ENDBRANCH   7  15
ENDBRANCH   1   2
BRANCH   1  19
ATOM     17  C   UNL     1       7.763   7.419  17.811  0.00  0.00    +0.000 C 
ATOM     18  C   UNL     1       8.416   6.908  19.075  0.00  0.00    +0.000 C 
ATOM     19  C   UNL     1       7.217   6.542  16.944  0.00  0.00    +0.000 C 
BRANCH  17  20
ATOM     20  C   UNL     1       7.693   8.894  17.491  0.00  0.00    +0.000 C 
BRANCH  20  21
ATOM     21  C   UNL     1       8.274   9.753  18.594  0.00  0.00    +0.000 C 
BRANCH  21  24
ATOM     22  C   UNL     1       9.731  11.607  17.861  0.00  0.00    +0.000 C 
ATOM     23  C   UNL     1       8.481  12.432  17.616  0.00  0.00    +0.000 C 
ATOM     24  C   UNL     1       9.618  10.343  18.321  0.00  0.00    +0.000 C 
BRANCH  22  25
ATOM     25  C   UNL     1      11.108  12.173  17.600  0.00  0.00    +0.000 C 
BRANCH  25  26
ATOM     26  C   UNL     1      11.376  13.479  18.339  0.00  0.00    +0.000 C 
BRANCH  26  30
ATOM     27  C   UNL     1       9.914  14.191  21.844  0.00  0.00    +0.000 C 
ATOM     28  C   UNL     1      10.206  14.287  20.376  0.00  0.00    +0.000 C 
ATOM     29  C   UNL     1       9.530  15.383  19.593  0.00  0.00    +0.000 C 
ATOM     30  C   UNL     1      11.061  13.431  19.799  0.00  0.00    +0.000 C 
ENDBRANCH  26  30
ENDBRANCH  25  26
ENDBRANCH  22  25
ENDBRANCH  21  24
ENDBRANCH  20  21
ENDBRANCH  17  20
ENDBRANCH   1  19
TORSDOF 10
ENDMDL
MODEL 6
REMARK VINA RESULT:      -7.4      1.701      2.118
REMARK  Name = 
REMARK  14 active torsions:
REMARK  status: ('A' for Active; 'I' for Inactive)
REMARK    1  A    between atoms: C_1  and  C_2
REMARK    2  A    between atoms: C_2  and  C_3
REMARK    3  A    between atoms: C_4  and  C_5
REMARK    4  A    between atoms: C_5  and  C_6
REMARK    5  A    between atoms: C_6  and  C_7
REMARK    6  A    between atoms: C_7  and  C_8
REMARK    7  A    between atoms: C_9  and  C_10
REMARK    8  A    between atoms: C_10  and  C_11
REMARK    9  A    between atoms: C_11  and  C_12
REMARK   10  A    between atoms: C_12  and  C_13
REMARK   11  A    between atoms: C_14  and  C_15
REMARK   12  A    between atoms: C_15  and  C_16
REMARK   13  A    between atoms: C_17  and  O_18
REMARK   14  A    between atoms: C_22  and  O_23
REMARK                            x       y       z     vdW  Elec       q    Type
REMARK                         _______ _______ _______ _____ _____    ______ ____
ROOT
ATOM      1  C   UNL     1       5.303   6.587  16.383  0.00  0.00    +0.000 C 
ENDROOT
BRANCH   1   2
ATOM      2  C   UNL     1       4.188   6.086  17.244  0.00  0.00    +0.000 A 
ATOM      3  C   UNL     1       3.326   6.847  17.934  0.00  0.00    +0.000 A 
ATOM      4  O   UNL     1       2.347   6.332  18.772  0.00  0.00    +0.000 OA
ATOM      5  C   UNL     1       2.379   4.999  19.068  0.00  0.00    +0.000 A 
ATOM      6  C   UNL     1       1.541   4.547  20.085  0.00  0.00    +0.000 A 
ATOM      7  C   UNL     1       1.587   3.203  20.450  0.00  0.00    +0.000 A 
ATOM      8  C   UNL     1       2.435   2.307  19.805  0.00  0.00    +0.000 A 
ATOM      9  C   UNL     1       3.229   2.748  18.752  0.00  0.00    +0.000 A 
ATOM     10  C   UNL     1       3.207   4.097  18.409  0.00  0.00    +0.000 A 
ATOM     11  C   UNL     1       4.099   4.605  17.363  0.00  0.00    +0.000 A 
ATOM     12  O   UNL     1       4.754   3.844  16.681  0.00  0.00    +0.000 OA
BRANCH   3  13
ATOM     13  O   UNL     1       3.352   8.231  17.874  0.00  0.00    +0.000 OA
ATOM     14  H   UNL     1       2.779   8.539  17.156  0.00  0.00    +0.000 HD
ENDBRANCH   3  13
BRANCH   7  15
ATOM     15  O   UNL     1       0.803   2.714  21.451  0.00  0.00    +0.000 OA
ATOM     16  H   UNL     1       1.181   1.873  21.759  0.00  0.00    +0.000 HD
ENDBRANCH   7  15
ENDBRANCH   1   2
BRANCH   1  19
ATOM     17  C   UNL     1       7.387   6.757  17.773  0.00  0.00    +0.000 C 
ATOM     18  C   UNL     1       7.575   5.263  17.650  0.00  0.00    +0.000 C 
ATOM     19  C   UNL     1       6.323   7.342  17.186  0.00  0.00    +0.000 C 
BRANCH  17  20
ATOM     20  C   UNL     1       8.354   7.622  18.549  0.00  0.00    +0.000 C 
BRANCH  20  21
ATOM     21  C   UNL     1       8.392   9.047  18.037  0.00  0.00    +0.000 C 
BRANCH  21  24
ATOM     22  C   UNL     1       9.601  11.014  18.911  0.00  0.00    +0.000 C 
ATOM     23  C   UNL     1      10.485  10.961  17.679  0.00  0.00    +0.000 C 
ATOM     24  C   UNL     1       8.618  10.103  19.068  0.00  0.00    +0.000 C 
BRANCH  22  25
ATOM     25  C   UNL     1       9.799  12.071  19.972  0.00  0.00    +0.000 C 
BRANCH  25  26
ATOM     26  C   UNL     1       9.767  13.494  19.424  0.00  0.00    +0.000 C 
BRANCH  26  30
ATOM     27  C   UNL     1       6.464  14.704  17.826  0.00  0.00    +0.000 C 
ATOM     28  C   UNL     1       7.558  14.458  18.821  0.00  0.00    +0.000 C 
ATOM     29  C   UNL     1       7.378  14.999  20.216  0.00  0.00    +0.000 C 
ATOM     30  C   UNL     1       8.645  13.756  18.471  0.00  0.00    +0.000 C 
ENDBRANCH  26  30
ENDBRANCH  25  26
ENDBRANCH  22  25
ENDBRANCH  21  24
ENDBRANCH  20  21
ENDBRANCH  17  20
ENDBRANCH   1  19
TORSDOF 10
ENDMDL
MODEL 7
REMARK VINA RESULT:      -7.3      5.413      8.871
REMARK  Name = 
REMARK  14 active torsions:
REMARK  status: ('A' for Active; 'I' for Inactive)
REMARK    1  A    between atoms: C_1  and  C_2
REMARK    2  A    between atoms: C_2  and  C_3
REMARK    3  A    between atoms: C_4  and  C_5
REMARK    4  A    between atoms: C_5  and  C_6
REMARK    5  A    between atoms: C_6  and  C_7
REMARK    6  A    between atoms: C_7  and  C_8
REMARK    7  A    between atoms: C_9  and  C_10
REMARK    8  A    between atoms: C_10  and  C_11
REMARK    9  A    between atoms: C_11  and  C_12
REMARK   10  A    between atoms: C_12  and  C_13
REMARK   11  A    between atoms: C_14  and  C_15
REMARK   12  A    between atoms: C_15  and  C_16
REMARK   13  A    between atoms: C_17  and  O_18
REMARK   14  A    between atoms: C_22  and  O_23
REMARK                            x       y       z     vdW  Elec       q    Type
REMARK                         _______ _______ _______ _____ _____    ______ ____
ROOT
ATOM      1  C   UNL     1       0.739   7.831  21.262  0.00  0.00    +0.000 C 
ENDROOT
BRANCH   1   2
ATOM      2  C   UNL     1       0.484   9.304  21.299  0.00  0.00    +0.000 A 
ATOM      3  C   UNL     1       0.141  10.013  22.384  0.00  0.00    +0.000 A 
ATOM      4  O   UNL     1      -0.148  11.370  22.355  0.00  0.00    +0.000 OA
ATOM      5  C   UNL     1      -0.282  11.981  21.140  0.00  0.00    +0.000 A 
ATOM      6  C   UNL     1      -0.798  13.274  21.125  0.00  0.00    +0.000 A 
ATOM      7  C   UNL     1      -0.999  13.907  19.900  0.00  0.00    +0.000 A 
ATOM      8  C   UNL     1      -0.676  13.280  18.701  0.00  0.00    +0.000 A 
ATOM      9  C   UNL     1      -0.107  12.010  18.720  0.00  0.00    +0.000 A 
ATOM     10  C   UNL     1       0.063  11.366  19.941  0.00  0.00    +0.000 A 
ATOM     11  C   UNL     1       0.577   9.994  19.984  0.00  0.00    +0.000 A 
ATOM     12  O   UNL     1       1.001   9.456  18.982  0.00  0.00    +0.000 OA
BRANCH   3  13
ATOM     13  O   UNL     1       0.033   9.437  23.640  0.00  0.00    +0.000 OA
ATOM     14  H   UNL     1      -0.699   9.844  24.125  0.00  0.00    +0.000 HD
ENDBRANCH   3  13
BRANCH   7  15
ATOM     15  O   UNL     1      -1.519  15.164  19.830  0.00  0.00    +0.000 OA
ATOM     16  H   UNL     1      -1.845  15.415  20.711  0.00  0.00    +0.000 HD
ENDBRANCH   7  15
ENDBRANCH   1   2
BRANCH   1  19
ATOM     17  C   UNL     1       2.310   6.242  20.117  0.00  0.00    +0.000 C 
ATOM     18  C   UNL     1       1.482   5.081  20.617  0.00  0.00    +0.000 C 
ATOM     19  C   UNL     1       1.951   7.501  20.436  0.00  0.00    +0.000 C 
BRANCH  17  20
ATOM     20  C   UNL     1       3.545   6.033  19.271  0.00  0.00    +0.000 C 
BRANCH  20  21
ATOM     21  C   UNL     1       3.279   6.251  17.796  0.00  0.00    +0.000 C 
BRANCH  21  24
ATOM     22  C   UNL     1       4.614   4.510  16.662  0.00  0.00    +0.000 C 
ATOM     23  C   UNL     1       3.782   3.467  17.384  0.00  0.00    +0.000 C 
ATOM     24  C   UNL     1       4.366   5.821  16.867  0.00  0.00    +0.000 C 
BRANCH  22  25
ATOM     25  C   UNL     1       5.718   4.112  15.712  0.00  0.00    +0.000 C 
BRANCH  25  26
ATOM     26  C   UNL     1       7.070   4.724  16.062  0.00  0.00    +0.000 C 
BRANCH  26  30
ATOM     27  C   UNL     1       7.952   5.662  19.705  0.00  0.00    +0.000 C 
ATOM     28  C   UNL     1       7.626   5.770  18.245  0.00  0.00    +0.000 C 
ATOM     29  C   UNL     1       7.581   7.147  17.633  0.00  0.00    +0.000 C 
ATOM     30  C   UNL     1       7.408   4.666  17.517  0.00  0.00    +0.000 C 
ENDBRANCH  26  30
ENDBRANCH  25  26
ENDBRANCH  22  25
ENDBRANCH  21  24
ENDBRANCH  20  21
ENDBRANCH  17  20
ENDBRANCH   1  19
TORSDOF 10
ENDMDL
MODEL 8
REMARK VINA RESULT:      -7.3      5.198      8.101
REMARK  Name = 
REMARK  14 active torsions:
REMARK  status: ('A' for Active; 'I' for Inactive)
REMARK    1  A    between atoms: C_1  and  C_2
REMARK    2  A    between atoms: C_2  and  C_3
REMARK    3  A    between atoms: C_4  and  C_5
REMARK    4  A    between atoms: C_5  and  C_6
REMARK    5  A    between atoms: C_6  and  C_7
REMARK    6  A    between atoms: C_7  and  C_8
REMARK    7  A    between atoms: C_9  and  C_10
REMARK    8  A    between atoms: C_10  and  C_11
REMARK    9  A    between atoms: C_11  and  C_12
REMARK   10  A    between atoms: C_12  and  C_13
REMARK   11  A    between atoms: C_14  and  C_15
REMARK   12  A    between atoms: C_15  and  C_16
REMARK   13  A    between atoms: C_17  and  O_18
REMARK   14  A    between atoms: C_22  and  O_23
REMARK                            x       y       z     vdW  Elec       q    Type
REMARK                         _______ _______ _______ _____ _____    ______ ____
ROOT
ATOM      1  C   UNL     1       4.996   5.654  18.411  0.00  0.00    +0.000 C 
ENDROOT
BRANCH   1   2
ATOM      2  C   UNL     1       5.812   5.380  17.188  0.00  0.00    +0.000 A 
ATOM      3  C   UNL     1       6.953   5.999  16.852  0.00  0.00    +0.000 A 
ATOM      4  O   UNL     1       7.641   5.754  15.671  0.00  0.00    +0.000 OA
ATOM      5  C   UNL     1       7.035   4.993  14.711  0.00  0.00    +0.000 A 
ATOM      6  C   UNL     1       7.631   4.953  13.454  0.00  0.00    +0.000 A 
ATOM      7  C   UNL     1       7.011   4.232  12.435  0.00  0.00    +0.000 A 
ATOM      8  C   UNL     1       5.824   3.539  12.658  0.00  0.00    +0.000 A 
ATOM      9  C   UNL     1       5.260   3.534  13.930  0.00  0.00    +0.000 A 
ATOM     10  C   UNL     1       5.863   4.280  14.938  0.00  0.00    +0.000 A 
ATOM     11  C   UNL     1       5.240   4.365  16.263  0.00  0.00    +0.000 A 
ATOM     12  O   UNL     1       4.285   3.672  16.547  0.00  0.00    +0.000 OA
BRANCH   3  13
ATOM     13  O   UNL     1       7.542   6.955  17.663  0.00  0.00    +0.000 OA
ATOM     14  H   UNL     1       8.503   6.932  17.553  0.00  0.00    +0.000 HD
ENDBRANCH   3  13
BRANCH   7  15
ATOM     15  O   UNL     1       7.543   4.176  11.182  0.00  0.00    +0.000 OA
ATOM     16  H   UNL     1       6.816   4.114  10.539  0.00  0.00    +0.000 HD
ENDBRANCH   7  15
ENDBRANCH   1   2
BRANCH   1  19
ATOM     17  C   UNL     1       2.599   6.383  18.264  0.00  0.00    +0.000 C 
ATOM     18  C   UNL     1       2.164   4.998  18.681  0.00  0.00    +0.000 C 
ATOM     19  C   UNL     1       3.913   6.658  18.138  0.00  0.00    +0.000 C 
BRANCH  17  20
ATOM     20  C   UNL     1       1.598   7.479  17.972  0.00  0.00    +0.000 C 
BRANCH  20  21
ATOM     21  C   UNL     1       1.892   8.749  18.742  0.00  0.00    +0.000 C 
BRANCH  21  24
ATOM     22  C   UNL     1       0.090  10.376  19.192  0.00  0.00    +0.000 C 
ATOM     23  C   UNL     1      -0.178   9.649  20.497  0.00  0.00    +0.000 C 
ATOM     24  C   UNL     1       1.068   9.939  18.373  0.00  0.00    +0.000 C 
BRANCH  22  25
ATOM     25  C   UNL     1      -0.720  11.586  18.789  0.00  0.00    +0.000 C 
BRANCH  25  26
ATOM     26  C   UNL     1      -2.127  11.243  18.313  0.00  0.00    +0.000 C 
BRANCH  26  30
ATOM     27  C   UNL     1      -3.307  10.306  14.755  0.00  0.00    +0.000 C 
ATOM     28  C   UNL     1      -3.296  10.827  16.161  0.00  0.00    +0.000 C 
ATOM     29  C   UNL     1      -4.568  11.433  16.698  0.00  0.00    +0.000 C 
ATOM     30  C   UNL     1      -2.189  10.729  16.911  0.00  0.00    +0.000 C 
ENDBRANCH  26  30
ENDBRANCH  25  26
ENDBRANCH  22  25
ENDBRANCH  21  24
ENDBRANCH  20  21
ENDBRANCH  17  20
ENDBRANCH   1  19
TORSDOF 10
ENDMDL
MODEL 9
REMARK VINA RESULT:      -7.3      4.908      8.711
REMARK  Name = 
REMARK  14 active torsions:
REMARK  status: ('A' for Active; 'I' for Inactive)
REMARK    1  A    between atoms: C_1  and  C_2
REMARK    2  A    between atoms: C_2  and  C_3
REMARK    3  A    between atoms: C_4  and  C_5
REMARK    4  A    between atoms: C_5  and  C_6
REMARK    5  A    between atoms: C_6  and  C_7
REMARK    6  A    between atoms: C_7  and  C_8
REMARK    7  A    between atoms: C_9  and  C_10
REMARK    8  A    between atoms: C_10  and  C_11
REMARK    9  A    between atoms: C_11  and  C_12
REMARK   10  A    between atoms: C_12  and  C_13
REMARK   11  A    between atoms: C_14  and  C_15
REMARK   12  A    between atoms: C_15  and  C_16
REMARK   13  A    between atoms: C_17  and  O_18
REMARK   14  A    between atoms: C_22  and  O_23
REMARK                            x       y       z     vdW  Elec       q    Type
REMARK                         _______ _______ _______ _____ _____    ______ ____
ROOT
ATOM      1  C   UNL     1       2.389   7.134  19.865  0.00  0.00    +0.000 C 
ENDROOT
BRANCH   1   2
ATOM      2  C   UNL     1       1.609   8.395  20.059  0.00  0.00    +0.000 A 
ATOM      3  C   UNL     1       1.312   8.960  21.238  0.00  0.00    +0.000 A 
ATOM      4  O   UNL     1       0.528  10.099  21.368  0.00  0.00    +0.000 OA
ATOM      5  C   UNL     1      -0.136  10.560  20.268  0.00  0.00    +0.000 A 
ATOM      6  C   UNL     1      -1.093  11.553  20.466  0.00  0.00    +0.000 A 
ATOM      7  C   UNL     1      -1.829  12.008  19.374  0.00  0.00    +0.000 A 
ATOM      8  C   UNL     1      -1.610  11.506  18.094  0.00  0.00    +0.000 A 
ATOM      9  C   UNL     1      -0.615  10.556  17.889  0.00  0.00    +0.000 A 
ATOM     10  C   UNL     1       0.097  10.078  18.985  0.00  0.00    +0.000 A 
ATOM     11  C   UNL     1       1.089   9.013  18.809  0.00  0.00    +0.000 A 
ATOM     12  O   UNL     1       1.413   8.640  17.701  0.00  0.00    +0.000 OA
BRANCH   3  13
ATOM     13  O   UNL     1       1.760   8.438  22.441  0.00  0.00    +0.000 OA
ATOM     14  H   UNL     1       1.154   8.690  23.153  0.00  0.00    +0.000 HD
ENDBRANCH   3  13
BRANCH   7  15
ATOM     15  O   UNL     1      -2.789  12.964  19.517  0.00  0.00    +0.000 OA
ATOM     16  H   UNL     1      -3.108  13.218  18.634  0.00  0.00    +0.000 HD
ENDBRANCH   7  15
ENDBRANCH   1   2
BRANCH   1  19
ATOM     17  C   UNL     1       1.676   4.767  20.306  0.00  0.00    +0.000 C 
ATOM     18  C   UNL     1       2.865   4.592  21.222  0.00  0.00    +0.000 C 
ATOM     19  C   UNL     1       1.484   5.948  19.685  0.00  0.00    +0.000 C 
BRANCH  17  20
ATOM     20  C   UNL     1       0.691   3.647  20.055  0.00  0.00    +0.000 C 
BRANCH  20  21
ATOM     21  C   UNL     1       0.993   2.889  18.779  0.00  0.00    +0.000 C 
BRANCH  21  24
ATOM     22  C   UNL     1       3.231   2.904  17.736  0.00  0.00    +0.000 C 
ATOM     23  C   UNL     1       3.534   1.613  18.475  0.00  0.00    +0.000 C 
ATOM     24  C   UNL     1       2.029   3.496  17.890  0.00  0.00    +0.000 C 
BRANCH  22  25
ATOM     25  C   UNL     1       4.253   3.544  16.825  0.00  0.00    +0.000 C 
BRANCH  25  26
ATOM     26  C   UNL     1       4.324   5.060  16.964  0.00  0.00    +0.000 C 
BRANCH  26  30
ATOM     27  C   UNL     1       7.638   6.218  18.578  0.00  0.00    +0.000 C 
ATOM     28  C   UNL     1       6.637   5.728  17.574  0.00  0.00    +0.000 C 
ATOM     29  C   UNL     1       7.124   5.437  16.178  0.00  0.00    +0.000 C 
ATOM     30  C   UNL     1       5.359   5.537  17.930  0.00  0.00    +0.000 C 
ENDBRANCH  26  30
ENDBRANCH  25  26
ENDBRANCH  22  25
ENDBRANCH  21  24
ENDBRANCH  20  21
ENDBRANCH  17  20
ENDBRANCH   1  19
TORSDOF 10
ENDMDL
