MODEL 1
REMARK VINA RESULT:      -7.7      0.000      0.000
REMARK  Name = 
REMARK  9 active torsions:
REMARK  status: ('A' for Active; 'I' for Inactive)
REMARK    1  A    between atoms: C_1  and  C_2
REMARK    2  A    between atoms: C_2  and  O_3
REMARK    3  A    between atoms: O_3  and  C_4
REMARK    4  A    between atoms: C_4  and  C_6
REMARK    5  A    between atoms: C_8  and  C_9
REMARK    6  A    between atoms: C_16  and  N_17
REMARK    7  A    between atoms: C_18  and  C_20
REMARK    8  A    between atoms: C_23  and  O_24
REMARK    9  A    between atoms: O_24  and  C_25
REMARK                            x       y       z     vdW  Elec       q    Type
REMARK                         _______ _______ _______ _____ _____    ______ ____
ROOT
ATOM      1  C   UNL     1       4.763   4.379  17.992  0.00  0.00    +0.000 A 
ATOM      2  C   UNL     1       5.426   3.854  16.832  0.00  0.00    +0.000 A 
ATOM      3  C   UNL     1       5.566   4.774  15.811  0.00  0.00    +0.000 A 
ATOM      4  S   UNL     1       4.901   6.288  16.284  0.00  0.00    +0.000 S 
ATOM      5  C   UNL     1       4.458   5.714  17.818  0.00  0.00    +0.000 A 
ENDROOT
BRANCH   3   6
ATOM      6  C   UNL     1       6.160   4.549  14.481  0.00  0.00    +0.000 A 
ATOM      7  C   UNL     1       7.302   5.240  14.055  0.00  0.00    +0.000 A 
ATOM      8  C   UNL     1       7.829   5.040  12.777  0.00  0.00    +0.000 A 
ATOM      9  C   UNL     1       7.218   4.145  11.900  0.00  0.00    +0.000 A 
ATOM     10  C   UNL     1       6.083   3.449  12.302  0.00  0.00    +0.000 A 
ATOM     11  C   UNL     1       5.557   3.650  13.581  0.00  0.00    +0.000 A 
ENDBRANCH   3   6
BRANCH   5  12
ATOM     12  N   UNL     1       3.864   6.658  18.644  0.00  0.00    +0.000 N 
ATOM     13  C   UNL     1       2.495   6.875  18.584  0.00  0.00    +0.000 C 
ATOM     14  O   UNL     1       1.739   6.289  17.818  0.00  0.00    +0.000 OA
ATOM     15  H   UNL     1       4.388   6.940  19.464  0.00  0.00    +0.000 HD
BRANCH  13  16
ATOM     16  C   UNL     1       1.901   7.871  19.548  0.00  0.00    +0.000 A 
ATOM     17  C   UNL     1       1.536   9.113  19.009  0.00  0.00    +0.000 A 
ATOM     18  C   UNL     1       0.977  10.111  19.810  0.00  0.00    +0.000 A 
ATOM     19  C   UNL     1       0.731   9.882  21.162  0.00  0.00    +0.000 A 
ATOM     20  C   UNL     1       1.086   8.649  21.717  0.00  0.00    +0.000 A 
ATOM     21  C   UNL     1       1.671   7.644  20.913  0.00  0.00    +0.000 A 
BRANCH  19  22
ATOM     22  O   UNL     1       0.200  10.948  21.832  0.00  0.00    +0.000 OA
ATOM     23  C   UNL     1      -0.732  10.650  22.862  0.00  0.00    +0.000 C 
ENDBRANCH  19  22
ENDBRANCH  13  16
ENDBRANCH   5  12
BRANCH   1  24
ATOM     24  C   UNL     1       4.398   3.576  19.150  0.00  0.00    +0.000 C 
ATOM     25  O   UNL     1       5.171   2.863  19.758  0.00  0.00    +0.000 OA
BRANCH  24  26
ATOM     26  O   UNL     1       3.083   3.761  19.468  0.00  0.00    +0.000 OA
BRANCH  26  28
ATOM     27  C   UNL     1       1.078   2.737  18.586  0.00  0.00    +0.000 C 
ATOM     28  C   UNL     1       2.296   2.565  19.468  0.00  0.00    +0.000 C 
ENDBRANCH  26  28
ENDBRANCH  24  26
ENDBRANCH   1  24
TORSDOF 7
ENDMDL
MODEL 2
REMARK VINA RESULT:      -7.6      2.214      8.442
REMARK  Name = 
REMARK  9 active torsions:
REMARK  status: ('A' for Active; 'I' for Inactive)
REMARK    1  A    between atoms: C_1  and  C_2
REMARK    2  A    between atoms: C_2  and  O_3
REMARK    3  A    between atoms: O_3  and  C_4
REMARK    4  A    between atoms: C_4  and  C_6
REMARK    5  A    between atoms: C_8  and  C_9
REMARK    6  A    between atoms: C_16  and  N_17
REMARK    7  A    between atoms: C_18  and  C_20
REMARK    8  A    between atoms: C_23  and  O_24
REMARK    9  A    between atoms: O_24  and  C_25
REMARK                            x       y       z     vdW  Elec       q    Type
REMARK                         _______ _______ _______ _____ _____    ______ ____
ROOT
ATOM      1  C   UNL     1       1.683   5.908  20.367  0.00  0.00    +0.000 A 
ATOM      2  C   UNL     1       0.998   6.841  21.216  0.00  0.00    +0.000 A 
ATOM      3  C   UNL     1       1.028   8.141  20.747  0.00  0.00    +0.000 A 
ATOM      4  S   UNL     1       1.882   8.212  19.256  0.00  0.00    +0.000 S 
ATOM      5  C   UNL     1       2.180   6.542  19.246  0.00  0.00    +0.000 A 
ENDROOT
BRANCH   3   6
ATOM      6  C   UNL     1       0.459   9.336  21.395  0.00  0.00    +0.000 A 
ATOM      7  C   UNL     1      -0.314   9.247  22.561  0.00  0.00    +0.000 A 
ATOM      8  C   UNL     1      -0.876  10.388  23.139  0.00  0.00    +0.000 A 
ATOM      9  C   UNL     1      -0.678  11.638  22.557  0.00  0.00    +0.000 A 
ATOM     10  C   UNL     1       0.085  11.750  21.399  0.00  0.00    +0.000 A 
ATOM     11  C   UNL     1       0.646  10.608  20.821  0.00  0.00    +0.000 A 
ENDBRANCH   3   6
BRANCH   5  12
ATOM     12  N   UNL     1       2.870   6.080  18.134  0.00  0.00    +0.000 N 
ATOM     13  C   UNL     1       4.208   5.728  18.239  0.00  0.00    +0.000 C 
ATOM     14  O   UNL     1       4.861   5.811  19.272  0.00  0.00    +0.000 OA
ATOM     15  H   UNL     1       2.312   5.732  17.363  0.00  0.00    +0.000 HD
BRANCH  13  16
ATOM     16  C   UNL     1       4.886   5.179  17.009  0.00  0.00    +0.000 A 
ATOM     17  C   UNL     1       5.110   6.089  15.966  0.00  0.00    +0.000 A 
ATOM     18  C   UNL     1       5.730   5.689  14.779  0.00  0.00    +0.000 A 
ATOM     19  C   UNL     1       6.179   4.380  14.620  0.00  0.00    +0.000 A 
ATOM     20  C   UNL     1       5.967   3.459  15.650  0.00  0.00    +0.000 A 
ATOM     21  C   UNL     1       5.322   3.855  16.843  0.00  0.00    +0.000 A 
BRANCH  19  22
ATOM     22  O   UNL     1       6.749   4.119  13.405  0.00  0.00    +0.000 OA
ATOM     23  C   UNL     1       5.962   3.386  12.478  0.00  0.00    +0.000 C 
ENDBRANCH  19  22
ENDBRANCH  13  16
ENDBRANCH   5  12
BRANCH   1  24
ATOM     24  C   UNL     1       1.887   4.507  20.701  0.00  0.00    +0.000 C 
ATOM     25  O   UNL     1       2.485   4.119  21.686  0.00  0.00    +0.000 OA
BRANCH  24  26
ATOM     26  O   UNL     1       1.294   3.699  19.774  0.00  0.00    +0.000 OA
BRANCH  26  28
ATOM     27  C   UNL     1       2.228   2.426  17.943  0.00  0.00    +0.000 C 
ATOM     28  C   UNL     1       2.039   2.524  19.442  0.00  0.00    +0.000 C 
ENDBRANCH  26  28
ENDBRANCH  24  26
ENDBRANCH   1  24
TORSDOF 7
ENDMDL
MODEL 3
REMARK VINA RESULT:      -7.5      1.565      2.284
REMARK  Name = 
REMARK  9 active torsions:
REMARK  status: ('A' for Active; 'I' for Inactive)
REMARK    1  A    between atoms: C_1  and  C_2
REMARK    2  A    between atoms: C_2  and  O_3
REMARK    3  A    between atoms: O_3  and  C_4
REMARK    4  A    between atoms: C_4  and  C_6
REMARK    5  A    between atoms: C_8  and  C_9
REMARK    6  A    between atoms: C_16  and  N_17
REMARK    7  A    between atoms: C_18  and  C_20
REMARK    8  A    between atoms: C_23  and  O_24
REMARK    9  A    between atoms: O_24  and  C_25
REMARK                            x       y       z     vdW  Elec       q    Type
REMARK                         _______ _______ _______ _____ _____    ______ ____
ROOT
ATOM      1  C   UNL     1       2.546   4.617  18.391  0.00  0.00    +0.000 A 
ATOM      2  C   UNL     1       3.417   4.141  17.354  0.00  0.00    +0.000 A 
ATOM      3  C   UNL     1       4.345   5.078  16.938  0.00  0.00    +0.000 A 
ATOM      4  S   UNL     1       4.158   6.534  17.833  0.00  0.00    +0.000 S 
ATOM      5  C   UNL     1       2.881   5.906  18.756  0.00  0.00    +0.000 A 
ENDROOT
BRANCH   3   6
ATOM      6  C   UNL     1       5.350   4.924  15.872  0.00  0.00    +0.000 A 
ATOM      7  C   UNL     1       5.084   4.196  14.704  0.00  0.00    +0.000 A 
ATOM      8  C   UNL     1       6.063   4.030  13.721  0.00  0.00    +0.000 A 
ATOM      9  C   UNL     1       7.328   4.588  13.892  0.00  0.00    +0.000 A 
ATOM     10  C   UNL     1       7.615   5.313  15.044  0.00  0.00    +0.000 A 
ATOM     11  C   UNL     1       6.635   5.478  16.026  0.00  0.00    +0.000 A 
ENDBRANCH   3   6
BRANCH   5  12
ATOM     12  N   UNL     1       2.375   6.771  19.717  0.00  0.00    +0.000 N 
ATOM     13  C   UNL     1       1.766   7.959  19.335  0.00  0.00    +0.000 C 
ATOM     14  O   UNL     1       1.650   8.328  18.172  0.00  0.00    +0.000 OA
ATOM     15  H   UNL     1       2.196   6.381  20.634  0.00  0.00    +0.000 HD
BRANCH  13  16
ATOM     16  C   UNL     1       1.186   8.828  20.421  0.00  0.00    +0.000 A 
ATOM     17  C   UNL     1       0.721  10.090  20.024  0.00  0.00    +0.000 A 
ATOM     18  C   UNL     1       0.164  10.978  20.947  0.00  0.00    +0.000 A 
ATOM     19  C   UNL     1       0.019  10.614  22.283  0.00  0.00    +0.000 A 
ATOM     20  C   UNL     1       0.474   9.359  22.699  0.00  0.00    +0.000 A 
ATOM     21  C   UNL     1       1.057   8.466  21.771  0.00  0.00    +0.000 A 
BRANCH  19  22
ATOM     22  O   UNL     1      -0.523  11.583  23.081  0.00  0.00    +0.000 OA
ATOM     23  C   UNL     1      -1.357  12.539  22.442  0.00  0.00    +0.000 C 
ENDBRANCH  19  22
ENDBRANCH  13  16
ENDBRANCH   5  12
BRANCH   1  24
ATOM     24  C   UNL     1       1.419   3.860  18.914  0.00  0.00    +0.000 C 
ATOM     25  O   UNL     1       0.801   3.028  18.279  0.00  0.00    +0.000 OA
BRANCH  24  26
ATOM     26  O   UNL     1       1.176   4.195  20.216  0.00  0.00    +0.000 OA
BRANCH  26  28
ATOM     27  C   UNL     1       2.575   2.716  21.520  0.00  0.00    +0.000 C 
ATOM     28  C   UNL     1       1.162   3.089  21.123  0.00  0.00    +0.000 C 
ENDBRANCH  26  28
ENDBRANCH  24  26
ENDBRANCH   1  24
TORSDOF 7
ENDMDL
MODEL 4
REMARK VINA RESULT:      -7.5      0.928      1.081
REMARK  Name = 
REMARK  9 active torsions:
REMARK  status: ('A' for Active; 'I' for Inactive)
REMARK    1  A    between atoms: C_1  and  C_2
REMARK    2  A    between atoms: C_2  and  O_3
REMARK    3  A    between atoms: O_3  and  C_4
REMARK    4  A    between atoms: C_4  and  C_6
REMARK    5  A    between atoms: C_8  and  C_9
REMARK    6  A    between atoms: C_16  and  N_17
REMARK    7  A    between atoms: C_18  and  C_20
REMARK    8  A    between atoms: C_23  and  O_24
REMARK    9  A    between atoms: O_24  and  C_25
REMARK                            x       y       z     vdW  Elec       q    Type
REMARK                         _______ _______ _______ _____ _____    ______ ____
ROOT
ATOM      1  C   UNL     1       3.925   4.147  17.810  0.00  0.00    +0.000 A 
ATOM      2  C   UNL     1       4.644   3.664  16.666  0.00  0.00    +0.000 A 
ATOM      3  C   UNL     1       5.178   4.670  15.883  0.00  0.00    +0.000 A 
ATOM      4  S   UNL     1       4.811   6.206  16.563  0.00  0.00    +0.000 S 
ATOM      5  C   UNL     1       3.977   5.525  17.874  0.00  0.00    +0.000 A 
ENDROOT
BRANCH   3   6
ATOM      6  C   UNL     1       5.932   4.517  14.626  0.00  0.00    +0.000 A 
ATOM      7  C   UNL     1       7.137   5.198  14.401  0.00  0.00    +0.000 A 
ATOM      8  C   UNL     1       7.819   5.069  13.188  0.00  0.00    +0.000 A 
ATOM      9  C   UNL     1       7.304   4.259  12.178  0.00  0.00    +0.000 A 
ATOM     10  C   UNL     1       6.109   3.576  12.380  0.00  0.00    +0.000 A 
ATOM     11  C   UNL     1       5.428   3.706  13.593  0.00  0.00    +0.000 A 
ENDBRANCH   3   6
BRANCH   5  12
ATOM     12  N   UNL     1       3.481   6.443  18.790  0.00  0.00    +0.000 N 
ATOM     13  C   UNL     1       2.319   7.149  18.511  0.00  0.00    +0.000 C 
ATOM     14  O   UNL     1       1.680   7.035  17.472  0.00  0.00    +0.000 OA
ATOM     15  H   UNL     1       3.804   6.353  19.746  0.00  0.00    +0.000 HD
BRANCH  13  16
ATOM     16  C   UNL     1       1.800   8.088  19.570  0.00  0.00    +0.000 A 
ATOM     17  C   UNL     1       1.352   9.339  19.123  0.00  0.00    +0.000 A 
ATOM     18  C   UNL     1       0.850  10.288  20.018  0.00  0.00    +0.000 A 
ATOM     19  C   UNL     1       0.746   9.997  21.376  0.00  0.00    +0.000 A 
ATOM     20  C   UNL     1       1.185   8.753  21.840  0.00  0.00    +0.000 A 
ATOM     21  C   UNL     1       1.712   7.799  20.940  0.00  0.00    +0.000 A 
BRANCH  19  22
ATOM     22  O   UNL     1       0.257  11.020  22.140  0.00  0.00    +0.000 OA
ATOM     23  C   UNL     1       0.052  12.262  21.483  0.00  0.00    +0.000 C 
ENDBRANCH  19  22
ENDBRANCH  13  16
ENDBRANCH   5  12
BRANCH   1  24
ATOM     24  C   UNL     1       3.179   3.290  18.720  0.00  0.00    +0.000 C 
ATOM     25  O   UNL     1       2.799   2.168  18.446  0.00  0.00    +0.000 OA
BRANCH  24  26
ATOM     26  O   UNL     1       2.995   3.910  19.923  0.00  0.00    +0.000 OA
BRANCH  26  28
ATOM     27  C   UNL     1       1.728   2.789  21.651  0.00  0.00    +0.000 C 
ATOM     28  C   UNL     1       1.687   3.750  20.482  0.00  0.00    +0.000 C 
ENDBRANCH  26  28
ENDBRANCH  24  26
ENDBRANCH   1  24
TORSDOF 7
ENDMDL
MODEL 5
REMARK VINA RESULT:      -7.4      0.851      1.272
REMARK  Name = 
REMARK  9 active torsions:
REMARK  status: ('A' for Active; 'I' for Inactive)
REMARK    1  A    between atoms: C_1  and  C_2
REMARK    2  A    between atoms: C_2  and  O_3
REMARK    3  A    between atoms: O_3  and  C_4
REMARK    4  A    between atoms: C_4  and  C_6
REMARK    5  A    between atoms: C_8  and  C_9
REMARK    6  A    between atoms: C_16  and  N_17
REMARK    7  A    between atoms: C_18  and  C_20
REMARK    8  A    between atoms: C_23  and  O_24
REMARK    9  A    between atoms: O_24  and  C_25
REMARK                            x       y       z     vdW  Elec       q    Type
REMARK                         _______ _______ _______ _____ _____    ______ ____
ROOT
ATOM      1  C   UNL     1       4.111   4.216  18.036  0.00  0.00    +0.000 A 
ATOM      2  C   UNL     1       4.817   3.720  16.889  0.00  0.00    +0.000 A 
ATOM      3  C   UNL     1       5.200   4.710  16.004  0.00  0.00    +0.000 A 
ATOM      4  S   UNL     1       4.709   6.250  16.591  0.00  0.00    +0.000 S 
ATOM      5  C   UNL     1       4.022   5.593  17.996  0.00  0.00    +0.000 A 
ENDROOT
BRANCH   3   6
ATOM      6  C   UNL     1       5.899   4.536  14.719  0.00  0.00    +0.000 A 
ATOM      7  C   UNL     1       7.096   5.208  14.432  0.00  0.00    +0.000 A 
ATOM      8  C   UNL     1       7.725   5.059  13.193  0.00  0.00    +0.000 A 
ATOM      9  C   UNL     1       7.164   4.237  12.218  0.00  0.00    +0.000 A 
ATOM     10  C   UNL     1       5.976   3.562  12.480  0.00  0.00    +0.000 A 
ATOM     11  C   UNL     1       5.348   3.712  13.720  0.00  0.00    +0.000 A 
ENDBRANCH   3   6
BRANCH   5  12
ATOM     12  N   UNL     1       3.480   6.525  18.871  0.00  0.00    +0.000 N 
ATOM     13  C   UNL     1       2.356   7.253  18.507  0.00  0.00    +0.000 C 
ATOM     14  O   UNL     1       1.790   7.148  17.425  0.00  0.00    +0.000 OA
ATOM     15  H   UNL     1       3.732   6.434  19.848  0.00  0.00    +0.000 HD
BRANCH  13  16
ATOM     16  C   UNL     1       1.782   8.208  19.523  0.00  0.00    +0.000 A 
ATOM     17  C   UNL     1       1.747   7.754  20.850  0.00  0.00    +0.000 A 
ATOM     18  C   UNL     1       1.236   8.555  21.874  0.00  0.00    +0.000 A 
ATOM     19  C   UNL     1       0.783   9.845  21.606  0.00  0.00    +0.000 A 
ATOM     20  C   UNL     1       0.812  10.316  20.290  0.00  0.00    +0.000 A 
ATOM     21  C   UNL     1       1.309   9.500  19.249  0.00  0.00    +0.000 A 
BRANCH  19  22
ATOM     22  O   UNL     1       0.291  10.512  22.694  0.00  0.00    +0.000 OA
ATOM     23  C   UNL     1      -0.844  11.336  22.473  0.00  0.00    +0.000 C 
ENDBRANCH  19  22
ENDBRANCH  13  16
ENDBRANCH   5  12
BRANCH   1  24
ATOM     24  C   UNL     1       3.509   3.363  19.050  0.00  0.00    +0.000 C 
ATOM     25  O   UNL     1       3.203   2.200  18.870  0.00  0.00    +0.000 OA
BRANCH  24  26
ATOM     26  O   UNL     1       3.366   4.040  20.227  0.00  0.00    +0.000 OA
BRANCH  26  28
ATOM     27  C   UNL     1       0.954   4.206  20.230  0.00  0.00    +0.000 C 
ATOM     28  C   UNL     1       2.183   3.712  20.963  0.00  0.00    +0.000 C 
ENDBRANCH  26  28
ENDBRANCH  24  26
ENDBRANCH   1  24
TORSDOF 7
ENDMDL
MODEL 6
REMARK VINA RESULT:      -7.4      0.932      1.744
REMARK  Name = 
REMARK  9 active torsions:
REMARK  status: ('A' for Active; 'I' for Inactive)
REMARK    1  A    between atoms: C_1  and  C_2
REMARK    2  A    between atoms: C_2  and  O_3
REMARK    3  A    between atoms: O_3  and  C_4
REMARK    4  A    between atoms: C_4  and  C_6
REMARK    5  A    between atoms: C_8  and  C_9
REMARK    6  A    between atoms: C_16  and  N_17
REMARK    7  A    between atoms: C_18  and  C_20
REMARK    8  A    between atoms: C_23  and  O_24
REMARK    9  A    between atoms: O_24  and  C_25
REMARK                            x       y       z     vdW  Elec       q    Type
REMARK                         _______ _______ _______ _____ _____    ______ ____
ROOT
ATOM      1  C   UNL     1       5.740   5.157  17.753  0.00  0.00    +0.000 A 
ATOM      2  C   UNL     1       6.329   4.521  16.609  0.00  0.00    +0.000 A 
ATOM      3  C   UNL     1       5.903   5.046  15.403  0.00  0.00    +0.000 A 
ATOM      4  S   UNL     1       4.794   6.332  15.677  0.00  0.00    +0.000 S 
ATOM      5  C   UNL     1       4.906   6.186  17.364  0.00  0.00    +0.000 A 
ENDROOT
BRANCH   3   6
ATOM      6  C   UNL     1       6.281   4.597  14.052  0.00  0.00    +0.000 A 
ATOM      7  C   UNL     1       5.574   3.587  13.385  0.00  0.00    +0.000 A 
ATOM      8  C   UNL     1       5.970   3.149  12.118  0.00  0.00    +0.000 A 
ATOM      9  C   UNL     1       7.084   3.712  11.500  0.00  0.00    +0.000 A 
ATOM     10  C   UNL     1       7.801   4.715  12.144  0.00  0.00    +0.000 A 
ATOM     11  C   UNL     1       7.404   5.152  13.411  0.00  0.00    +0.000 A 
ENDBRANCH   3   6
BRANCH   5  12
ATOM     12  N   UNL     1       4.151   7.106  18.079  0.00  0.00    +0.000 N 
ATOM     13  C   UNL     1       2.811   6.857  18.339  0.00  0.00    +0.000 C 
ATOM     14  O   UNL     1       2.211   5.859  17.959  0.00  0.00    +0.000 OA
ATOM     15  H   UNL     1       4.661   7.776  18.641  0.00  0.00    +0.000 HD
BRANCH  13  16
ATOM     16  C   UNL     1       2.060   7.867  19.171  0.00  0.00    +0.000 A 
ATOM     17  C   UNL     1       1.832   7.520  20.510  0.00  0.00    +0.000 A 
ATOM     18  C   UNL     1       1.147   8.380  21.372  0.00  0.00    +0.000 A 
ATOM     19  C   UNL     1       0.707   9.625  20.930  0.00  0.00    +0.000 A 
ATOM     20  C   UNL     1       0.928   9.990  19.598  0.00  0.00    +0.000 A 
ATOM     21  C   UNL     1       1.603   9.114  18.719  0.00  0.00    +0.000 A 
BRANCH  19  22
ATOM     22  O   UNL     1       0.035  10.357  21.869  0.00  0.00    +0.000 OA
ATOM     23  C   UNL     1      -0.225   9.714  23.108  0.00  0.00    +0.000 C 
ENDBRANCH  19  22
ENDBRANCH  13  16
ENDBRANCH   5  12
BRANCH   1  24
ATOM     24  C   UNL     1       5.942   4.711  19.123  0.00  0.00    +0.000 C 
ATOM     25  O   UNL     1       6.470   5.381  19.989  0.00  0.00    +0.000 OA
BRANCH  24  26
ATOM     26  O   UNL     1       5.434   3.456  19.301  0.00  0.00    +0.000 OA
BRANCH  26  28
ATOM     27  C   UNL     1       3.381   2.285  18.788  0.00  0.00    +0.000 C 
ATOM     28  C   UNL     1       4.028   3.414  19.563  0.00  0.00    +0.000 C 
ENDBRANCH  26  28
ENDBRANCH  24  26
ENDBRANCH   1  24
TORSDOF 7
ENDMDL
MODEL 7
REMARK VINA RESULT:      -7.3      2.134      8.328
REMARK  Name = 
REMARK  9 active torsions:
REMARK  status: ('A' for Active; 'I' for Inactive)
REMARK    1  A    between atoms: C_1  and  C_2
REMARK    2  A    between atoms: C_2  and  O_3
REMARK    3  A    between atoms: O_3  and  C_4
REMARK    4  A    between atoms: C_4  and  C_6
REMARK    5  A    between atoms: C_8  and  C_9
REMARK    6  A    between atoms: C_16  and  N_17
REMARK    7  A    between atoms: C_18  and  C_20
REMARK    8  A    between atoms: C_23  and  O_24
REMARK    9  A    between atoms: O_24  and  C_25
REMARK                            x       y       z     vdW  Elec       q    Type
REMARK                         _______ _______ _______ _____ _____    ______ ____
ROOT
ATOM      1  C   UNL     1       2.535   5.452  19.797  0.00  0.00    +0.000 A 
ATOM      2  C   UNL     1       1.814   6.323  20.681  0.00  0.00    +0.000 A 
ATOM      3  C   UNL     1       1.655   7.605  20.187  0.00  0.00    +0.000 A 
ATOM      4  S   UNL     1       2.375   7.732  18.630  0.00  0.00    +0.000 S 
ATOM      5  C   UNL     1       2.865   6.107  18.628  0.00  0.00    +0.000 A 
ENDROOT
BRANCH   3   6
ATOM      6  C   UNL     1       1.003   8.744  20.856  0.00  0.00    +0.000 A 
ATOM      7  C   UNL     1       0.691   8.718  22.222  0.00  0.00    +0.000 A 
ATOM      8  C   UNL     1       0.039   9.794  22.831  0.00  0.00    +0.000 A 
ATOM      9  C   UNL     1      -0.315  10.913  22.081  0.00  0.00    +0.000 A 
ATOM     10  C   UNL     1      -0.016  10.959  20.723  0.00  0.00    +0.000 A 
ATOM     11  C   UNL     1       0.636   9.883  20.115  0.00  0.00    +0.000 A 
ENDBRANCH   3   6
BRANCH   5  12
ATOM     12  N   UNL     1       3.514   5.696  17.472  0.00  0.00    +0.000 N 
ATOM     13  C   UNL     1       4.900   5.740  17.396  0.00  0.00    +0.000 C 
ATOM     14  O   UNL     1       5.624   6.145  18.298  0.00  0.00    +0.000 OA
ATOM     15  H   UNL     1       2.990   5.103  16.840  0.00  0.00    +0.000 HD
BRANCH  13  16
ATOM     16  C   UNL     1       5.548   5.226  16.136  0.00  0.00    +0.000 A 
ATOM     17  C   UNL     1       4.712   4.535  15.246  0.00  0.00    +0.000 A 
ATOM     18  C   UNL     1       5.207   4.015  14.048  0.00  0.00    +0.000 A 
ATOM     19  C   UNL     1       6.539   4.206  13.687  0.00  0.00    +0.000 A 
ATOM     20  C   UNL     1       7.387   4.895  14.560  0.00  0.00    +0.000 A 
ATOM     21  C   UNL     1       6.894   5.405  15.782  0.00  0.00    +0.000 A 
BRANCH  19  22
ATOM     22  O   UNL     1       6.895   3.630  12.500  0.00  0.00    +0.000 OA
ATOM     23  C   UNL     1       5.941   2.762  11.904  0.00  0.00    +0.000 C 
ENDBRANCH  19  22
ENDBRANCH  13  16
ENDBRANCH   5  12
BRANCH   1  24
ATOM     24  C   UNL     1       2.927   4.093  20.139  0.00  0.00    +0.000 C 
ATOM     25  O   UNL     1       4.041   3.639  19.968  0.00  0.00    +0.000 OA
BRANCH  24  26
ATOM     26  O   UNL     1       1.881   3.417  20.700  0.00  0.00    +0.000 OA
BRANCH  26  28
ATOM     27  C   UNL     1       1.068   2.226  18.760  0.00  0.00    +0.000 C 
ATOM     28  C   UNL     1       0.753   3.241  19.838  0.00  0.00    +0.000 C 
ENDBRANCH  26  28
ENDBRANCH  24  26
ENDBRANCH   1  24
TORSDOF 7
ENDMDL
MODEL 8
REMARK VINA RESULT:      -7.3      1.118      1.292
REMARK  Name = 
REMARK  9 active torsions:
REMARK  status: ('A' for Active; 'I' for Inactive)
REMARK    1  A    between atoms: C_1  and  C_2
REMARK    2  A    between atoms: C_2  and  O_3
REMARK    3  A    between atoms: O_3  and  C_4
REMARK    4  A    between atoms: C_4  and  C_6
REMARK    5  A    between atoms: C_8  and  C_9
REMARK    6  A    between atoms: C_16  and  N_17
REMARK    7  A    between atoms: C_18  and  C_20
REMARK    8  A    between atoms: C_23  and  O_24
REMARK    9  A    between atoms: O_24  and  C_25
REMARK                            x       y       z     vdW  Elec       q    Type
REMARK                         _______ _______ _______ _____ _____    ______ ____
ROOT
ATOM      1  C   UNL     1       5.637   5.349  17.839  0.00  0.00    +0.000 A 
ATOM      2  C   UNL     1       6.277   4.681  16.742  0.00  0.00    +0.000 A 
ATOM      3  C   UNL     1       5.928   5.189  15.505  0.00  0.00    +0.000 A 
ATOM      4  S   UNL     1       4.828   6.498  15.692  0.00  0.00    +0.000 S 
ATOM      5  C   UNL     1       4.844   6.383  17.385  0.00  0.00    +0.000 A 
ENDROOT
BRANCH   3   6
ATOM      6  C   UNL     1       6.373   4.709  14.185  0.00  0.00    +0.000 A 
ATOM      7  C   UNL     1       7.467   5.281  13.521  0.00  0.00    +0.000 A 
ATOM      8  C   UNL     1       7.850   4.836  12.253  0.00  0.00    +0.000 A 
ATOM      9  C   UNL     1       7.143   3.812  11.626  0.00  0.00    +0.000 A 
ATOM     10  C   UNL     1       6.054   3.231  12.267  0.00  0.00    +0.000 A 
ATOM     11  C   UNL     1       5.670   3.676  13.535  0.00  0.00    +0.000 A 
ENDBRANCH   3   6
BRANCH   5  12
ATOM     12  N   UNL     1       4.066   7.329  18.040  0.00  0.00    +0.000 N 
ATOM     13  C   UNL     1       2.745   7.047  18.358  0.00  0.00    +0.000 C 
ATOM     14  O   UNL     1       2.181   5.995  18.081  0.00  0.00    +0.000 OA
ATOM     15  H   UNL     1       4.560   8.066  18.529  0.00  0.00    +0.000 HD
BRANCH  13  16
ATOM     16  C   UNL     1       1.971   8.092  19.121  0.00  0.00    +0.000 A 
ATOM     17  C   UNL     1       1.559   9.215  18.389  0.00  0.00    +0.000 A 
ATOM     18  C   UNL     1       0.836  10.246  18.995  0.00  0.00    +0.000 A 
ATOM     19  C   UNL     1       0.469  10.163  20.336  0.00  0.00    +0.000 A 
ATOM     20  C   UNL     1       0.868   9.049  21.081  0.00  0.00    +0.000 A 
ATOM     21  C   UNL     1       1.618   8.015  20.477  0.00  0.00    +0.000 A 
BRANCH  19  22
ATOM     22  O   UNL     1      -0.219  11.246  20.806  0.00  0.00    +0.000 OA
ATOM     23  C   UNL     1      -1.238  11.765  19.964  0.00  0.00    +0.000 C 
ENDBRANCH  19  22
ENDBRANCH  13  16
ENDBRANCH   5  12
BRANCH   1  24
ATOM     24  C   UNL     1       5.755   4.925  19.227  0.00  0.00    +0.000 C 
ATOM     25  O   UNL     1       6.761   5.053  19.897  0.00  0.00    +0.000 OA
BRANCH  24  26
ATOM     26  O   UNL     1       4.577   4.396  19.670  0.00  0.00    +0.000 OA
BRANCH  26  28
ATOM     27  C   UNL     1       3.309   2.616  18.636  0.00  0.00    +0.000 C 
ATOM     28  C   UNL     1       4.473   2.975  19.535  0.00  0.00    +0.000 C 
ENDBRANCH  26  28
ENDBRANCH  24  26
ENDBRANCH   1  24
TORSDOF 7
ENDMDL
MODEL 9
REMARK VINA RESULT:      -7.3      2.150      8.480
REMARK  Name = 
REMARK  9 active torsions:
REMARK  status: ('A' for Active; 'I' for Inactive)
REMARK    1  A    between atoms: C_1  and  C_2
REMARK    2  A    between atoms: C_2  and  O_3
REMARK    3  A    between atoms: O_3  and  C_4
REMARK    4  A    between atoms: C_4  and  C_6
REMARK    5  A    between atoms: C_8  and  C_9
REMARK    6  A    between atoms: C_16  and  N_17
REMARK    7  A    between atoms: C_18  and  C_20
REMARK    8  A    between atoms: C_23  and  O_24
REMARK    9  A    between atoms: O_24  and  C_25
REMARK                            x       y       z     vdW  Elec       q    Type
REMARK                         _______ _______ _______ _____ _____    ______ ____
ROOT
ATOM      1  C   UNL     1       1.971   5.942  20.224  0.00  0.00    +0.000 A 
ATOM      2  C   UNL     1       1.264   6.832  21.100  0.00  0.00    +0.000 A 
ATOM      3  C   UNL     1       1.149   8.118  20.607  0.00  0.00    +0.000 A 
ATOM      4  S   UNL     1       1.893   8.228  19.061  0.00  0.00    +0.000 S 
ATOM      5  C   UNL     1       2.336   6.590  19.061  0.00  0.00    +0.000 A 
ENDROOT
BRANCH   3   6
ATOM      6  C   UNL     1       0.521   9.275  21.270  0.00  0.00    +0.000 A 
ATOM      7  C   UNL     1       0.633  10.573  20.754  0.00  0.00    +0.000 A 
ATOM      8  C   UNL     1       0.062  11.662  21.417  0.00  0.00    +0.000 A 
ATOM      9  C   UNL     1      -0.628  11.471  22.612  0.00  0.00    +0.000 A 
ATOM     10  C   UNL     1      -0.750  10.191  23.143  0.00  0.00    +0.000 A 
ATOM     11  C   UNL     1      -0.179   9.103  22.479  0.00  0.00    +0.000 A 
ENDBRANCH   3   6
BRANCH   5  12
ATOM     12  N   UNL     1       2.988   6.163  17.912  0.00  0.00    +0.000 N 
ATOM     13  C   UNL     1       4.353   5.911  17.938  0.00  0.00    +0.000 C 
ATOM     14  O   UNL     1       5.060   6.058  18.928  0.00  0.00    +0.000 OA
ATOM     15  H   UNL     1       2.412   5.763  17.182  0.00  0.00    +0.000 HD
BRANCH  13  16
ATOM     16  C   UNL     1       4.993   5.394  16.674  0.00  0.00    +0.000 A 
ATOM     17  C   UNL     1       5.191   4.008  16.602  0.00  0.00    +0.000 A 
ATOM     18  C   UNL     1       5.776   3.420  15.478  0.00  0.00    +0.000 A 
ATOM     19  C   UNL     1       6.140   4.195  14.380  0.00  0.00    +0.000 A 
ATOM     20  C   UNL     1       5.947   5.579  14.432  0.00  0.00    +0.000 A 
ATOM     21  C   UNL     1       5.375   6.179  15.576  0.00  0.00    +0.000 A 
BRANCH  19  22
ATOM     22  O   UNL     1       6.718   3.496  13.357  0.00  0.00    +0.000 OA
ATOM     23  C   UNL     1       5.912   3.266  12.210  0.00  0.00    +0.000 C 
ENDBRANCH  19  22
ENDBRANCH  13  16
ENDBRANCH   5  12
BRANCH   1  24
ATOM     24  C   UNL     1       2.319   4.572  20.568  0.00  0.00    +0.000 C 
ATOM     25  O   UNL     1       2.368   4.144  21.705  0.00  0.00    +0.000 OA
BRANCH  24  26
ATOM     26  O   UNL     1       2.553   3.836  19.442  0.00  0.00    +0.000 OA
BRANCH  26  28
ATOM     27  C   UNL     1       3.237   1.687  18.570  0.00  0.00    +0.000 C 
ATOM     28  C   UNL     1       3.476   2.757  19.615  0.00  0.00    +0.000 C 
ENDBRANCH  26  28
ENDBRANCH  24  26
ENDBRANCH   1  24
TORSDOF 7
ENDMDL
