MODEL 1
REMARK VINA RESULT:      -7.3      0.000      0.000
REMARK  Name = 
REMARK  6 active torsions:
REMARK  status: ('A' for Active; 'I' for Inactive)
REMARK    1  A    between atoms: C_1  and  C_2
REMARK    2  A    between atoms: C_2  and  O_3
REMARK    3  A    between atoms: O_3  and  C_4
REMARK    4  A    between atoms: C_4  and  C_6
REMARK    5  A    between atoms: C_7  and  C_8
REMARK    6  A    between atoms: C_19  and  C_20
REMARK                            x       y       z     vdW  Elec       q    Type
REMARK                         _______ _______ _______ _____ _____    ______ ____
ROOT
ATOM      1  C   UNL     1       2.299   6.515  19.615  0.00  0.00    +0.000 A 
ATOM      2  C   UNL     1       2.871   6.912  18.412  0.00  0.00    +0.000 A 
ATOM      3  N   UNL     1       2.594   8.236  18.146  0.00  0.00    +0.000 NA
ATOM      4  C   UNL     1       1.836   8.645  19.137  0.00  0.00    +0.000 A 
ATOM      5  C   UNL     1       1.236   9.911  19.400  0.00  0.00    +0.000 A 
ATOM      6  C   UNL     1       0.517  10.098  20.524  0.00  0.00    +0.000 A 
ATOM      7  C   UNL     1       0.335   9.030  21.501  0.00  0.00    +0.000 A 
ATOM      8  C   UNL     1      -0.448   9.290  22.752  0.00  0.00    +0.000 C 
ATOM      9  C   UNL     1       0.889   7.832  21.242  0.00  0.00    +0.000 A 
ATOM     10  N   UNL     1       1.624   7.636  20.069  0.00  0.00    +0.000 N 
ENDROOT
BRANCH   2  11
ATOM     11  C   UNL     1       3.677   6.108  17.500  0.00  0.00    +0.000 A 
ATOM     12  C   UNL     1       3.518   4.717  17.402  0.00  0.00    +0.000 A 
ATOM     13  C   UNL     1       4.341   3.959  16.561  0.00  0.00    +0.000 A 
ATOM     14  C   UNL     1       5.302   4.593  15.781  0.00  0.00    +0.000 A 
ATOM     15 CL   UNL     1       6.317   3.658  14.753  0.00  0.00    +0.000 Cl
ATOM     16  C   UNL     1       5.442   5.978  15.825  0.00  0.00    +0.000 A 
ATOM     17  C   UNL     1       4.632   6.732  16.682  0.00  0.00    +0.000 A 
ENDBRANCH   2  11
BRANCH   1  18
ATOM     18  C   UNL     1       2.361   5.291  20.361  0.00  0.00    +0.000 C 
ATOM     19  O   UNL     1       3.386   4.768  20.779  0.00  0.00    +0.000 OA
BRANCH  18  20
ATOM     20  O   UNL     1       1.129   4.722  20.426  0.00  0.00    +0.000 OA
BRANCH  20  22
ATOM     21  C   UNL     1       0.874   2.754  19.115  0.00  0.00    +0.000 C 
ATOM     22  C   UNL     1       1.113   3.293  20.512  0.00  0.00    +0.000 C 
ENDBRANCH  20  22
ENDBRANCH  18  20
ENDBRANCH   1  18
TORSDOF 4
ENDMDL
MODEL 2
REMARK VINA RESULT:      -7.2      0.080      1.032
REMARK  Name = 
REMARK  6 active torsions:
REMARK  status: ('A' for Active; 'I' for Inactive)
REMARK    1  A    between atoms: C_1  and  C_2
REMARK    2  A    between atoms: C_2  and  O_3
REMARK    3  A    between atoms: O_3  and  C_4
REMARK    4  A    between atoms: C_4  and  C_6
REMARK    5  A    between atoms: C_7  and  C_8
REMARK    6  A    between atoms: C_19  and  C_20
REMARK                            x       y       z     vdW  Elec       q    Type
REMARK                         _______ _______ _______ _____ _____    ______ ____
ROOT
ATOM      1  C   UNL     1       2.318   6.514  19.583  0.00  0.00    +0.000 A 
ATOM      2  C   UNL     1       2.915   6.929  18.398  0.00  0.00    +0.000 A 
ATOM      3  N   UNL     1       2.640   8.256  18.143  0.00  0.00    +0.000 NA
ATOM      4  C   UNL     1       1.859   8.649  19.123  0.00  0.00    +0.000 A 
ATOM      5  C   UNL     1       1.251   9.910  19.390  0.00  0.00    +0.000 A 
ATOM      6  C   UNL     1       0.507  10.080  20.500  0.00  0.00    +0.000 A 
ATOM      7  C   UNL     1       0.307   8.999  21.459  0.00  0.00    +0.000 A 
ATOM      8  C   UNL     1      -0.504   9.240  22.696  0.00  0.00    +0.000 C 
ATOM      9  C   UNL     1       0.869   7.806  21.195  0.00  0.00    +0.000 A 
ATOM     10  N   UNL     1       1.631   7.627  20.036  0.00  0.00    +0.000 N 
ENDROOT
BRANCH   2  11
ATOM     11  C   UNL     1       3.743   6.138  17.492  0.00  0.00    +0.000 A 
ATOM     12  C   UNL     1       4.736   6.727  16.695  0.00  0.00    +0.000 A 
ATOM     13  C   UNL     1       5.480   5.958  15.794  0.00  0.00    +0.000 A 
ATOM     14  C   UNL     1       5.264   4.586  15.713  0.00  0.00    +0.000 A 
ATOM     15 CL   UNL     1       6.175   3.644  14.598  0.00  0.00    +0.000 Cl
ATOM     16  C   UNL     1       4.318   3.974  16.532  0.00  0.00    +0.000 A 
ATOM     17  C   UNL     1       3.560   4.749  17.418  0.00  0.00    +0.000 A 
ENDBRANCH   2  11
BRANCH   1  18
ATOM     18  C   UNL     1       2.367   5.280  20.313  0.00  0.00    +0.000 C 
ATOM     19  O   UNL     1       3.379   4.775  20.782  0.00  0.00    +0.000 OA
BRANCH  18  20
ATOM     20  O   UNL     1       1.148   4.682  20.300  0.00  0.00    +0.000 OA
BRANCH  20  22
ATOM     21  C   UNL     1       0.899   2.667  19.061  0.00  0.00    +0.000 C 
ATOM     22  C   UNL     1       1.158   3.256  20.434  0.00  0.00    +0.000 C 
ENDBRANCH  20  22
ENDBRANCH  18  20
ENDBRANCH   1  18
TORSDOF 4
ENDMDL
MODEL 3
REMARK VINA RESULT:      -6.9      2.904      6.058
REMARK  Name = 
REMARK  6 active torsions:
REMARK  status: ('A' for Active; 'I' for Inactive)
REMARK    1  A    between atoms: C_1  and  C_2
REMARK    2  A    between atoms: C_2  and  O_3
REMARK    3  A    between atoms: O_3  and  C_4
REMARK    4  A    between atoms: C_4  and  C_6
REMARK    5  A    between atoms: C_7  and  C_8
REMARK    6  A    between atoms: C_19  and  C_20
REMARK                            x       y       z     vdW  Elec       q    Type
REMARK                         _______ _______ _______ _____ _____    ______ ____
ROOT
ATOM      1  C   UNL     1       2.736   6.160  18.950  0.00  0.00    +0.000 A 
ATOM      2  C   UNL     1       2.488   7.526  18.873  0.00  0.00    +0.000 A 
ATOM      3  N   UNL     1       3.175   8.096  17.822  0.00  0.00    +0.000 NA
ATOM      4  C   UNL     1       3.864   7.119  17.280  0.00  0.00    +0.000 A 
ATOM      5  C   UNL     1       4.761   7.105  16.172  0.00  0.00    +0.000 A 
ATOM      6  C   UNL     1       5.330   5.950  15.776  0.00  0.00    +0.000 A 
ATOM      7  C   UNL     1       5.047   4.688  16.453  0.00  0.00    +0.000 A 
ATOM      8  C   UNL     1       5.678   3.421  15.962  0.00  0.00    +0.000 C 
ATOM      9  C   UNL     1       4.213   4.708  17.508  0.00  0.00    +0.000 A 
ATOM     10  N   UNL     1       3.633   5.910  17.925  0.00  0.00    +0.000 N 
ENDROOT
BRANCH   2  11
ATOM     11  C   UNL     1       1.626   8.326  19.738  0.00  0.00    +0.000 A 
ATOM     12  C   UNL     1       0.898   9.420  19.248  0.00  0.00    +0.000 A 
ATOM     13  C   UNL     1       0.122  10.206  20.107  0.00  0.00    +0.000 A 
ATOM     14  C   UNL     1       0.035   9.878  21.456  0.00  0.00    +0.000 A 
ATOM     15 CL   UNL     1      -0.914  10.850  22.511  0.00  0.00    +0.000 Cl
ATOM     16  C   UNL     1       0.710   8.764  21.952  0.00  0.00    +0.000 A 
ATOM     17  C   UNL     1       1.503   7.992  21.095  0.00  0.00    +0.000 A 
ENDBRANCH   2  11
BRANCH   1  18
ATOM     18  C   UNL     1       2.211   5.125  19.792  0.00  0.00    +0.000 C 
ATOM     19  O   UNL     1       2.689   4.772  20.862  0.00  0.00    +0.000 OA
BRANCH  18  20
ATOM     20  O   UNL     1       1.177   4.499  19.171  0.00  0.00    +0.000 OA
BRANCH  20  22
ATOM     21  C   UNL     1       1.613   2.233  18.596  0.00  0.00    +0.000 C 
ATOM     22  C   UNL     1       0.930   3.152  19.590  0.00  0.00    +0.000 C 
ENDBRANCH  20  22
ENDBRANCH  18  20
ENDBRANCH   1  18
TORSDOF 4
ENDMDL
MODEL 4
REMARK VINA RESULT:      -6.9      2.893      6.002
REMARK  Name = 
REMARK  6 active torsions:
REMARK  status: ('A' for Active; 'I' for Inactive)
REMARK    1  A    between atoms: C_1  and  C_2
REMARK    2  A    between atoms: C_2  and  O_3
REMARK    3  A    between atoms: O_3  and  C_4
REMARK    4  A    between atoms: C_4  and  C_6
REMARK    5  A    between atoms: C_7  and  C_8
REMARK    6  A    between atoms: C_19  and  C_20
REMARK                            x       y       z     vdW  Elec       q    Type
REMARK                         _______ _______ _______ _____ _____    ______ ____
ROOT
ATOM      1  C   UNL     1       2.759   6.103  18.939  0.00  0.00    +0.000 A 
ATOM      2  C   UNL     1       2.541   7.475  18.881  0.00  0.00    +0.000 A 
ATOM      3  N   UNL     1       3.234   8.043  17.833  0.00  0.00    +0.000 NA
ATOM      4  C   UNL     1       3.901   7.057  17.276  0.00  0.00    +0.000 A 
ATOM      5  C   UNL     1       4.792   7.039  16.164  0.00  0.00    +0.000 A 
ATOM      6  C   UNL     1       5.334   5.876  15.751  0.00  0.00    +0.000 A 
ATOM      7  C   UNL     1       5.026   4.613  16.413  0.00  0.00    +0.000 A 
ATOM      8  C   UNL     1       5.628   3.338  15.904  0.00  0.00    +0.000 C 
ATOM      9  C   UNL     1       4.197   4.637  17.472  0.00  0.00    +0.000 A 
ATOM     10  N   UNL     1       3.646   5.846  17.907  0.00  0.00    +0.000 N 
ENDROOT
BRANCH   2  11
ATOM     11  C   UNL     1       1.699   8.282  19.759  0.00  0.00    +0.000 A 
ATOM     12  C   UNL     1       1.518   7.957  21.112  0.00  0.00    +0.000 A 
ATOM     13  C   UNL     1       0.663   8.713  21.921  0.00  0.00    +0.000 A 
ATOM     14  C   UNL     1       0.015   9.824  21.393  0.00  0.00    +0.000 A 
ATOM     15 CL   UNL     1      -1.042  10.748  22.389  0.00  0.00    +0.000 Cl
ATOM     16  C   UNL     1       0.221  10.194  20.066  0.00  0.00    +0.000 A 
ATOM     17  C   UNL     1       1.061   9.423  19.253  0.00  0.00    +0.000 A 
ENDBRANCH   2  11
BRANCH   1  18
ATOM     18  C   UNL     1       2.215   5.069  19.770  0.00  0.00    +0.000 C 
ATOM     19  O   UNL     1       2.658   4.730  20.860  0.00  0.00    +0.000 OA
BRANCH  18  20
ATOM     20  O   UNL     1       1.212   4.425  19.118  0.00  0.00    +0.000 OA
BRANCH  20  22
ATOM     21  C   UNL     1       1.694   2.162  18.566  0.00  0.00    +0.000 C 
ATOM     22  C   UNL     1       0.969   3.077  19.535  0.00  0.00    +0.000 C 
ENDBRANCH  20  22
ENDBRANCH  18  20
ENDBRANCH   1  18
TORSDOF 4
ENDMDL
MODEL 5
REMARK VINA RESULT:      -6.8      2.871      6.207
REMARK  Name = 
REMARK  6 active torsions:
REMARK  status: ('A' for Active; 'I' for Inactive)
REMARK    1  A    between atoms: C_1  and  C_2
REMARK    2  A    between atoms: C_2  and  O_3
REMARK    3  A    between atoms: O_3  and  C_4
REMARK    4  A    between atoms: C_4  and  C_6
REMARK    5  A    between atoms: C_7  and  C_8
REMARK    6  A    between atoms: C_19  and  C_20
REMARK                            x       y       z     vdW  Elec       q    Type
REMARK                         _______ _______ _______ _____ _____    ______ ____
ROOT
ATOM      1  C   UNL     1       3.027   5.510  17.848  0.00  0.00    +0.000 A 
ATOM      2  C   UNL     1       3.108   6.796  18.371  0.00  0.00    +0.000 A 
ATOM      3  N   UNL     1       4.203   7.466  17.871  0.00  0.00    +0.000 NA
ATOM      4  C   UNL     1       4.814   6.608  17.086  0.00  0.00    +0.000 A 
ATOM      5  C   UNL     1       6.001   6.729  16.306  0.00  0.00    +0.000 A 
ATOM      6  C   UNL     1       6.415   5.701  15.540  0.00  0.00    +0.000 A 
ATOM      7  C   UNL     1       5.670   4.448  15.476  0.00  0.00    +0.000 A 
ATOM      8  C   UNL     1       6.150   3.340  14.588  0.00  0.00    +0.000 C 
ATOM      9  C   UNL     1       4.559   4.332  16.225  0.00  0.00    +0.000 A 
ATOM     10  N   UNL     1       4.138   5.396  17.030  0.00  0.00    +0.000 N 
ENDROOT
BRANCH   2  11
ATOM     11  C   UNL     1       2.195   7.433  19.316  0.00  0.00    +0.000 A 
ATOM     12  C   UNL     1       1.652   8.703  19.076  0.00  0.00    +0.000 A 
ATOM     13  C   UNL     1       0.824   9.318  20.022  0.00  0.00    +0.000 A 
ATOM     14  C   UNL     1       0.500   8.648  21.197  0.00  0.00    +0.000 A 
ATOM     15 CL   UNL     1      -0.512   9.409  22.362  0.00  0.00    +0.000 Cl
ATOM     16  C   UNL     1       0.988   7.364  21.431  0.00  0.00    +0.000 A 
ATOM     17  C   UNL     1       1.834   6.760  20.493  0.00  0.00    +0.000 A 
ENDBRANCH   2  11
BRANCH   1  18
ATOM     18  C   UNL     1       2.052   4.467  17.984  0.00  0.00    +0.000 C 
ATOM     19  O   UNL     1       1.021   4.373  17.331  0.00  0.00    +0.000 OA
BRANCH  18  20
ATOM     20  O   UNL     1       2.368   3.667  19.035  0.00  0.00    +0.000 OA
BRANCH  20  22
ATOM     21  C   UNL     1       1.282   3.099  21.073  0.00  0.00    +0.000 C 
ATOM     22  C   UNL     1       1.288   2.895  19.571  0.00  0.00    +0.000 C 
ENDBRANCH  20  22
ENDBRANCH  18  20
ENDBRANCH   1  18
TORSDOF 4
ENDMDL
MODEL 6
REMARK VINA RESULT:      -6.8      2.863      6.126
REMARK  Name = 
REMARK  6 active torsions:
REMARK  status: ('A' for Active; 'I' for Inactive)
REMARK    1  A    between atoms: C_1  and  C_2
REMARK    2  A    between atoms: C_2  and  O_3
REMARK    3  A    between atoms: O_3  and  C_4
REMARK    4  A    between atoms: C_4  and  C_6
REMARK    5  A    between atoms: C_7  and  C_8
REMARK    6  A    between atoms: C_19  and  C_20
REMARK                            x       y       z     vdW  Elec       q    Type
REMARK                         _______ _______ _______ _____ _____    ______ ____
ROOT
ATOM      1  C   UNL     1       2.966   5.678  17.903  0.00  0.00    +0.000 A 
ATOM      2  C   UNL     1       3.072   7.005  18.307  0.00  0.00    +0.000 A 
ATOM      3  N   UNL     1       4.170   7.610  17.733  0.00  0.00    +0.000 NA
ATOM      4  C   UNL     1       4.757   6.676  17.022  0.00  0.00    +0.000 A 
ATOM      5  C   UNL     1       5.935   6.709  16.219  0.00  0.00    +0.000 A 
ATOM      6  C   UNL     1       6.323   5.610  15.544  0.00  0.00    +0.000 A 
ATOM      7  C   UNL     1       5.560   4.367  15.602  0.00  0.00    +0.000 A 
ATOM      8  C   UNL     1       6.012   3.177  14.813  0.00  0.00    +0.000 C 
ATOM      9  C   UNL     1       4.459   4.336  16.373  0.00  0.00    +0.000 A 
ATOM     10  N   UNL     1       4.064   5.474  17.084  0.00  0.00    +0.000 N 
ENDROOT
BRANCH   2  11
ATOM     11  C   UNL     1       2.182   7.738  19.202  0.00  0.00    +0.000 A 
ATOM     12  C   UNL     1       1.928   7.304  20.511  0.00  0.00    +0.000 A 
ATOM     13  C   UNL     1       1.028   7.992  21.332  0.00  0.00    +0.000 A 
ATOM     14  C   UNL     1       0.407   9.144  20.862  0.00  0.00    +0.000 A 
ATOM     15 CL   UNL     1      -0.705   9.984  21.871  0.00  0.00    +0.000 Cl
ATOM     16  C   UNL     1       0.684   9.621  19.583  0.00  0.00    +0.000 A 
ATOM     17  C   UNL     1       1.569   8.919  18.756  0.00  0.00    +0.000 A 
ENDBRANCH   2  11
BRANCH   1  18
ATOM     18  C   UNL     1       1.978   4.667  18.145  0.00  0.00    +0.000 C 
ATOM     19  O   UNL     1       1.035   4.409  17.408  0.00  0.00    +0.000 OA
BRANCH  18  20
ATOM     20  O   UNL     1       2.161   4.122  19.375  0.00  0.00    +0.000 OA
BRANCH  20  22
ATOM     21  C   UNL     1       1.371   2.959  21.294  0.00  0.00    +0.000 C 
ATOM     22  C   UNL     1       0.964   3.771  20.079  0.00  0.00    +0.000 C 
ENDBRANCH  20  22
ENDBRANCH  18  20
ENDBRANCH   1  18
TORSDOF 4
ENDMDL
MODEL 7
REMARK VINA RESULT:      -6.8      2.920      6.128
REMARK  Name = 
REMARK  6 active torsions:
REMARK  status: ('A' for Active; 'I' for Inactive)
REMARK    1  A    between atoms: C_1  and  C_2
REMARK    2  A    between atoms: C_2  and  O_3
REMARK    3  A    between atoms: O_3  and  C_4
REMARK    4  A    between atoms: C_4  and  C_6
REMARK    5  A    between atoms: C_7  and  C_8
REMARK    6  A    between atoms: C_19  and  C_20
REMARK                            x       y       z     vdW  Elec       q    Type
REMARK                         _______ _______ _______ _____ _____    ______ ____
ROOT
ATOM      1  C   UNL     1       2.839   5.931  18.544  0.00  0.00    +0.000 A 
ATOM      2  C   UNL     1       2.683   7.312  18.584  0.00  0.00    +0.000 A 
ATOM      3  N   UNL     1       3.464   7.926  17.627  0.00  0.00    +0.000 NA
ATOM      4  C   UNL     1       4.121   6.956  17.033  0.00  0.00    +0.000 A 
ATOM      5  C   UNL     1       5.078   6.981  15.977  0.00  0.00    +0.000 A 
ATOM      6  C   UNL     1       5.594   5.830  15.505  0.00  0.00    +0.000 A 
ATOM      7  C   UNL     1       5.193   4.535  16.044  0.00  0.00    +0.000 A 
ATOM      8  C   UNL     1       5.770   3.277  15.471  0.00  0.00    +0.000 C 
ATOM      9  C   UNL     1       4.302   4.517  17.051  0.00  0.00    +0.000 A 
ATOM     10  N   UNL     1       3.776   5.713  17.549  0.00  0.00    +0.000 N 
ENDROOT
BRANCH   2  11
ATOM     11  C   UNL     1       1.824   8.087  19.473  0.00  0.00    +0.000 A 
ATOM     12  C   UNL     1       1.135   9.225  19.029  0.00  0.00    +0.000 A 
ATOM     13  C   UNL     1       0.362   9.985  19.913  0.00  0.00    +0.000 A 
ATOM     14  C   UNL     1       0.240   9.588  21.241  0.00  0.00    +0.000 A 
ATOM     15 CL   UNL     1      -0.705  10.529  22.328  0.00  0.00    +0.000 Cl
ATOM     16  C   UNL     1       0.875   8.433  21.690  0.00  0.00    +0.000 A 
ATOM     17  C   UNL     1       1.665   7.686  20.808  0.00  0.00    +0.000 A 
ENDBRANCH   2  11
BRANCH   1  18
ATOM     18  C   UNL     1       2.201   4.863  19.257  0.00  0.00    +0.000 C 
ATOM     19  O   UNL     1       1.134   4.345  18.952  0.00  0.00    +0.000 OA
BRANCH  18  20
ATOM     20  O   UNL     1       2.883   4.592  20.400  0.00  0.00    +0.000 OA
BRANCH  20  22
ATOM     21  C   UNL     1       2.542   2.555  21.579  0.00  0.00    +0.000 C 
ATOM     22  C   UNL     1       2.114   4.005  21.455  0.00  0.00    +0.000 C 
ENDBRANCH  20  22
ENDBRANCH  18  20
ENDBRANCH   1  18
TORSDOF 4
ENDMDL
MODEL 8
REMARK VINA RESULT:      -6.8      4.341      7.430
REMARK  Name = 
REMARK  6 active torsions:
REMARK  status: ('A' for Active; 'I' for Inactive)
REMARK    1  A    between atoms: C_1  and  C_2
REMARK    2  A    between atoms: C_2  and  O_3
REMARK    3  A    between atoms: O_3  and  C_4
REMARK    4  A    between atoms: C_4  and  C_6
REMARK    5  A    between atoms: C_7  and  C_8
REMARK    6  A    between atoms: C_19  and  C_20
REMARK                            x       y       z     vdW  Elec       q    Type
REMARK                         _______ _______ _______ _____ _____    ______ ____
ROOT
ATOM      1  C   UNL     1       5.962   4.778  17.045  0.00  0.00    +0.000 A 
ATOM      2  C   UNL     1       4.774   4.061  17.128  0.00  0.00    +0.000 A 
ATOM      3  N   UNL     1       4.401   3.577  15.892  0.00  0.00    +0.000 NA
ATOM      4  C   UNL     1       5.311   4.014  15.052  0.00  0.00    +0.000 A 
ATOM      5  C   UNL     1       5.448   3.843  13.644  0.00  0.00    +0.000 A 
ATOM      6  C   UNL     1       6.508   4.368  12.998  0.00  0.00    +0.000 A 
ATOM      7  C   UNL     1       7.542   5.113  13.709  0.00  0.00    +0.000 A 
ATOM      8  C   UNL     1       8.719   5.656  12.957  0.00  0.00    +0.000 C 
ATOM      9  C   UNL     1       7.401   5.286  15.035  0.00  0.00    +0.000 A 
ATOM     10  N   UNL     1       6.294   4.751  15.701  0.00  0.00    +0.000 N 
ENDROOT
BRANCH   2  11
ATOM     11  C   UNL     1       3.972   3.798  18.319  0.00  0.00    +0.000 A 
ATOM     12  C   UNL     1       4.355   2.842  19.271  0.00  0.00    +0.000 A 
ATOM     13  C   UNL     1       3.543   2.566  20.376  0.00  0.00    +0.000 A 
ATOM     14  C   UNL     1       2.360   3.276  20.559  0.00  0.00    +0.000 A 
ATOM     15 CL   UNL     1       1.359   2.930  21.915  0.00  0.00    +0.000 Cl
ATOM     16  C   UNL     1       1.988   4.266  19.652  0.00  0.00    +0.000 A 
ATOM     17  C   UNL     1       2.792   4.524  18.535  0.00  0.00    +0.000 A 
ENDBRANCH   2  11
BRANCH   1  18
ATOM     18  C   UNL     1       6.792   5.397  18.038  0.00  0.00    +0.000 C 
ATOM     19  O   UNL     1       7.298   4.824  18.995  0.00  0.00    +0.000 OA
BRANCH  18  20
ATOM     20  O   UNL     1       6.832   6.740  17.841  0.00  0.00    +0.000 OA
BRANCH  20  22
ATOM     21  C   UNL     1       7.953   8.838  17.818  0.00  0.00    +0.000 C 
ATOM     22  C   UNL     1       8.030   7.393  18.274  0.00  0.00    +0.000 C 
ENDBRANCH  20  22
ENDBRANCH  18  20
ENDBRANCH   1  18
TORSDOF 4
ENDMDL
MODEL 9
REMARK VINA RESULT:      -6.7      2.697      4.295
REMARK  Name = 
REMARK  6 active torsions:
REMARK  status: ('A' for Active; 'I' for Inactive)
REMARK    1  A    between atoms: C_1  and  C_2
REMARK    2  A    between atoms: C_2  and  O_3
REMARK    3  A    between atoms: O_3  and  C_4
REMARK    4  A    between atoms: C_4  and  C_6
REMARK    5  A    between atoms: C_7  and  C_8
REMARK    6  A    between atoms: C_19  and  C_20
REMARK                            x       y       z     vdW  Elec       q    Type
REMARK                         _______ _______ _______ _____ _____    ______ ____
ROOT
ATOM      1  C   UNL     1       0.908   9.552  19.717  0.00  0.00    +0.000 A 
ATOM      2  C   UNL     1       1.477   8.336  20.079  0.00  0.00    +0.000 A 
ATOM      3  N   UNL     1       1.192   8.027  21.392  0.00  0.00    +0.000 NA
ATOM      4  C   UNL     1       0.497   9.043  21.851  0.00  0.00    +0.000 A 
ATOM      5  C   UNL     1      -0.064   9.291  23.137  0.00  0.00    +0.000 A 
ATOM      6  C   UNL     1      -0.780  10.411  23.358  0.00  0.00    +0.000 A 
ATOM      7  C   UNL     1      -1.010  11.391  22.301  0.00  0.00    +0.000 A 
ATOM      8  C   UNL     1      -1.836  12.609  22.582  0.00  0.00    +0.000 C 
ATOM      9  C   UNL     1      -0.465  11.161  21.094  0.00  0.00    +0.000 A 
ATOM     10  N   UNL     1       0.289  10.004  20.870  0.00  0.00    +0.000 N 
ENDROOT
BRANCH   2  11
ATOM     11  C   UNL     1       2.272   7.440  19.244  0.00  0.00    +0.000 A 
ATOM     12  C   UNL     1       2.386   6.071  19.530  0.00  0.00    +0.000 A 
ATOM     13  C   UNL     1       3.198   5.242  18.749  0.00  0.00    +0.000 A 
ATOM     14  C   UNL     1       3.869   5.768  17.650  0.00  0.00    +0.000 A 
ATOM     15 CL   UNL     1       4.873   4.748  16.695  0.00  0.00    +0.000 Cl
ATOM     16  C   UNL     1       3.728   7.114  17.318  0.00  0.00    +0.000 A 
ATOM     17  C   UNL     1       2.932   7.946  18.115  0.00  0.00    +0.000 A 
ENDBRANCH   2  11
BRANCH   1  18
ATOM     18  C   UNL     1       0.842  10.259  18.471  0.00  0.00    +0.000 C 
ATOM     19  O   UNL     1       1.495  11.255  18.187  0.00  0.00    +0.000 OA
BRANCH  18  20
ATOM     20  O   UNL     1      -0.146   9.744  17.695  0.00  0.00    +0.000 OA
BRANCH  20  22
ATOM     21  C   UNL     1      -2.262   9.915  16.623  0.00  0.00    +0.000 C 
ATOM     22  C   UNL     1      -1.405  10.423  17.766  0.00  0.00    +0.000 C 
ENDBRANCH  20  22
ENDBRANCH  18  20
ENDBRANCH   1  18
TORSDOF 4
ENDMDL
