MODEL 1
REMARK VINA RESULT:      -7.5      0.000      0.000
REMARK  Name = 
REMARK  13 active torsions:
REMARK  status: ('A' for Active; 'I' for Inactive)
REMARK    1  A    between atoms: C_1  and  S_2
REMARK    2  A    between atoms: S_2  and  C_3
REMARK    3  A    between atoms: C_6  and  C_7
REMARK    4  A    between atoms: C_7  and  C_23
REMARK    5  A    between atoms: N_8  and  O_9
REMARK    6  A    between atoms: O_9  and  C_10
REMARK    7  A    between atoms: C_10  and  C_11
REMARK    8  A    between atoms: C_11  and  C_12
REMARK    9  A    between atoms: C_12  and  C_13
REMARK   10  A    between atoms: C_13  and  N_14
REMARK   11  A    between atoms: N_14  and  C_15
REMARK   12  A    between atoms: C_15  and  C_16
REMARK   13  A    between atoms: C_16  and  C_17
REMARK                            x       y       z     vdW  Elec       q    Type
REMARK                         _______ _______ _______ _____ _____    ______ ____
ROOT
ATOM      1  C   UNL     1      -1.083  11.392  19.161  0.00  0.00    +0.000 C 
ATOM      2  N   UNL     1      -1.059  10.609  20.226  0.00  0.00    +0.000 NA
ENDROOT
BRANCH   1   3
ATOM      3  C   UNL     1      -2.094  11.072  18.084  0.00  0.00    +0.000 A 
ATOM      4  C   UNL     1      -1.704  10.338  16.961  0.00  0.00    +0.000 A 
ATOM      5  C   UNL     1      -2.555  10.297  15.861  0.00  0.00    +0.000 A 
ATOM      6  C   UNL     1      -3.845  10.687  15.941  0.00  0.00    +0.000 A 
ATOM      7  C   UNL     1      -4.197  11.353  17.025  0.00  0.00    +0.000 A 
ATOM      8  C   UNL     1      -5.395  11.897  16.979  0.00  0.00    +0.000 A 
ATOM      9  C   UNL     1      -5.803  12.493  18.157  0.00  0.00    +0.000 A 
ATOM     10  C   UNL     1      -6.226  13.058  19.253  0.00  0.00    +0.000 A 
ATOM     11  C   UNL     1      -4.503  12.341  19.212  0.00  0.00    +0.000 A 
ATOM     12  C   UNL     1      -3.478  11.583  18.157  0.00  0.00    +0.000 A 
ENDBRANCH   1   3
BRANCH   1  16
ATOM     13  C   UNL     1       1.647  14.707  18.690  0.00  0.00    +0.000 A 
ATOM     14  C   UNL     1       2.058  13.414  18.550  0.00  0.00    +0.000 A 
ATOM     15  C   UNL     1       1.108  12.416  18.519  0.00  0.00    +0.000 A 
ATOM     16  C   UNL     1      -0.195  12.575  18.928  0.00  0.00    +0.000 A 
ATOM     17  C   UNL     1      -0.585  13.874  19.135  0.00  0.00    +0.000 A 
ATOM     18  C   UNL     1       0.319  14.921  19.022  0.00  0.00    +0.000 A 
BRANCH  13  20
ATOM     19  C   UNL     1       1.678  17.562  18.971  0.00  0.00    +0.000 C 
ATOM     20  S   UNL     1       2.666  16.134  18.437  0.00  0.00    +0.000 S 
ENDBRANCH  13  20
ENDBRANCH   1  16
BRANCH   2  21
ATOM     21  O   UNL     1      -0.098  10.968  21.185  0.00  0.00    +0.000 OA
BRANCH  21  22
ATOM     22  C   UNL     1      -0.469  10.887  22.540  0.00  0.00    +0.000 C 
BRANCH  22  23
ATOM     23  C   UNL     1       0.052   9.570  23.124  0.00  0.00    +0.000 C 
BRANCH  23  24
ATOM     24  C   UNL     1       1.325   9.139  22.419  0.00  0.00    +0.000 C 
BRANCH  24  25
ATOM     25  C   UNL     1       1.051   8.014  21.446  0.00  0.00    +0.000 C 
BRANCH  25  26
ATOM     26  N   UNL     1       1.517   8.387  20.120  0.00  0.00    +0.000 NA
ATOM     27  H   UNL     1       2.220   9.120  20.194  0.00  0.00    +0.000 HD
BRANCH  26  28
ATOM     28  C   UNL     1       2.109   7.231  19.473  0.00  0.00    +0.000 C 
BRANCH  28  29
ATOM     29  C   UNL     1       2.133   6.038  20.407  0.00  0.00    +0.000 C 
BRANCH  29  30
ATOM     30  C   UNL     1       1.870   4.779  19.655  0.00  0.00    +0.000 A 
ATOM     31  C   UNL     1       1.279   3.678  20.237  0.00  0.00    +0.000 A 
ATOM     32  C   UNL     1       1.315   2.469  19.586  0.00  0.00    +0.000 A 
ATOM     33  C   UNL     1       1.637   2.387  18.258  0.00  0.00    +0.000 A 
ATOM     34  C   UNL     1       2.161   3.493  17.652  0.00  0.00    +0.000 A 
ATOM     35  C   UNL     1       2.265   4.684  18.341  0.00  0.00    +0.000 A 
ENDBRANCH  29  30
ENDBRANCH  28  29
ENDBRANCH  26  28
ENDBRANCH  25  26
ENDBRANCH  24  25
ENDBRANCH  23  24
ENDBRANCH  22  23
ENDBRANCH  21  22
ENDBRANCH   2  21
TORSDOF 12
ENDMDL
MODEL 2
REMARK VINA RESULT:      -7.4      2.015      3.500
REMARK  Name = 
REMARK  13 active torsions:
REMARK  status: ('A' for Active; 'I' for Inactive)
REMARK    1  A    between atoms: C_1  and  S_2
REMARK    2  A    between atoms: S_2  and  C_3
REMARK    3  A    between atoms: C_6  and  C_7
REMARK    4  A    between atoms: C_7  and  C_23
REMARK    5  A    between atoms: N_8  and  O_9
REMARK    6  A    between atoms: O_9  and  C_10
REMARK    7  A    between atoms: C_10  and  C_11
REMARK    8  A    between atoms: C_11  and  C_12
REMARK    9  A    between atoms: C_12  and  C_13
REMARK   10  A    between atoms: C_13  and  N_14
REMARK   11  A    between atoms: N_14  and  C_15
REMARK   12  A    between atoms: C_15  and  C_16
REMARK   13  A    between atoms: C_16  and  C_17
REMARK                            x       y       z     vdW  Elec       q    Type
REMARK                         _______ _______ _______ _____ _____    ______ ____
ROOT
ATOM      1  C   UNL     1      -0.021  10.987  19.069  0.00  0.00    +0.000 C 
ATOM      2  N   UNL     1       0.153   9.681  18.964  0.00  0.00    +0.000 NA
ENDROOT
BRANCH   1   3
ATOM      3  C   UNL     1      -1.437  11.509  18.998  0.00  0.00    +0.000 A 
ATOM      4  C   UNL     1      -1.968  12.225  20.075  0.00  0.00    +0.000 A 
ATOM      5  C   UNL     1      -3.341  12.447  20.117  0.00  0.00    +0.000 A 
ATOM      6  C   UNL     1      -4.129  12.259  19.038  0.00  0.00    +0.000 A 
ATOM      7  C   UNL     1      -3.596  11.607  18.022  0.00  0.00    +0.000 A 
ATOM      8  C   UNL     1      -4.445  11.257  17.078  0.00  0.00    +0.000 A 
ATOM      9  C   UNL     1      -3.865  10.679  15.966  0.00  0.00    +0.000 A 
ATOM     10  C   UNL     1      -3.353  10.136  14.896  0.00  0.00    +0.000 A 
ATOM     11  C   UNL     1      -2.223  10.579  16.315  0.00  0.00    +0.000 A 
ATOM     12  C   UNL     1      -2.305  11.216  17.840  0.00  0.00    +0.000 A 
ENDBRANCH   1   3
BRANCH   1  16
ATOM     13  C   UNL     1       2.929  14.071  19.745  0.00  0.00    +0.000 A 
ATOM     14  C   UNL     1       2.246  13.493  20.775  0.00  0.00    +0.000 A 
ATOM     15  C   UNL     1       1.465  12.388  20.515  0.00  0.00    +0.000 A 
ATOM     16  C   UNL     1       1.066  11.999  19.258  0.00  0.00    +0.000 A 
ATOM     17  C   UNL     1       1.707  12.633  18.224  0.00  0.00    +0.000 A 
ATOM     18  C   UNL     1       2.619  13.652  18.460  0.00  0.00    +0.000 A 
BRANCH  13  20
ATOM     19  C   UNL     1       3.821  16.214  21.431  0.00  0.00    +0.000 C 
ATOM     20  S   UNL     1       4.211  15.279  19.923  0.00  0.00    +0.000 S 
ENDBRANCH  13  20
ENDBRANCH   1  16
BRANCH   2  21
ATOM     21  O   UNL     1       1.493   9.268  19.042  0.00  0.00    +0.000 OA
BRANCH  21  22
ATOM     22  C   UNL     1       2.058   8.671  17.900  0.00  0.00    +0.000 C 
BRANCH  22  23
ATOM     23  C   UNL     1       2.187   7.163  18.136  0.00  0.00    +0.000 C 
BRANCH  23  24
ATOM     24  C   UNL     1       3.629   6.789  18.431  0.00  0.00    +0.000 C 
BRANCH  24  25
ATOM     25  C   UNL     1       4.226   5.994  17.292  0.00  0.00    +0.000 C 
BRANCH  25  26
ATOM     26  N   UNL     1       4.633   4.682  17.770  0.00  0.00    +0.000 NA
ATOM     27  H   UNL     1       4.336   4.558  18.735  0.00  0.00    +0.000 HD
BRANCH  26  28
ATOM     28  C   UNL     1       4.014   3.657  16.952  0.00  0.00    +0.000 C 
BRANCH  28  29
ATOM     29  C   UNL     1       3.651   2.443  17.783  0.00  0.00    +0.000 C 
BRANCH  29  30
ATOM     30  C   UNL     1       2.901   2.850  19.005  0.00  0.00    +0.000 A 
ATOM     31  C   UNL     1       3.412   2.694  20.275  0.00  0.00    +0.000 A 
ATOM     32  C   UNL     1       2.579   2.825  21.360  0.00  0.00    +0.000 A 
ATOM     33  C   UNL     1       1.345   3.406  21.241  0.00  0.00    +0.000 A 
ATOM     34  C   UNL     1       0.855   3.627  19.985  0.00  0.00    +0.000 A 
ATOM     35  C   UNL     1       1.631   3.364  18.876  0.00  0.00    +0.000 A 
ENDBRANCH  29  30
ENDBRANCH  28  29
ENDBRANCH  26  28
ENDBRANCH  25  26
ENDBRANCH  24  25
ENDBRANCH  23  24
ENDBRANCH  22  23
ENDBRANCH  21  22
ENDBRANCH   2  21
TORSDOF 12
ENDMDL
MODEL 3
REMARK VINA RESULT:      -7.4      2.871      7.041
REMARK  Name = 
REMARK  13 active torsions:
REMARK  status: ('A' for Active; 'I' for Inactive)
REMARK    1  A    between atoms: C_1  and  S_2
REMARK    2  A    between atoms: S_2  and  C_3
REMARK    3  A    between atoms: C_6  and  C_7
REMARK    4  A    between atoms: C_7  and  C_23
REMARK    5  A    between atoms: N_8  and  O_9
REMARK    6  A    between atoms: O_9  and  C_10
REMARK    7  A    between atoms: C_10  and  C_11
REMARK    8  A    between atoms: C_11  and  C_12
REMARK    9  A    between atoms: C_12  and  C_13
REMARK   10  A    between atoms: C_13  and  N_14
REMARK   11  A    between atoms: N_14  and  C_15
REMARK   12  A    between atoms: C_15  and  C_16
REMARK   13  A    between atoms: C_16  and  C_17
REMARK                            x       y       z     vdW  Elec       q    Type
REMARK                         _______ _______ _______ _____ _____    ______ ____
ROOT
ATOM      1  C   UNL     1      -0.039  11.019  18.638  0.00  0.00    +0.000 C 
ATOM      2  N   UNL     1       0.314  12.279  18.827  0.00  0.00    +0.000 NA
ENDROOT
BRANCH   1   3
ATOM      3  C   UNL     1      -1.441  10.757  18.138  0.00  0.00    +0.000 A 
ATOM      4  C   UNL     1      -1.646   9.865  17.082  0.00  0.00    +0.000 A 
ATOM      5  C   UNL     1      -2.886   9.849  16.452  0.00  0.00    +0.000 A 
ATOM      6  C   UNL     1      -3.971  10.441  16.995  0.00  0.00    +0.000 A 
ATOM      7  C   UNL     1      -3.755  11.256  18.010  0.00  0.00    +0.000 A 
ATOM      8  C   UNL     1      -4.796  11.973  18.379  0.00  0.00    +0.000 A 
ATOM      9  C   UNL     1      -4.598  12.738  19.512  0.00  0.00    +0.000 A 
ATOM     10  C   UNL     1      -4.451  13.467  20.583  0.00  0.00    +0.000 A 
ATOM     11  C   UNL     1      -2.993  12.489  19.948  0.00  0.00    +0.000 A 
ATOM     12  C   UNL     1      -2.601  11.481  18.695  0.00  0.00    +0.000 A 
ENDBRANCH   1   3
BRANCH   1  16
ATOM     13  C   UNL     1       2.324   7.434  19.118  0.00  0.00    +0.000 A 
ATOM     14  C   UNL     1       2.196   8.052  17.908  0.00  0.00    +0.000 A 
ATOM     15  C   UNL     1       1.593   9.291  17.858  0.00  0.00    +0.000 A 
ATOM     16  C   UNL     1       0.832   9.824  18.871  0.00  0.00    +0.000 A 
ATOM     17  C   UNL     1       0.910   9.158  20.068  0.00  0.00    +0.000 A 
ATOM     18  C   UNL     1       1.639   7.984  20.190  0.00  0.00    +0.000 A 
BRANCH  13  20
ATOM     19  C   UNL     1       3.763   5.325  17.810  0.00  0.00    +0.000 C 
ATOM     20  S   UNL     1       3.333   6.013  19.435  0.00  0.00    +0.000 S 
ENDBRANCH  13  20
ENDBRANCH   1  16
BRANCH   2  21
ATOM     21  O   UNL     1       1.630  12.446  19.288  0.00  0.00    +0.000 OA
BRANCH  21  22
ATOM     22  C   UNL     1       2.479  13.286  18.543  0.00  0.00    +0.000 C 
BRANCH  22  23
ATOM     23  C   UNL     1       2.730  14.573  19.335  0.00  0.00    +0.000 C 
BRANCH  23  24
ATOM     24  C   UNL     1       1.644  15.595  19.054  0.00  0.00    +0.000 C 
BRANCH  24  25
ATOM     25  C   UNL     1       0.835  15.882  20.299  0.00  0.00    +0.000 C 
BRANCH  25  26
ATOM     26  N   UNL     1       0.028  14.720  20.639  0.00  0.00    +0.000 NA
ATOM     27  H   UNL     1       0.287  13.934  20.046  0.00  0.00    +0.000 HD
BRANCH  26  28
ATOM     28  C   UNL     1       0.258  14.361  22.025  0.00  0.00    +0.000 C 
BRANCH  28  29
ATOM     29  C   UNL     1      -0.345  13.007  22.343  0.00  0.00    +0.000 C 
BRANCH  29  30
ATOM     30  C   UNL     1      -1.639  13.166  23.064  0.00  0.00    +0.000 A 
ATOM     31  C   UNL     1      -2.050  14.371  23.592  0.00  0.00    +0.000 A 
ATOM     32  C   UNL     1      -3.103  14.399  24.474  0.00  0.00    +0.000 A 
ATOM     33  C   UNL     1      -3.947  13.329  24.606  0.00  0.00    +0.000 A 
ATOM     34  C   UNL     1      -3.583  12.146  24.029  0.00  0.00    +0.000 A 
ATOM     35  C   UNL     1      -2.445  12.068  23.253  0.00  0.00    +0.000 A 
ENDBRANCH  29  30
ENDBRANCH  28  29
ENDBRANCH  26  28
ENDBRANCH  25  26
ENDBRANCH  24  25
ENDBRANCH  23  24
ENDBRANCH  22  23
ENDBRANCH  21  22
ENDBRANCH   2  21
TORSDOF 12
ENDMDL
MODEL 4
REMARK VINA RESULT:      -7.3      1.377      2.738
REMARK  Name = 
REMARK  13 active torsions:
REMARK  status: ('A' for Active; 'I' for Inactive)
REMARK    1  A    between atoms: C_1  and  S_2
REMARK    2  A    between atoms: S_2  and  C_3
REMARK    3  A    between atoms: C_6  and  C_7
REMARK    4  A    between atoms: C_7  and  C_23
REMARK    5  A    between atoms: N_8  and  O_9
REMARK    6  A    between atoms: O_9  and  C_10
REMARK    7  A    between atoms: C_10  and  C_11
REMARK    8  A    between atoms: C_11  and  C_12
REMARK    9  A    between atoms: C_12  and  C_13
REMARK   10  A    between atoms: C_13  and  N_14
REMARK   11  A    between atoms: N_14  and  C_15
REMARK   12  A    between atoms: C_15  and  C_16
REMARK   13  A    between atoms: C_16  and  C_17
REMARK                            x       y       z     vdW  Elec       q    Type
REMARK                         _______ _______ _______ _____ _____    ______ ____
ROOT
ATOM      1  C   UNL     1      -0.882  11.500  19.859  0.00  0.00    +0.000 C 
ATOM      2  N   UNL     1      -0.663  10.261  20.265  0.00  0.00    +0.000 NA
ENDROOT
BRANCH   1   3
ATOM      3  C   UNL     1      -2.290  11.856  19.439  0.00  0.00    +0.000 A 
ATOM      4  C   UNL     1      -3.139  12.505  20.339  0.00  0.00    +0.000 A 
ATOM      5  C   UNL     1      -4.498  12.569  20.049  0.00  0.00    +0.000 A 
ATOM      6  C   UNL     1      -4.979  12.292  18.819  0.00  0.00    +0.000 A 
ATOM      7  C   UNL     1      -4.150  11.705  17.976  0.00  0.00    +0.000 A 
ATOM      8  C   UNL     1      -4.704  11.261  16.868  0.00  0.00    +0.000 A 
ATOM      9  C   UNL     1      -3.814  10.754  15.941  0.00  0.00    +0.000 A 
ATOM     10  C   UNL     1      -3.004  10.274  15.039  0.00  0.00    +0.000 A 
ATOM     11  C   UNL     1      -2.303  10.842  16.672  0.00  0.00    +0.000 A 
ATOM     12  C   UNL     1      -2.817  11.465  18.117  0.00  0.00    +0.000 A 
ENDBRANCH   1   3
BRANCH   1  16
ATOM     13  C   UNL     1       2.269  14.441  19.570  0.00  0.00    +0.000 A 
ATOM     14  C   UNL     1       1.947  13.629  18.522  0.00  0.00    +0.000 A 
ATOM     15  C   UNL     1       0.813  12.851  18.610  0.00  0.00    +0.000 A 
ATOM     16  C   UNL     1       0.144  12.587  19.782  0.00  0.00    +0.000 A 
ATOM     17  C   UNL     1       0.519  13.359  20.851  0.00  0.00    +0.000 A 
ATOM     18  C   UNL     1       1.563  14.268  20.750  0.00  0.00    +0.000 A 
BRANCH  13  20
ATOM     19  C   UNL     1       3.642  16.217  17.783  0.00  0.00    +0.000 C 
ATOM     20  S   UNL     1       3.483  15.730  19.526  0.00  0.00    +0.000 S 
ENDBRANCH  13  20
ENDBRANCH   1  16
BRANCH   2  21
ATOM     21  O   UNL     1       0.665  10.003  20.642  0.00  0.00    +0.000 OA
BRANCH  21  22
ATOM     22  C   UNL     1       0.969   8.713  21.117  0.00  0.00    +0.000 C 
BRANCH  22  23
ATOM     23  C   UNL     1       1.796   7.974  20.060  0.00  0.00    +0.000 C 
BRANCH  23  24
ATOM     24  C   UNL     1       1.889   8.791  18.785  0.00  0.00    +0.000 C 
BRANCH  24  25
ATOM     25  C   UNL     1       2.723   8.079  17.744  0.00  0.00    +0.000 C 
BRANCH  25  26
ATOM     26  N   UNL     1       2.523   6.642  17.853  0.00  0.00    +0.000 NA
ATOM     27  H   UNL     1       1.925   6.318  17.096  0.00  0.00    +0.000 HD
BRANCH  26  28
ATOM     28  C   UNL     1       3.803   5.967  17.764  0.00  0.00    +0.000 C 
BRANCH  28  29
ATOM     29  C   UNL     1       3.626   4.462  17.781  0.00  0.00    +0.000 C 
BRANCH  29  30
ATOM     30  C   UNL     1       2.718   4.053  18.888  0.00  0.00    +0.000 A 
ATOM     31  C   UNL     1       3.019   4.275  20.215  0.00  0.00    +0.000 A 
ATOM     32  C   UNL     1       2.290   3.638  21.189  0.00  0.00    +0.000 A 
ATOM     33  C   UNL     1       1.090   3.044  20.904  0.00  0.00    +0.000 A 
ATOM     34  C   UNL     1       0.748   2.880  19.592  0.00  0.00    +0.000 A 
ATOM     35  C   UNL     1       1.549   3.391  18.592  0.00  0.00    +0.000 A 
ENDBRANCH  29  30
ENDBRANCH  28  29
ENDBRANCH  26  28
ENDBRANCH  25  26
ENDBRANCH  24  25
ENDBRANCH  23  24
ENDBRANCH  22  23
ENDBRANCH  21  22
ENDBRANCH   2  21
TORSDOF 12
ENDMDL
MODEL 5
REMARK VINA RESULT:      -7.2      1.025      1.743
REMARK  Name = 
REMARK  13 active torsions:
REMARK  status: ('A' for Active; 'I' for Inactive)
REMARK    1  A    between atoms: C_1  and  S_2
REMARK    2  A    between atoms: S_2  and  C_3
REMARK    3  A    between atoms: C_6  and  C_7
REMARK    4  A    between atoms: C_7  and  C_23
REMARK    5  A    between atoms: N_8  and  O_9
REMARK    6  A    between atoms: O_9  and  C_10
REMARK    7  A    between atoms: C_10  and  C_11
REMARK    8  A    between atoms: C_11  and  C_12
REMARK    9  A    between atoms: C_12  and  C_13
REMARK   10  A    between atoms: C_13  and  N_14
REMARK   11  A    between atoms: N_14  and  C_15
REMARK   12  A    between atoms: C_15  and  C_16
REMARK   13  A    between atoms: C_16  and  C_17
REMARK                            x       y       z     vdW  Elec       q    Type
REMARK                         _______ _______ _______ _____ _____    ______ ____
ROOT
ATOM      1  C   UNL     1      -1.073  11.100  19.484  0.00  0.00    +0.000 C 
ATOM      2  N   UNL     1      -1.185  10.338  20.559  0.00  0.00    +0.000 NA
ENDROOT
BRANCH   1   3
ATOM      3  C   UNL     1      -2.045  10.854  18.353  0.00  0.00    +0.000 A 
ATOM      4  C   UNL     1      -1.650  10.090  17.252  0.00  0.00    +0.000 A 
ATOM      5  C   UNL     1      -2.439  10.110  16.107  0.00  0.00    +0.000 A 
ATOM      6  C   UNL     1      -3.698  10.597  16.115  0.00  0.00    +0.000 A 
ATOM      7  C   UNL     1      -4.057  11.291  17.179  0.00  0.00    +0.000 A 
ATOM      8  C   UNL     1      -5.206  11.924  17.067  0.00  0.00    +0.000 A 
ATOM      9  C   UNL     1      -5.633  12.553  18.221  0.00  0.00    +0.000 A 
ATOM     10  C   UNL     1      -6.072  13.151  19.293  0.00  0.00    +0.000 A 
ATOM     11  C   UNL     1      -4.409  12.305  19.347  0.00  0.00    +0.000 A 
ATOM     12  C   UNL     1      -3.387  11.469  18.350  0.00  0.00    +0.000 A 
ENDBRANCH   1   3
BRANCH   1  16
ATOM     13  C   UNL     1       1.658  14.361  18.731  0.00  0.00    +0.000 A 
ATOM     14  C   UNL     1       0.370  14.580  19.124  0.00  0.00    +0.000 A 
ATOM     15  C   UNL     1      -0.389  13.505  19.534  0.00  0.00    +0.000 A 
ATOM     16  C   UNL     1      -0.067  12.192  19.290  0.00  0.00    +0.000 A 
ATOM     17  C   UNL     1       1.207  11.982  18.828  0.00  0.00    +0.000 A 
ATOM     18  C   UNL     1       2.054  13.045  18.550  0.00  0.00    +0.000 A 
BRANCH  13  20
ATOM     19  C   UNL     1       4.425  14.978  19.173  0.00  0.00    +0.000 C 
ATOM     20  S   UNL     1       2.875  15.623  18.477  0.00  0.00    +0.000 S 
ENDBRANCH  13  20
ENDBRANCH   1  16
BRANCH   2  21
ATOM     21  O   UNL     1      -0.253  10.624  21.570  0.00  0.00    +0.000 OA
BRANCH  21  22
ATOM     22  C   UNL     1       0.431   9.540  22.150  0.00  0.00    +0.000 C 
BRANCH  22  23
ATOM     23  C   UNL     1       1.693   9.248  21.331  0.00  0.00    +0.000 C 
BRANCH  23  24
ATOM     24  C   UNL     1       1.423   8.170  20.298  0.00  0.00    +0.000 C 
BRANCH  24  25
ATOM     25  C   UNL     1       1.995   8.553  18.952  0.00  0.00    +0.000 C 
BRANCH  25  26
ATOM     26  N   UNL     1       2.009   7.392  18.075  0.00  0.00    +0.000 NA
ATOM     27  H   UNL     1       1.734   7.667  17.134  0.00  0.00    +0.000 HD
BRANCH  26  28
ATOM     28  C   UNL     1       3.346   6.834  18.032  0.00  0.00    +0.000 C 
BRANCH  28  29
ATOM     29  C   UNL     1       3.303   5.334  17.826  0.00  0.00    +0.000 C 
BRANCH  29  30
ATOM     30  C   UNL     1       2.517   4.678  18.909  0.00  0.00    +0.000 A 
ATOM     31  C   UNL     1       2.837   4.813  20.243  0.00  0.00    +0.000 A 
ATOM     32  C   UNL     1       2.257   3.975  21.165  0.00  0.00    +0.000 A 
ATOM     33  C   UNL     1       1.152   3.231  20.852  0.00  0.00    +0.000 A 
ATOM     34  C   UNL     1       0.784   3.145  19.539  0.00  0.00    +0.000 A 
ATOM     35  C   UNL     1       1.452   3.873  18.577  0.00  0.00    +0.000 A 
ENDBRANCH  29  30
ENDBRANCH  28  29
ENDBRANCH  26  28
ENDBRANCH  25  26
ENDBRANCH  24  25
ENDBRANCH  23  24
ENDBRANCH  22  23
ENDBRANCH  21  22
ENDBRANCH   2  21
TORSDOF 12
ENDMDL
MODEL 6
REMARK VINA RESULT:      -7.2      2.676      4.087
REMARK  Name = 
REMARK  13 active torsions:
REMARK  status: ('A' for Active; 'I' for Inactive)
REMARK    1  A    between atoms: C_1  and  S_2
REMARK    2  A    between atoms: S_2  and  C_3
REMARK    3  A    between atoms: C_6  and  C_7
REMARK    4  A    between atoms: C_7  and  C_23
REMARK    5  A    between atoms: N_8  and  O_9
REMARK    6  A    between atoms: O_9  and  C_10
REMARK    7  A    between atoms: C_10  and  C_11
REMARK    8  A    between atoms: C_11  and  C_12
REMARK    9  A    between atoms: C_12  and  C_13
REMARK   10  A    between atoms: C_13  and  N_14
REMARK   11  A    between atoms: N_14  and  C_15
REMARK   12  A    between atoms: C_15  and  C_16
REMARK   13  A    between atoms: C_16  and  C_17
REMARK                            x       y       z     vdW  Elec       q    Type
REMARK                         _______ _______ _______ _____ _____    ______ ____
ROOT
ATOM      1  C   UNL     1      -0.129  11.132  18.760  0.00  0.00    +0.000 C 
ATOM      2  N   UNL     1       0.131   9.868  18.473  0.00  0.00    +0.000 NA
ENDROOT
BRANCH   1   3
ATOM      3  C   UNL     1      -1.577  11.567  18.739  0.00  0.00    +0.000 A 
ATOM      4  C   UNL     1      -2.118  12.231  19.842  0.00  0.00    +0.000 A 
ATOM      5  C   UNL     1      -3.500  12.368  19.928  0.00  0.00    +0.000 A 
ATOM      6  C   UNL     1      -4.306  12.148  18.869  0.00  0.00    +0.000 A 
ATOM      7  C   UNL     1      -3.765  11.546  17.826  0.00  0.00    +0.000 A 
ATOM      8  C   UNL     1      -4.618  11.159  16.901  0.00  0.00    +0.000 A 
ATOM      9  C   UNL     1      -4.038  10.635  15.763  0.00  0.00    +0.000 A 
ATOM     10  C   UNL     1      -3.525  10.142  14.670  0.00  0.00    +0.000 A 
ATOM     11  C   UNL     1      -2.383  10.631  16.063  0.00  0.00    +0.000 A 
ATOM     12  C   UNL     1      -2.458  11.239  17.601  0.00  0.00    +0.000 A 
ENDBRANCH   1   3
BRANCH   1  16
ATOM     13  C   UNL     1       2.985  14.005  19.603  0.00  0.00    +0.000 A 
ATOM     14  C   UNL     1       2.565  13.756  18.329  0.00  0.00    +0.000 A 
ATOM     15  C   UNL     1       1.443  12.978  18.142  0.00  0.00    +0.000 A 
ATOM     16  C   UNL     1       0.887  12.175  19.109  0.00  0.00    +0.000 A 
ATOM     17  C   UNL     1       1.363  12.381  20.379  0.00  0.00    +0.000 A 
ATOM     18  C   UNL     1       2.394  13.277  20.623  0.00  0.00    +0.000 A 
BRANCH  13  20
ATOM     19  C   UNL     1       4.420  16.279  18.602  0.00  0.00    +0.000 C 
ATOM     20  S   UNL     1       4.192  15.219  20.059  0.00  0.00    +0.000 S 
ENDBRANCH  13  20
ENDBRANCH   1  16
BRANCH   2  21
ATOM     21  O   UNL     1       1.495   9.536  18.516  0.00  0.00    +0.000 OA
BRANCH  21  22
ATOM     22  C   UNL     1       1.906   8.597  19.481  0.00  0.00    +0.000 C 
BRANCH  22  23
ATOM     23  C   UNL     1       2.283   7.289  18.779  0.00  0.00    +0.000 C 
BRANCH  23  24
ATOM     24  C   UNL     1       2.305   6.138  19.767  0.00  0.00    +0.000 C 
BRANCH  24  25
ATOM     25  C   UNL     1       3.139   4.990  19.244  0.00  0.00    +0.000 C 
BRANCH  25  26
ATOM     26  N   UNL     1       3.019   4.915  17.797  0.00  0.00    +0.000 NA
ATOM     27  H   UNL     1       3.222   5.824  17.386  0.00  0.00    +0.000 HD
BRANCH  26  28
ATOM     28  C   UNL     1       3.965   3.944  17.283  0.00  0.00    +0.000 C 
BRANCH  28  29
ATOM     29  C   UNL     1       4.965   4.599  16.352  0.00  0.00    +0.000 C 
BRANCH  29  30
ATOM     30  C   UNL     1       5.938   5.423  17.124  0.00  0.00    +0.000 A 
ATOM     31  C   UNL     1       6.071   6.782  16.937  0.00  0.00    +0.000 A 
ATOM     32  C   UNL     1       7.158   7.434  17.467  0.00  0.00    +0.000 A 
ATOM     33  C   UNL     1       7.940   6.848  18.426  0.00  0.00    +0.000 A 
ATOM     34  C   UNL     1       7.770   5.514  18.668  0.00  0.00    +0.000 A 
ATOM     35  C   UNL     1       6.769   4.810  18.033  0.00  0.00    +0.000 A 
ENDBRANCH  29  30
ENDBRANCH  28  29
ENDBRANCH  26  28
ENDBRANCH  25  26
ENDBRANCH  24  25
ENDBRANCH  23  24
ENDBRANCH  22  23
ENDBRANCH  21  22
ENDBRANCH   2  21
TORSDOF 12
ENDMDL
MODEL 7
REMARK VINA RESULT:      -7.2      2.706      4.192
REMARK  Name = 
REMARK  13 active torsions:
REMARK  status: ('A' for Active; 'I' for Inactive)
REMARK    1  A    between atoms: C_1  and  S_2
REMARK    2  A    between atoms: S_2  and  C_3
REMARK    3  A    between atoms: C_6  and  C_7
REMARK    4  A    between atoms: C_7  and  C_23
REMARK    5  A    between atoms: N_8  and  O_9
REMARK    6  A    between atoms: O_9  and  C_10
REMARK    7  A    between atoms: C_10  and  C_11
REMARK    8  A    between atoms: C_11  and  C_12
REMARK    9  A    between atoms: C_12  and  C_13
REMARK   10  A    between atoms: C_13  and  N_14
REMARK   11  A    between atoms: N_14  and  C_15
REMARK   12  A    between atoms: C_15  and  C_16
REMARK   13  A    between atoms: C_16  and  C_17
REMARK                            x       y       z     vdW  Elec       q    Type
REMARK                         _______ _______ _______ _____ _____    ______ ____
ROOT
ATOM      1  C   UNL     1       0.140  11.123  18.705  0.00  0.00    +0.000 C 
ATOM      2  N   UNL     1       0.353   9.860  18.378  0.00  0.00    +0.000 NA
ENDROOT
BRANCH   1   3
ATOM      3  C   UNL     1      -1.295  11.592  18.773  0.00  0.00    +0.000 A 
ATOM      4  C   UNL     1      -1.752  12.268  19.908  0.00  0.00    +0.000 A 
ATOM      5  C   UNL     1      -3.121  12.437  20.078  0.00  0.00    +0.000 A 
ATOM      6  C   UNL     1      -3.997  12.238  19.071  0.00  0.00    +0.000 A 
ATOM      7  C   UNL     1      -3.535  11.624  17.998  0.00  0.00    +0.000 A 
ATOM      8  C   UNL     1      -4.453  11.260  17.127  0.00  0.00    +0.000 A 
ATOM      9  C   UNL     1      -3.956  10.723  15.955  0.00  0.00    +0.000 A 
ATOM     10  C   UNL     1      -3.524  10.219  14.832  0.00  0.00    +0.000 A 
ATOM     11  C   UNL     1      -2.287  10.679  16.152  0.00  0.00    +0.000 A 
ATOM     12  C   UNL     1      -2.253  11.286  17.692  0.00  0.00    +0.000 A 
ENDBRANCH   1   3
BRANCH   1  16
ATOM     13  C   UNL     1       3.007  14.175  19.769  0.00  0.00    +0.000 A 
ATOM     14  C   UNL     1       2.359  13.438  20.717  0.00  0.00    +0.000 A 
ATOM     15  C   UNL     1       1.607  12.355  20.314  0.00  0.00    +0.000 A 
ATOM     16  C   UNL     1       1.200  12.133  19.020  0.00  0.00    +0.000 A 
ATOM     17  C   UNL     1       1.803  12.925  18.077  0.00  0.00    +0.000 A 
ATOM     18  C   UNL     1       2.689  13.929  18.443  0.00  0.00    +0.000 A 
BRANCH  13  20
ATOM     19  C   UNL     1       3.482  17.004  19.803  0.00  0.00    +0.000 C 
ATOM     20  S   UNL     1       4.256  15.387  20.098  0.00  0.00    +0.000 S 
ENDBRANCH  13  20
ENDBRANCH   1  16
BRANCH   2  21
ATOM     21  O   UNL     1       1.709   9.494  18.338  0.00  0.00    +0.000 OA
BRANCH  21  22
ATOM     22  C   UNL     1       2.107   8.387  19.111  0.00  0.00    +0.000 C 
BRANCH  22  23
ATOM     23  C   UNL     1       2.498   7.239  18.175  0.00  0.00    +0.000 C 
BRANCH  23  24
ATOM     24  C   UNL     1       2.255   5.898  18.843  0.00  0.00    +0.000 C 
BRANCH  24  25
ATOM     25  C   UNL     1       2.564   4.758  17.899  0.00  0.00    +0.000 C 
BRANCH  25  26
ATOM     26  N   UNL     1       3.739   4.039  18.364  0.00  0.00    +0.000 NA
ATOM     27  H   UNL     1       3.468   3.345  19.058  0.00  0.00    +0.000 HD
BRANCH  26  28
ATOM     28  C   UNL     1       4.369   3.365  17.245  0.00  0.00    +0.000 C 
BRANCH  28  29
ATOM     29  C   UNL     1       4.929   4.365  16.254  0.00  0.00    +0.000 C 
BRANCH  29  30
ATOM     30  C   UNL     1       5.988   5.198  16.892  0.00  0.00    +0.000 A 
ATOM     31  C   UNL     1       6.983   4.657  17.677  0.00  0.00    +0.000 A 
ATOM     32  C   UNL     1       7.756   5.486  18.455  0.00  0.00    +0.000 A 
ATOM     33  C   UNL     1       7.780   6.839  18.244  0.00  0.00    +0.000 A 
ATOM     34  C   UNL     1       6.839   7.378  17.414  0.00  0.00    +0.000 A 
ATOM     35  C   UNL     1       5.958   6.564  16.733  0.00  0.00    +0.000 A 
ENDBRANCH  29  30
ENDBRANCH  28  29
ENDBRANCH  26  28
ENDBRANCH  25  26
ENDBRANCH  24  25
ENDBRANCH  23  24
ENDBRANCH  22  23
ENDBRANCH  21  22
ENDBRANCH   2  21
TORSDOF 12
ENDMDL
MODEL 8
REMARK VINA RESULT:      -7.2      2.044      3.458
REMARK  Name = 
REMARK  13 active torsions:
REMARK  status: ('A' for Active; 'I' for Inactive)
REMARK    1  A    between atoms: C_1  and  S_2
REMARK    2  A    between atoms: S_2  and  C_3
REMARK    3  A    between atoms: C_6  and  C_7
REMARK    4  A    between atoms: C_7  and  C_23
REMARK    5  A    between atoms: N_8  and  O_9
REMARK    6  A    between atoms: O_9  and  C_10
REMARK    7  A    between atoms: C_10  and  C_11
REMARK    8  A    between atoms: C_11  and  C_12
REMARK    9  A    between atoms: C_12  and  C_13
REMARK   10  A    between atoms: C_13  and  N_14
REMARK   11  A    between atoms: N_14  and  C_15
REMARK   12  A    between atoms: C_15  and  C_16
REMARK   13  A    between atoms: C_16  and  C_17
REMARK                            x       y       z     vdW  Elec       q    Type
REMARK                         _______ _______ _______ _____ _____    ______ ____
ROOT
ATOM      1  C   UNL     1      -0.037  11.147  19.023  0.00  0.00    +0.000 C 
ATOM      2  N   UNL     1       0.138   9.845  18.868  0.00  0.00    +0.000 NA
ENDROOT
BRANCH   1   3
ATOM      3  C   UNL     1      -1.459  11.660  19.044  0.00  0.00    +0.000 A 
ATOM      4  C   UNL     1      -1.929  12.358  20.160  0.00  0.00    +0.000 A 
ATOM      5  C   UNL     1      -3.297  12.571  20.286  0.00  0.00    +0.000 A 
ATOM      6  C   UNL     1      -4.147  12.392  19.254  0.00  0.00    +0.000 A 
ATOM      7  C   UNL     1      -3.672  11.756  18.199  0.00  0.00    +0.000 A 
ATOM      8  C   UNL     1      -4.573  11.413  17.303  0.00  0.00    +0.000 A 
ATOM      9  C   UNL     1      -4.057  10.853  16.150  0.00  0.00    +0.000 A 
ATOM     10  C   UNL     1      -3.607  10.328  15.045  0.00  0.00    +0.000 A 
ATOM     11  C   UNL     1      -2.397  10.759  16.399  0.00  0.00    +0.000 A 
ATOM     12  C   UNL     1      -2.392  11.376  17.935  0.00  0.00    +0.000 A 
ENDBRANCH   1   3
BRANCH   1  16
ATOM     13  C   UNL     1       2.938  14.212  19.667  0.00  0.00    +0.000 A 
ATOM     14  C   UNL     1       2.412  13.495  20.701  0.00  0.00    +0.000 A 
ATOM     15  C   UNL     1       1.616  12.406  20.415  0.00  0.00    +0.000 A 
ATOM     16  C   UNL     1       1.053  12.160  19.186  0.00  0.00    +0.000 A 
ATOM     17  C   UNL     1       1.536  12.932  18.160  0.00  0.00    +0.000 A 
ATOM     18  C   UNL     1       2.459  13.942  18.395  0.00  0.00    +0.000 A 
BRANCH  13  20
ATOM     19  C   UNL     1       5.086  15.061  21.369  0.00  0.00    +0.000 C 
ATOM     20  S   UNL     1       4.218  15.428  19.816  0.00  0.00    +0.000 S 
ENDBRANCH  13  20
ENDBRANCH   1  16
BRANCH   2  21
ATOM     21  O   UNL     1       1.483   9.440  18.863  0.00  0.00    +0.000 OA
BRANCH  21  22
ATOM     22  C   UNL     1       1.995   8.901  17.668  0.00  0.00    +0.000 C 
BRANCH  22  23
ATOM     23  C   UNL     1       3.240   8.068  17.988  0.00  0.00    +0.000 C 
BRANCH  23  24
ATOM     24  C   UNL     1       2.876   6.605  18.157  0.00  0.00    +0.000 C 
BRANCH  24  25
ATOM     25  C   UNL     1       3.838   5.716  17.401  0.00  0.00    +0.000 C 
BRANCH  25  26
ATOM     26  N   UNL     1       4.961   5.368  18.256  0.00  0.00    +0.000 NA
ATOM     27  H   UNL     1       4.779   5.677  19.209  0.00  0.00    +0.000 HD
BRANCH  26  28
ATOM     28  C   UNL     1       5.143   3.929  18.254  0.00  0.00    +0.000 C 
BRANCH  28  29
ATOM     29  C   UNL     1       4.736   3.328  19.585  0.00  0.00    +0.000 C 
BRANCH  29  30
ATOM     30  C   UNL     1       3.262   3.119  19.637  0.00  0.00    +0.000 A 
ATOM     31  C   UNL     1       2.583   2.387  18.687  0.00  0.00    +0.000 A 
ATOM     32  C   UNL     1       1.212   2.458  18.630  0.00  0.00    +0.000 A 
ATOM     33  C   UNL     1       0.485   2.977  19.667  0.00  0.00    +0.000 A 
ATOM     34  C   UNL     1       1.154   3.648  20.651  0.00  0.00    +0.000 A 
ATOM     35  C   UNL     1       2.532   3.707  20.644  0.00  0.00    +0.000 A 
ENDBRANCH  29  30
ENDBRANCH  28  29
ENDBRANCH  26  28
ENDBRANCH  25  26
ENDBRANCH  24  25
ENDBRANCH  23  24
ENDBRANCH  22  23
ENDBRANCH  21  22
ENDBRANCH   2  21
TORSDOF 12
ENDMDL
MODEL 9
REMARK VINA RESULT:      -7.2      4.608      7.501
REMARK  Name = 
REMARK  13 active torsions:
REMARK  status: ('A' for Active; 'I' for Inactive)
REMARK    1  A    between atoms: C_1  and  S_2
REMARK    2  A    between atoms: S_2  and  C_3
REMARK    3  A    between atoms: C_6  and  C_7
REMARK    4  A    between atoms: C_7  and  C_23
REMARK    5  A    between atoms: N_8  and  O_9
REMARK    6  A    between atoms: O_9  and  C_10
REMARK    7  A    between atoms: C_10  and  C_11
REMARK    8  A    between atoms: C_11  and  C_12
REMARK    9  A    between atoms: C_12  and  C_13
REMARK   10  A    between atoms: C_13  and  N_14
REMARK   11  A    between atoms: N_14  and  C_15
REMARK   12  A    between atoms: C_15  and  C_16
REMARK   13  A    between atoms: C_16  and  C_17
REMARK                            x       y       z     vdW  Elec       q    Type
REMARK                         _______ _______ _______ _____ _____    ______ ____
ROOT
ATOM      1  C   UNL     1      -0.006  11.003  18.650  0.00  0.00    +0.000 C 
ATOM      2  N   UNL     1       0.511  12.216  18.753  0.00  0.00    +0.000 NA
ENDROOT
BRANCH   1   3
ATOM      3  C   UNL     1      -1.475  10.900  18.314  0.00  0.00    +0.000 A 
ATOM      4  C   UNL     1      -1.883  10.151  17.207  0.00  0.00    +0.000 A 
ATOM      5  C   UNL     1      -3.188  10.295  16.747  0.00  0.00    +0.000 A 
ATOM      6  C   UNL     1      -4.144  10.895  17.486  0.00  0.00    +0.000 A 
ATOM      7  C   UNL     1      -3.737  11.572  18.544  0.00  0.00    +0.000 A 
ATOM      8  C   UNL     1      -4.661  12.313  19.119  0.00  0.00    +0.000 A 
ATOM      9  C   UNL     1      -4.261  12.927  20.291  0.00  0.00    +0.000 A 
ATOM     10  C   UNL     1      -3.923  13.516  21.404  0.00  0.00    +0.000 A 
ATOM     11  C   UNL     1      -2.642  12.518  20.483  0.00  0.00    +0.000 A 
ATOM     12  C   UNL     1      -2.493  11.635  19.091  0.00  0.00    +0.000 A 
ENDBRANCH   1   3
BRANCH   1  16
ATOM     13  C   UNL     1       2.306   7.426  19.372  0.00  0.00    +0.000 A 
ATOM     14  C   UNL     1       1.630   8.058  20.375  0.00  0.00    +0.000 A 
ATOM     15  C   UNL     1       0.760   9.075  20.048  0.00  0.00    +0.000 A 
ATOM     16  C   UNL     1       0.741   9.719  18.834  0.00  0.00    +0.000 A 
ATOM     17  C   UNL     1       1.479   9.118  17.846  0.00  0.00    +0.000 A 
ATOM     18  C   UNL     1       2.250   7.994  18.109  0.00  0.00    +0.000 A 
BRANCH  13  20
ATOM     19  C   UNL     1       2.256   4.882  20.698  0.00  0.00    +0.000 C 
ATOM     20  S   UNL     1       3.212   5.914  19.547  0.00  0.00    +0.000 S 
ENDBRANCH  13  20
ENDBRANCH   1  16
BRANCH   2  21
ATOM     21  O   UNL     1       1.881  12.236  19.063  0.00  0.00    +0.000 OA
BRANCH  21  22
ATOM     22  C   UNL     1       2.746  12.867  18.150  0.00  0.00    +0.000 C 
BRANCH  22  23
ATOM     23  C   UNL     1       2.626  14.385  18.315  0.00  0.00    +0.000 C 
BRANCH  23  24
ATOM     24  C   UNL     1       3.864  15.082  17.780  0.00  0.00    +0.000 C 
BRANCH  24  25
ATOM     25  C   UNL     1       4.916  15.221  18.857  0.00  0.00    +0.000 C 
BRANCH  25  26
ATOM     26  N   UNL     1       6.168  15.665  18.266  0.00  0.00    +0.000 NA
ATOM     27  H   UNL     1       6.389  16.605  18.588  0.00  0.00    +0.000 HD
BRANCH  26  28
ATOM     28  C   UNL     1       7.236  14.768  18.665  0.00  0.00    +0.000 C 
BRANCH  28  29
ATOM     29  C   UNL     1       7.456  13.689  17.624  0.00  0.00    +0.000 C 
BRANCH  29  30
ATOM     30  C   UNL     1       8.805  13.077  17.781  0.00  0.00    +0.000 A 
ATOM     31  C   UNL     1       9.968  13.804  17.651  0.00  0.00    +0.000 A 
ATOM     32  C   UNL     1      11.168  13.144  17.531  0.00  0.00    +0.000 A 
ATOM     33  C   UNL     1      11.283  11.817  17.846  0.00  0.00    +0.000 A 
ATOM     34  C   UNL     1      10.137  11.101  18.045  0.00  0.00    +0.000 A 
ATOM     35  C   UNL     1       8.909  11.727  18.025  0.00  0.00    +0.000 A 
ENDBRANCH  29  30
ENDBRANCH  28  29
ENDBRANCH  26  28
ENDBRANCH  25  26
ENDBRANCH  24  25
ENDBRANCH  23  24
ENDBRANCH  22  23
ENDBRANCH  21  22
ENDBRANCH   2  21
TORSDOF 12
ENDMDL
