MODEL 1
REMARK VINA RESULT:      -8.6      0.000      0.000
REMARK  Name = 
REMARK  11 active torsions:
REMARK  status: ('A' for Active; 'I' for Inactive)
REMARK    1  A    between atoms: C_1  and  O_2
REMARK    2  A    between atoms: O_2  and  C_3
REMARK    3  A    between atoms: C_6  and  C_7
REMARK    4  A    between atoms: C_7  and  C_8
REMARK    5  A    between atoms: N_10  and  N_11
REMARK    6  A    between atoms: C_12  and  C_14
REMARK    7  A    between atoms: C_14  and  O_15
REMARK    8  A    between atoms: O_15  and  C_16
REMARK    9  A    between atoms: C_19  and  C_20
REMARK   10  A    between atoms: C_24  and  S_25
REMARK   11  A    between atoms: S_25  and  N_28
REMARK                            x       y       z     vdW  Elec       q    Type
REMARK                         _______ _______ _______ _____ _____    ______ ____
ROOT
ATOM      1  C   UNL     1       6.930   4.480  18.386  0.00  0.00    +0.000 C 
ENDROOT
BRANCH   1   5
ATOM      2  C   UNL     1       3.033   6.080  17.796  0.00  0.00    +0.000 A 
ATOM      3  C   UNL     1       4.160   6.892  17.592  0.00  0.00    +0.000 A 
ATOM      4  C   UNL     1       5.441   6.349  17.618  0.00  0.00    +0.000 A 
ATOM      5  C   UNL     1       5.596   4.981  17.875  0.00  0.00    +0.000 A 
ATOM      6  C   UNL     1       4.466   4.158  17.874  0.00  0.00    +0.000 A 
ATOM      7  C   UNL     1       3.167   4.694  17.797  0.00  0.00    +0.000 A 
BRANCH   7   8
ATOM      8  S   UNL     1       1.789   3.556  17.799  0.00  0.00    +0.000 S 
ATOM      9  O   UNL     1       0.689   4.266  17.170  0.00  0.00    +0.000 OA
ATOM     10  O   UNL     1       2.212   2.294  17.240  0.00  0.00    +0.000 OA
BRANCH   8  11
ATOM     11  N   UNL     1       1.312   3.316  19.400  0.00  0.00    +0.000 NA
ATOM     12  C   UNL     1       0.948   4.480  20.234  0.00  0.00    +0.000 C 
ATOM     13  C   UNL     1       2.148   4.865  21.085  0.00  0.00    +0.000 C 
ATOM     14  O   UNL     1       2.423   3.806  22.012  0.00  0.00    +0.000 OA
ATOM     15  C   UNL     1       2.755   2.581  21.337  0.00  0.00    +0.000 C 
ATOM     16  C   UNL     1       1.757   2.170  20.235  0.00  0.00    +0.000 C 
ENDBRANCH   8  11
ENDBRANCH   7   8
BRANCH   2  18
ATOM     17  C   UNL     1       2.035   8.175  17.907  0.00  0.00    +0.000 C 
ATOM     18  O   UNL     1       1.864   6.755  18.015  0.00  0.00    +0.000 OA
ENDBRANCH   2  18
ENDBRANCH   1   5
BRANCH   1  19
ATOM     19  C   UNL     1       7.609   5.614  19.146  0.00  0.00    +0.000 C 
ATOM     20  O   UNL     1       7.824   5.562  20.356  0.00  0.00    +0.000 OA
ATOM     21  N   UNL     1       8.061   6.629  18.316  0.00  0.00    +0.000 N 
ATOM     22  H   UNL     1       7.704   6.731  17.372  0.00  0.00    +0.000 HD
BRANCH  21  23
ATOM     23  N   UNL     1       8.643   7.760  18.889  0.00  0.00    +0.000 N 
ATOM     24  C   UNL     1       8.423   9.006  18.317  0.00  0.00    +0.000 C 
ATOM     25  O   UNL     1       7.858   9.180  17.239  0.00  0.00    +0.000 OA
ATOM     26  H   UNL     1       9.070   7.656  19.804  0.00  0.00    +0.000 HD
BRANCH  24  27
ATOM     27  C   UNL     1       9.049  10.138  19.101  0.00  0.00    +0.000 C 
BRANCH  27  28
ATOM     28  O   UNL     1       9.728  10.870  18.089  0.00  0.00    +0.000 OA
BRANCH  28  29
ATOM     29  C   UNL     1      10.408  11.981  18.481  0.00  0.00    +0.000 A 
ATOM     30  C   UNL     1      10.234  13.082  17.643  0.00  0.00    +0.000 A 
ATOM     31  C   UNL     1      10.860  14.290  17.933  0.00  0.00    +0.000 A 
ATOM     32  C   UNL     1      11.658  14.409  19.075  0.00  0.00    +0.000 A 
ATOM     33  C   UNL     1      12.333  15.704  19.404  0.00  0.00    +0.000 C 
ATOM     34  C   UNL     1      11.808  13.308  19.927  0.00  0.00    +0.000 A 
ATOM     35  C   UNL     1      11.186  12.094  19.631  0.00  0.00    +0.000 A 
ENDBRANCH  28  29
ENDBRANCH  27  28
ENDBRANCH  24  27
ENDBRANCH  21  23
ENDBRANCH   1  19
TORSDOF 9
ENDMDL
MODEL 2
REMARK VINA RESULT:      -8.5      2.586      3.522
REMARK  Name = 
REMARK  11 active torsions:
REMARK  status: ('A' for Active; 'I' for Inactive)
REMARK    1  A    between atoms: C_1  and  O_2
REMARK    2  A    between atoms: O_2  and  C_3
REMARK    3  A    between atoms: C_6  and  C_7
REMARK    4  A    between atoms: C_7  and  C_8
REMARK    5  A    between atoms: N_10  and  N_11
REMARK    6  A    between atoms: C_12  and  C_14
REMARK    7  A    between atoms: C_14  and  O_15
REMARK    8  A    between atoms: O_15  and  C_16
REMARK    9  A    between atoms: C_19  and  C_20
REMARK   10  A    between atoms: C_24  and  S_25
REMARK   11  A    between atoms: S_25  and  N_28
REMARK                            x       y       z     vdW  Elec       q    Type
REMARK                         _______ _______ _______ _____ _____    ______ ____
ROOT
ATOM      1  C   UNL     1       7.897   6.259  18.870  0.00  0.00    +0.000 C 
ENDROOT
BRANCH   1   5
ATOM      2  C   UNL     1       5.634   4.040  16.033  0.00  0.00    +0.000 A 
ATOM      3  C   UNL     1       6.976   4.351  15.766  0.00  0.00    +0.000 A 
ATOM      4  C   UNL     1       7.779   4.929  16.744  0.00  0.00    +0.000 A 
ATOM      5  C   UNL     1       7.225   5.221  17.997  0.00  0.00    +0.000 A 
ATOM      6  C   UNL     1       5.957   4.724  18.310  0.00  0.00    +0.000 A 
ATOM      7  C   UNL     1       5.156   4.092  17.340  0.00  0.00    +0.000 A 
BRANCH   7   8
ATOM      8  S   UNL     1       3.551   3.489  17.842  0.00  0.00    +0.000 S 
ATOM      9  O   UNL     1       2.581   4.346  17.183  0.00  0.00    +0.000 OA
ATOM     10  O   UNL     1       3.484   2.065  17.617  0.00  0.00    +0.000 OA
BRANCH   8  11
ATOM     11  N   UNL     1       3.370   3.793  19.493  0.00  0.00    +0.000 NA
ATOM     12  C   UNL     1       3.272   2.660  20.436  0.00  0.00    +0.000 C 
ATOM     13  C   UNL     1       1.805   2.407  20.744  0.00  0.00    +0.000 C 
ATOM     14  O   UNL     1       1.273   3.536  21.451  0.00  0.00    +0.000 OA
ATOM     15  C   UNL     1       1.342   4.737  20.664  0.00  0.00    +0.000 C 
ATOM     16  C   UNL     1       2.728   5.014  20.044  0.00  0.00    +0.000 C 
ENDBRANCH   8  11
ENDBRANCH   7   8
BRANCH   2  18
ATOM     17  C   UNL     1       5.623   3.876  13.716  0.00  0.00    +0.000 C 
ATOM     18  O   UNL     1       4.880   3.731  14.934  0.00  0.00    +0.000 OA
ENDBRANCH   2  18
ENDBRANCH   1   5
BRANCH   1  19
ATOM     19  C   UNL     1       7.898   7.587  18.121  0.00  0.00    +0.000 C 
ATOM     20  O   UNL     1       7.219   7.777  17.112  0.00  0.00    +0.000 OA
ATOM     21  N   UNL     1       8.631   8.573  18.764  0.00  0.00    +0.000 N 
ATOM     22  H   UNL     1       9.318   8.337  19.471  0.00  0.00    +0.000 HD
BRANCH  21  23
ATOM     23  N   UNL     1       8.768   9.820  18.152  0.00  0.00    +0.000 N 
ATOM     24  C   UNL     1       9.454  10.832  18.810  0.00  0.00    +0.000 C 
ATOM     25  O   UNL     1       9.836  10.760  19.977  0.00  0.00    +0.000 OA
ATOM     26  H   UNL     1       8.510   9.893  17.174  0.00  0.00    +0.000 HD
BRANCH  24  27
ATOM     27  C   UNL     1       9.591  12.091  17.983  0.00  0.00    +0.000 C 
BRANCH  27  28
ATOM     28  O   UNL     1       9.525  13.112  18.970  0.00  0.00    +0.000 OA
BRANCH  28  29
ATOM     29  C   UNL     1       8.384  13.850  19.021  0.00  0.00    +0.000 A 
ATOM     30  C   UNL     1       7.705  13.934  17.806  0.00  0.00    +0.000 A 
ATOM     31  C   UNL     1       6.512  14.645  17.716  0.00  0.00    +0.000 A 
ATOM     32  C   UNL     1       5.983  15.270  18.849  0.00  0.00    +0.000 A 
ATOM     33  C   UNL     1       4.698  16.034  18.771  0.00  0.00    +0.000 C 
ATOM     34  C   UNL     1       6.656  15.161  20.073  0.00  0.00    +0.000 A 
ATOM     35  C   UNL     1       7.856  14.453  20.160  0.00  0.00    +0.000 A 
ENDBRANCH  28  29
ENDBRANCH  27  28
ENDBRANCH  24  27
ENDBRANCH  21  23
ENDBRANCH   1  19
TORSDOF 9
ENDMDL
MODEL 3
REMARK VINA RESULT:      -8.5      4.057     10.832
REMARK  Name = 
REMARK  11 active torsions:
REMARK  status: ('A' for Active; 'I' for Inactive)
REMARK    1  A    between atoms: C_1  and  O_2
REMARK    2  A    between atoms: O_2  and  C_3
REMARK    3  A    between atoms: C_6  and  C_7
REMARK    4  A    between atoms: C_7  and  C_8
REMARK    5  A    between atoms: N_10  and  N_11
REMARK    6  A    between atoms: C_12  and  C_14
REMARK    7  A    between atoms: C_14  and  O_15
REMARK    8  A    between atoms: O_15  and  C_16
REMARK    9  A    between atoms: C_19  and  C_20
REMARK   10  A    between atoms: C_24  and  S_25
REMARK   11  A    between atoms: S_25  and  N_28
REMARK                            x       y       z     vdW  Elec       q    Type
REMARK                         _______ _______ _______ _____ _____    ______ ____
ROOT
ATOM      1  C   UNL     1       9.264  10.185  19.340  0.00  0.00    +0.000 C 
ENDROOT
BRANCH   1   5
ATOM      2  C   UNL     1      10.273  14.012  17.784  0.00  0.00    +0.000 A 
ATOM      3  C   UNL     1      10.915  12.866  17.290  0.00  0.00    +0.000 A 
ATOM      4  C   UNL     1      10.487  11.596  17.663  0.00  0.00    +0.000 A 
ATOM      5  C   UNL     1       9.419  11.473  18.560  0.00  0.00    +0.000 A 
ATOM      6  C   UNL     1       8.668  12.607  18.881  0.00  0.00    +0.000 A 
ATOM      7  C   UNL     1       9.065  13.892  18.465  0.00  0.00    +0.000 A 
BRANCH   7   8
ATOM      8  S   UNL     1       8.033  15.277  18.924  0.00  0.00    +0.000 S 
ATOM      9  O   UNL     1       8.939  16.295  19.429  0.00  0.00    +0.000 OA
ATOM     10  O   UNL     1       7.161  15.608  17.823  0.00  0.00    +0.000 OA
BRANCH   8  11
ATOM     11  N   UNL     1       7.095  14.815  20.249  0.00  0.00    +0.000 NA
ATOM     12  C   UNL     1       5.655  15.145  20.272  0.00  0.00    +0.000 C 
ATOM     13  C   UNL     1       5.457  16.407  21.098  0.00  0.00    +0.000 C 
ATOM     14  O   UNL     1       5.806  16.132  22.462  0.00  0.00    +0.000 OA
ATOM     15  C   UNL     1       7.185  15.750  22.592  0.00  0.00    +0.000 C 
ATOM     16  C   UNL     1       7.632  14.636  21.622  0.00  0.00    +0.000 C 
ENDBRANCH   8  11
ENDBRANCH   7   8
BRANCH   2  18
ATOM     17  C   UNL     1      12.328  14.976  17.289  0.00  0.00    +0.000 C 
ATOM     18  O   UNL     1      10.937  15.189  17.568  0.00  0.00    +0.000 OA
ENDBRANCH   2  18
ENDBRANCH   1   5
BRANCH   1  19
ATOM     19  C   UNL     1       8.474   9.200  18.486  0.00  0.00    +0.000 C 
ATOM     20  O   UNL     1       7.855   9.545  17.480  0.00  0.00    +0.000 OA
ATOM     21  N   UNL     1       8.635   7.882  18.887  0.00  0.00    +0.000 N 
ATOM     22  H   UNL     1       8.985   7.655  19.811  0.00  0.00    +0.000 HD
BRANCH  21  23
ATOM     23  N   UNL     1       7.915   6.883  18.231  0.00  0.00    +0.000 N 
ATOM     24  C   UNL     1       7.428   5.803  18.955  0.00  0.00    +0.000 C 
ATOM     25  O   UNL     1       7.709   5.579  20.131  0.00  0.00    +0.000 OA
ATOM     26  H   UNL     1       7.624   7.065  17.275  0.00  0.00    +0.000 HD
BRANCH  24  27
ATOM     27  C   UNL     1       6.598   4.854  18.120  0.00  0.00    +0.000 C 
BRANCH  27  28
ATOM     28  O   UNL     1       6.075   3.965  19.098  0.00  0.00    +0.000 OA
BRANCH  28  29
ATOM     29  C   UNL     1       4.722   3.842  19.160  0.00  0.00    +0.000 A 
ATOM     30  C   UNL     1       4.283   2.699  19.827  0.00  0.00    +0.000 A 
ATOM     31  C   UNL     1       2.921   2.453  19.977  0.00  0.00    +0.000 A 
ATOM     32  C   UNL     1       1.986   3.360  19.471  0.00  0.00    +0.000 A 
ATOM     33  C   UNL     1       0.518   3.114  19.630  0.00  0.00    +0.000 C 
ATOM     34  C   UNL     1       2.433   4.520  18.826  0.00  0.00    +0.000 A 
ATOM     35  C   UNL     1       3.799   4.762  18.669  0.00  0.00    +0.000 A 
ENDBRANCH  28  29
ENDBRANCH  27  28
ENDBRANCH  24  27
ENDBRANCH  21  23
ENDBRANCH   1  19
TORSDOF 9
ENDMDL
MODEL 4
REMARK VINA RESULT:      -8.4      3.995     11.170
REMARK  Name = 
REMARK  11 active torsions:
REMARK  status: ('A' for Active; 'I' for Inactive)
REMARK    1  A    between atoms: C_1  and  O_2
REMARK    2  A    between atoms: O_2  and  C_3
REMARK    3  A    between atoms: C_6  and  C_7
REMARK    4  A    between atoms: C_7  and  C_8
REMARK    5  A    between atoms: N_10  and  N_11
REMARK    6  A    between atoms: C_12  and  C_14
REMARK    7  A    between atoms: C_14  and  O_15
REMARK    8  A    between atoms: O_15  and  C_16
REMARK    9  A    between atoms: C_19  and  C_20
REMARK   10  A    between atoms: C_24  and  S_25
REMARK   11  A    between atoms: S_25  and  N_28
REMARK                            x       y       z     vdW  Elec       q    Type
REMARK                         _______ _______ _______ _____ _____    ______ ____
ROOT
ATOM      1  C   UNL     1       9.352  10.165  19.438  0.00  0.00    +0.000 C 
ENDROOT
BRANCH   1   5
ATOM      2  C   UNL     1      10.726  13.998  18.208  0.00  0.00    +0.000 A 
ATOM      3  C   UNL     1      11.593  12.896  18.158  0.00  0.00    +0.000 A 
ATOM      4  C   UNL     1      11.121  11.609  18.396  0.00  0.00    +0.000 A 
ATOM      5  C   UNL     1       9.769  11.426  18.713  0.00  0.00    +0.000 A 
ATOM      6  C   UNL     1       8.887  12.499  18.562  0.00  0.00    +0.000 A 
ATOM      7  C   UNL     1       9.350  13.796  18.270  0.00  0.00    +0.000 A 
BRANCH   7   8
ATOM      8  S   UNL     1       8.139  15.098  18.093  0.00  0.00    +0.000 S 
ATOM      9  O   UNL     1       8.801  16.156  17.350  0.00  0.00    +0.000 OA
ATOM     10  O   UNL     1       6.914  14.543  17.568  0.00  0.00    +0.000 OA
BRANCH   8  11
ATOM     11  N   UNL     1       7.838  15.745  19.623  0.00  0.00    +0.000 NA
ATOM     12  C   UNL     1       6.448  15.846  20.110  0.00  0.00    +0.000 C 
ATOM     13  C   UNL     1       5.947  17.262  19.869  0.00  0.00    +0.000 C 
ATOM     14  O   UNL     1       6.702  18.170  20.683  0.00  0.00    +0.000 OA
ATOM     15  C   UNL     1       8.099  18.149  20.349  0.00  0.00    +0.000 C 
ATOM     16  C   UNL     1       8.720  16.738  20.290  0.00  0.00    +0.000 C 
ENDBRANCH   8  11
ENDBRANCH   7   8
BRANCH   2  18
ATOM     17  C   UNL     1      12.333  15.335  17.196  0.00  0.00    +0.000 C 
ATOM     18  O   UNL     1      11.341  15.220  18.225  0.00  0.00    +0.000 OA
ENDBRANCH   2  18
ENDBRANCH   1   5
BRANCH   1  19
ATOM     19  C   UNL     1       8.543   9.304  18.475  0.00  0.00    +0.000 C 
ATOM     20  O   UNL     1       8.042   9.756  17.446  0.00  0.00    +0.000 OA
ATOM     21  N   UNL     1       8.546   7.959  18.814  0.00  0.00    +0.000 N 
ATOM     22  H   UNL     1       8.797   7.656  19.749  0.00  0.00    +0.000 HD
BRANCH  21  23
ATOM     23  N   UNL     1       7.788   7.069  18.053  0.00  0.00    +0.000 N 
ATOM     24  C   UNL     1       7.591   5.773  18.512  0.00  0.00    +0.000 C 
ATOM     25  O   UNL     1       8.162   5.293  19.489  0.00  0.00    +0.000 OA
ATOM     26  H   UNL     1       7.264   7.448  17.271  0.00  0.00    +0.000 HD
BRANCH  24  27
ATOM     27  C   UNL     1       6.680   4.959  17.618  0.00  0.00    +0.000 C 
BRANCH  27  28
ATOM     28  O   UNL     1       5.416   5.572  17.835  0.00  0.00    +0.000 OA
BRANCH  28  29
ATOM     29  C   UNL     1       4.351   4.744  18.008  0.00  0.00    +0.000 A 
ATOM     30  C   UNL     1       3.309   5.302  18.749  0.00  0.00    +0.000 A 
ATOM     31  C   UNL     1       2.150   4.571  18.991  0.00  0.00    +0.000 A 
ATOM     32  C   UNL     1       2.020   3.276  18.480  0.00  0.00    +0.000 A 
ATOM     33  C   UNL     1       0.776   2.479  18.726  0.00  0.00    +0.000 C 
ATOM     34  C   UNL     1       3.058   2.731  17.715  0.00  0.00    +0.000 A 
ATOM     35  C   UNL     1       4.223   3.462  17.479  0.00  0.00    +0.000 A 
ENDBRANCH  28  29
ENDBRANCH  27  28
ENDBRANCH  24  27
ENDBRANCH  21  23
ENDBRANCH   1  19
TORSDOF 9
ENDMDL
MODEL 5
REMARK VINA RESULT:      -8.3      4.119     11.278
REMARK  Name = 
REMARK  11 active torsions:
REMARK  status: ('A' for Active; 'I' for Inactive)
REMARK    1  A    between atoms: C_1  and  O_2
REMARK    2  A    between atoms: O_2  and  C_3
REMARK    3  A    between atoms: C_6  and  C_7
REMARK    4  A    between atoms: C_7  and  C_8
REMARK    5  A    between atoms: N_10  and  N_11
REMARK    6  A    between atoms: C_12  and  C_14
REMARK    7  A    between atoms: C_14  and  O_15
REMARK    8  A    between atoms: O_15  and  C_16
REMARK    9  A    between atoms: C_19  and  C_20
REMARK   10  A    between atoms: C_24  and  S_25
REMARK   11  A    between atoms: S_25  and  N_28
REMARK                            x       y       z     vdW  Elec       q    Type
REMARK                         _______ _______ _______ _____ _____    ______ ____
ROOT
ATOM      1  C   UNL     1       9.244   9.896  19.176  0.00  0.00    +0.000 C 
ENDROOT
BRANCH   1   5
ATOM      2  C   UNL     1      10.631  13.894  18.742  0.00  0.00    +0.000 A 
ATOM      3  C   UNL     1      11.036  12.910  17.827  0.00  0.00    +0.000 A 
ATOM      4  C   UNL     1      10.469  11.640  17.850  0.00  0.00    +0.000 A 
ATOM      5  C   UNL     1       9.501  11.344  18.818  0.00  0.00    +0.000 A 
ATOM      6  C   UNL     1       8.967  12.384  19.584  0.00  0.00    +0.000 A 
ATOM      7  C   UNL     1       9.501  13.685  19.530  0.00  0.00    +0.000 A 
BRANCH   7   8
ATOM      8  S   UNL     1       8.745  14.945  20.547  0.00  0.00    +0.000 S 
ATOM      9  O   UNL     1       7.512  14.363  21.047  0.00  0.00    +0.000 OA
ATOM     10  O   UNL     1       9.715  15.438  21.496  0.00  0.00    +0.000 OA
BRANCH   8  11
ATOM     11  N   UNL     1       8.267  16.213  19.540  0.00  0.00    +0.000 NA
ATOM     12  C   UNL     1       8.443  17.608  19.993  0.00  0.00    +0.000 C 
ATOM     13  C   UNL     1       7.122  18.108  20.558  0.00  0.00    +0.000 C 
ATOM     14  O   UNL     1       6.155  18.171  19.501  0.00  0.00    +0.000 OA
ATOM     15  C   UNL     1       5.910  16.877  18.926  0.00  0.00    +0.000 C 
ATOM     16  C   UNL     1       7.185  16.104  18.528  0.00  0.00    +0.000 C 
ENDBRANCH   8  11
ENDBRANCH   7   8
BRANCH   2  18
ATOM     17  C   UNL     1      12.322  15.077  17.677  0.00  0.00    +0.000 C 
ATOM     18  O   UNL     1      11.434  14.999  18.801  0.00  0.00    +0.000 OA
ENDBRANCH   2  18
ENDBRANCH   1   5
BRANCH   1  19
ATOM     19  C   UNL     1       8.246   9.325  18.175  0.00  0.00    +0.000 C 
ATOM     20  O   UNL     1       7.476  10.036  17.531  0.00  0.00    +0.000 OA
ATOM     21  N   UNL     1       8.390   7.959  17.983  0.00  0.00    +0.000 N 
ATOM     22  H   UNL     1       8.889   7.386  18.655  0.00  0.00    +0.000 HD
BRANCH  21  23
ATOM     23  N   UNL     1       7.496   7.297  17.141  0.00  0.00    +0.000 N 
ATOM     24  C   UNL     1       7.002   6.053  17.512  0.00  0.00    +0.000 C 
ATOM     25  O   UNL     1       7.408   5.409  18.477  0.00  0.00    +0.000 OA
ATOM     26  H   UNL     1       7.105   7.822  16.366  0.00  0.00    +0.000 HD
BRANCH  24  27
ATOM     27  C   UNL     1       5.982   5.506  16.538  0.00  0.00    +0.000 C 
BRANCH  27  28
ATOM     28  O   UNL     1       4.755   5.957  17.098  0.00  0.00    +0.000 OA
BRANCH  28  29
ATOM     29  C   UNL     1       3.857   5.005  17.464  0.00  0.00    +0.000 A 
ATOM     30  C   UNL     1       2.737   5.502  18.130  0.00  0.00    +0.000 A 
ATOM     31  C   UNL     1       1.729   4.639  18.550  0.00  0.00    +0.000 A 
ATOM     32  C   UNL     1       1.830   3.268  18.295  0.00  0.00    +0.000 A 
ATOM     33  C   UNL     1       0.751   2.327  18.734  0.00  0.00    +0.000 C 
ATOM     34  C   UNL     1       2.944   2.778  17.603  0.00  0.00    +0.000 A 
ATOM     35  C   UNL     1       3.958   3.643  17.188  0.00  0.00    +0.000 A 
ENDBRANCH  28  29
ENDBRANCH  27  28
ENDBRANCH  24  27
ENDBRANCH  21  23
ENDBRANCH   1  19
TORSDOF 9
ENDMDL
MODEL 6
REMARK VINA RESULT:      -8.3      1.856      3.050
REMARK  Name = 
REMARK  11 active torsions:
REMARK  status: ('A' for Active; 'I' for Inactive)
REMARK    1  A    between atoms: C_1  and  O_2
REMARK    2  A    between atoms: O_2  and  C_3
REMARK    3  A    between atoms: C_6  and  C_7
REMARK    4  A    between atoms: C_7  and  C_8
REMARK    5  A    between atoms: N_10  and  N_11
REMARK    6  A    between atoms: C_12  and  C_14
REMARK    7  A    between atoms: C_14  and  O_15
REMARK    8  A    between atoms: O_15  and  C_16
REMARK    9  A    between atoms: C_19  and  C_20
REMARK   10  A    between atoms: C_24  and  S_25
REMARK   11  A    between atoms: S_25  and  N_28
REMARK                            x       y       z     vdW  Elec       q    Type
REMARK                         _______ _______ _______ _____ _____    ______ ____
ROOT
ATOM      1  C   UNL     1       7.972   6.304  18.875  0.00  0.00    +0.000 C 
ENDROOT
BRANCH   1   5
ATOM      2  C   UNL     1       5.539   4.250  16.055  0.00  0.00    +0.000 A 
ATOM      3  C   UNL     1       6.935   4.235  15.915  0.00  0.00    +0.000 A 
ATOM      4  C   UNL     1       7.755   4.757  16.911  0.00  0.00    +0.000 A 
ATOM      5  C   UNL     1       7.168   5.323  18.050  0.00  0.00    +0.000 A 
ATOM      6  C   UNL     1       5.798   5.149  18.264  0.00  0.00    +0.000 A 
ATOM      7  C   UNL     1       4.968   4.575  17.283  0.00  0.00    +0.000 A 
BRANCH   7   8
ATOM      8  S   UNL     1       3.230   4.394  17.657  0.00  0.00    +0.000 S 
ATOM      9  O   UNL     1       2.666   5.730  17.573  0.00  0.00    +0.000 OA
ATOM     10  O   UNL     1       2.670   3.351  16.830  0.00  0.00    +0.000 OA
BRANCH   8  11
ATOM     11  N   UNL     1       3.087   3.947  19.278  0.00  0.00    +0.000 NA
ATOM     12  C   UNL     1       3.023   2.515  19.635  0.00  0.00    +0.000 C 
ATOM     13  C   UNL     1       1.566   2.124  19.829  0.00  0.00    +0.000 C 
ATOM     14  O   UNL     1       1.042   2.823  20.966  0.00  0.00    +0.000 OA
ATOM     15  C   UNL     1       1.080   4.247  20.779  0.00  0.00    +0.000 C 
ATOM     16  C   UNL     1       2.447   4.793  20.317  0.00  0.00    +0.000 C 
ENDBRANCH   8  11
ENDBRANCH   7   8
BRANCH   2  18
ATOM     17  C   UNL     1       5.686   3.920  13.760  0.00  0.00    +0.000 C 
ATOM     18  O   UNL     1       4.838   3.962  14.916  0.00  0.00    +0.000 OA
ENDBRANCH   2  18
ENDBRANCH   1   5
BRANCH   1  19
ATOM     19  C   UNL     1       7.988   7.643  18.147  0.00  0.00    +0.000 C 
ATOM     20  O   UNL     1       7.354   7.839  17.110  0.00  0.00    +0.000 OA
ATOM     21  N   UNL     1       8.675   8.630  18.837  0.00  0.00    +0.000 N 
ATOM     22  H   UNL     1       9.333   8.392  19.572  0.00  0.00    +0.000 HD
BRANCH  21  23
ATOM     23  N   UNL     1       8.823   9.887  18.251  0.00  0.00    +0.000 N 
ATOM     24  C   UNL     1       9.399  10.919  18.981  0.00  0.00    +0.000 C 
ATOM     25  O   UNL     1       9.666  10.849  20.180  0.00  0.00    +0.000 OA
ATOM     26  H   UNL     1       8.660   9.961  17.252  0.00  0.00    +0.000 HD
BRANCH  24  27
ATOM     27  C   UNL     1       9.567  12.191  18.180  0.00  0.00    +0.000 C 
BRANCH  27  28
ATOM     28  O   UNL     1      10.679  12.807  18.816  0.00  0.00    +0.000 OA
BRANCH  28  29
ATOM     29  C   UNL     1      10.594  14.143  19.052  0.00  0.00    +0.000 A 
ATOM     30  C   UNL     1      11.263  14.564  20.200  0.00  0.00    +0.000 A 
ATOM     31  C   UNL     1      11.271  15.909  20.556  0.00  0.00    +0.000 A 
ATOM     32  C   UNL     1      10.617  16.848  19.753  0.00  0.00    +0.000 A 
ATOM     33  C   UNL     1      10.621  18.301  20.117  0.00  0.00    +0.000 C 
ATOM     34  C   UNL     1       9.968  16.424  18.587  0.00  0.00    +0.000 A 
ATOM     35  C   UNL     1       9.955  15.073  18.236  0.00  0.00    +0.000 A 
ENDBRANCH  28  29
ENDBRANCH  27  28
ENDBRANCH  24  27
ENDBRANCH  21  23
ENDBRANCH   1  19
TORSDOF 9
ENDMDL
MODEL 7
REMARK VINA RESULT:      -8.3      5.060      9.062
REMARK  Name = 
REMARK  11 active torsions:
REMARK  status: ('A' for Active; 'I' for Inactive)
REMARK    1  A    between atoms: C_1  and  O_2
REMARK    2  A    between atoms: O_2  and  C_3
REMARK    3  A    between atoms: C_6  and  C_7
REMARK    4  A    between atoms: C_7  and  C_8
REMARK    5  A    between atoms: N_10  and  N_11
REMARK    6  A    between atoms: C_12  and  C_14
REMARK    7  A    between atoms: C_14  and  O_15
REMARK    8  A    between atoms: O_15  and  C_16
REMARK    9  A    between atoms: C_19  and  C_20
REMARK   10  A    between atoms: C_24  and  S_25
REMARK   11  A    between atoms: S_25  and  N_28
REMARK                            x       y       z     vdW  Elec       q    Type
REMARK                         _______ _______ _______ _____ _____    ______ ____
ROOT
ATOM      1  C   UNL     1       2.463   8.609  18.201  0.00  0.00    +0.000 C 
ENDROOT
BRANCH   1   5
ATOM      2  C   UNL     1       2.668   4.757  19.993  0.00  0.00    +0.000 A 
ATOM      3  C   UNL     1       2.024   5.807  20.666  0.00  0.00    +0.000 A 
ATOM      4  C   UNL     1       1.801   7.026  20.033  0.00  0.00    +0.000 A 
ATOM      5  C   UNL     1       2.249   7.203  18.718  0.00  0.00    +0.000 A 
ATOM      6  C   UNL     1       2.702   6.092  18.000  0.00  0.00    +0.000 A 
ATOM      7  C   UNL     1       2.883   4.842  18.620  0.00  0.00    +0.000 A 
BRANCH   7   8
ATOM      8  S   UNL     1       3.463   3.484  17.614  0.00  0.00    +0.000 S 
ATOM      9  O   UNL     1       3.786   2.413  18.541  0.00  0.00    +0.000 OA
ATOM     10  O   UNL     1       2.509   3.227  16.562  0.00  0.00    +0.000 OA
BRANCH   8  11
ATOM     11  N   UNL     1       4.935   3.936  16.922  0.00  0.00    +0.000 NA
ATOM     12  C   UNL     1       6.030   4.417  17.789  0.00  0.00    +0.000 C 
ATOM     13  C   UNL     1       6.030   5.938  17.777  0.00  0.00    +0.000 C 
ATOM     14  O   UNL     1       6.362   6.395  16.458  0.00  0.00    +0.000 OA
ATOM     15  C   UNL     1       5.396   5.961  15.486  0.00  0.00    +0.000 C 
ATOM     16  C   UNL     1       5.075   4.453  15.536  0.00  0.00    +0.000 C 
ENDBRANCH   8  11
ENDBRANCH   7   8
BRANCH   2  18
ATOM     17  C   UNL     1       2.088   3.394  21.783  0.00  0.00    +0.000 C 
ATOM     18  O   UNL     1       3.068   3.718  20.787  0.00  0.00    +0.000 OA
ENDBRANCH   2  18
ENDBRANCH   1   5
BRANCH   1  19
ATOM     19  C   UNL     1       1.344   9.493  18.740  0.00  0.00    +0.000 C 
ATOM     20  O   UNL     1       1.093   9.583  19.941  0.00  0.00    +0.000 OA
ATOM     21  N   UNL     1       0.740  10.264  17.759  0.00  0.00    +0.000 N 
ATOM     22  H   UNL     1       0.834  10.029  16.777  0.00  0.00    +0.000 HD
BRANCH  21  23
ATOM     23  N   UNL     1      -0.345  11.071  18.105  0.00  0.00    +0.000 N 
ATOM     24  C   UNL     1      -1.635  10.633  17.835  0.00  0.00    +0.000 C 
ATOM     25  O   UNL     1      -1.899   9.633  17.171  0.00  0.00    +0.000 OA
ATOM     26  H   UNL     1      -0.162  11.874  18.697  0.00  0.00    +0.000 HD
BRANCH  24  27
ATOM     27  C   UNL     1      -2.701  11.578  18.346  0.00  0.00    +0.000 C 
BRANCH  27  28
ATOM     28  O   UNL     1      -1.971  12.400  19.248  0.00  0.00    +0.000 OA
BRANCH  28  29
ATOM     29  C   UNL     1      -2.390  12.420  20.542  0.00  0.00    +0.000 A 
ATOM     30  C   UNL     1      -3.739  12.740  20.699  0.00  0.00    +0.000 A 
ATOM     31  C   UNL     1      -4.307  12.783  21.969  0.00  0.00    +0.000 A 
ATOM     32  C   UNL     1      -3.528  12.493  23.093  0.00  0.00    +0.000 A 
ATOM     33  C   UNL     1      -4.125  12.529  24.466  0.00  0.00    +0.000 C 
ATOM     34  C   UNL     1      -2.181  12.147  22.928  0.00  0.00    +0.000 A 
ATOM     35  C   UNL     1      -1.611  12.112  21.654  0.00  0.00    +0.000 A 
ENDBRANCH  28  29
ENDBRANCH  27  28
ENDBRANCH  24  27
ENDBRANCH  21  23
ENDBRANCH   1  19
TORSDOF 9
ENDMDL
MODEL 8
REMARK VINA RESULT:      -8.1      2.678      3.676
REMARK  Name = 
REMARK  11 active torsions:
REMARK  status: ('A' for Active; 'I' for Inactive)
REMARK    1  A    between atoms: C_1  and  O_2
REMARK    2  A    between atoms: O_2  and  C_3
REMARK    3  A    between atoms: C_6  and  C_7
REMARK    4  A    between atoms: C_7  and  C_8
REMARK    5  A    between atoms: N_10  and  N_11
REMARK    6  A    between atoms: C_12  and  C_14
REMARK    7  A    between atoms: C_14  and  O_15
REMARK    8  A    between atoms: O_15  and  C_16
REMARK    9  A    between atoms: C_19  and  C_20
REMARK   10  A    between atoms: C_24  and  S_25
REMARK   11  A    between atoms: S_25  and  N_28
REMARK                            x       y       z     vdW  Elec       q    Type
REMARK                         _______ _______ _______ _____ _____    ______ ____
ROOT
ATOM      1  C   UNL     1       8.353   6.706  19.061  0.00  0.00    +0.000 C 
ENDROOT
BRANCH   1   5
ATOM      2  C   UNL     1       5.501   4.454  16.849  0.00  0.00    +0.000 A 
ATOM      3  C   UNL     1       6.869   4.319  16.566  0.00  0.00    +0.000 A 
ATOM      4  C   UNL     1       7.825   4.917  17.381  0.00  0.00    +0.000 A 
ATOM      5  C   UNL     1       7.406   5.678  18.479  0.00  0.00    +0.000 A 
ATOM      6  C   UNL     1       6.062   5.635  18.861  0.00  0.00    +0.000 A 
ATOM      7  C   UNL     1       5.094   4.989  18.069  0.00  0.00    +0.000 A 
BRANCH   7   8
ATOM      8  S   UNL     1       3.403   4.988  18.647  0.00  0.00    +0.000 S 
ATOM      9  O   UNL     1       3.400   5.782  19.863  0.00  0.00    +0.000 OA
ATOM     10  O   UNL     1       2.528   5.372  17.565  0.00  0.00    +0.000 OA
BRANCH   8  11
ATOM     11  N   UNL     1       3.018   3.418  19.135  0.00  0.00    +0.000 NA
ATOM     12  C   UNL     1       2.184   2.568  18.260  0.00  0.00    +0.000 C 
ATOM     13  C   UNL     1       0.745   2.629  18.749  0.00  0.00    +0.000 C 
ATOM     14  O   UNL     1       0.666   2.029  20.049  0.00  0.00    +0.000 OA
ATOM     15  C   UNL     1       1.472   2.732  21.009  0.00  0.00    +0.000 C 
ATOM     16  C   UNL     1       2.923   2.992  20.555  0.00  0.00    +0.000 C 
ENDBRANCH   8  11
ENDBRANCH   7   8
BRANCH   2  18
ATOM     17  C   UNL     1       5.246   4.240  14.550  0.00  0.00    +0.000 C 
ATOM     18  O   UNL     1       4.658   4.060  15.846  0.00  0.00    +0.000 OA
ENDBRANCH   2  18
ENDBRANCH   1   5
BRANCH   1  19
ATOM     19  C   UNL     1       8.218   7.992  18.254  0.00  0.00    +0.000 C 
ATOM     20  O   UNL     1       7.557   8.056  17.218  0.00  0.00    +0.000 OA
ATOM     21  N   UNL     1       8.802   9.086  18.874  0.00  0.00    +0.000 N 
ATOM     22  H   UNL     1       9.488   8.965  19.611  0.00  0.00    +0.000 HD
BRANCH  21  23
ATOM     23  N   UNL     1       8.808  10.314  18.212  0.00  0.00    +0.000 N 
ATOM     24  C   UNL     1       9.707  11.298  18.605  0.00  0.00    +0.000 C 
ATOM     25  O   UNL     1      10.417  11.223  19.606  0.00  0.00    +0.000 OA
ATOM     26  H   UNL     1       8.272  10.387  17.353  0.00  0.00    +0.000 HD
BRANCH  24  27
ATOM     27  C   UNL     1       9.648  12.536  17.737  0.00  0.00    +0.000 C 
BRANCH  27  28
ATOM     28  O   UNL     1       9.540  13.577  18.699  0.00  0.00    +0.000 OA
BRANCH  28  29
ATOM     29  C   UNL     1       8.306  14.114  18.892  0.00  0.00    +0.000 A 
ATOM     30  C   UNL     1       7.497  14.110  17.756  0.00  0.00    +0.000 A 
ATOM     31  C   UNL     1       6.202  14.615  17.813  0.00  0.00    +0.000 A 
ATOM     32  C   UNL     1       5.701  15.120  19.017  0.00  0.00    +0.000 A 
ATOM     33  C   UNL     1       4.307  15.662  19.097  0.00  0.00    +0.000 C 
ATOM     34  C   UNL     1       6.508  15.098  20.161  0.00  0.00    +0.000 A 
ATOM     35  C   UNL     1       7.809  14.597  20.100  0.00  0.00    +0.000 A 
ENDBRANCH  28  29
ENDBRANCH  27  28
ENDBRANCH  24  27
ENDBRANCH  21  23
ENDBRANCH   1  19
TORSDOF 9
ENDMDL
MODEL 9
REMARK VINA RESULT:      -8.1      5.903     10.133
REMARK  Name = 
REMARK  11 active torsions:
REMARK  status: ('A' for Active; 'I' for Inactive)
REMARK    1  A    between atoms: C_1  and  O_2
REMARK    2  A    between atoms: O_2  and  C_3
REMARK    3  A    between atoms: C_6  and  C_7
REMARK    4  A    between atoms: C_7  and  C_8
REMARK    5  A    between atoms: N_10  and  N_11
REMARK    6  A    between atoms: C_12  and  C_14
REMARK    7  A    between atoms: C_14  and  O_15
REMARK    8  A    between atoms: O_15  and  C_16
REMARK    9  A    between atoms: C_19  and  C_20
REMARK   10  A    between atoms: C_24  and  S_25
REMARK   11  A    between atoms: S_25  and  N_28
REMARK                            x       y       z     vdW  Elec       q    Type
REMARK                         _______ _______ _______ _____ _____    ______ ____
ROOT
ATOM      1  C   UNL     1       2.145   7.578  21.172  0.00  0.00    +0.000 C 
ENDROOT
BRANCH   1   5
ATOM      2  C   UNL     1       2.173   3.641  19.563  0.00  0.00    +0.000 A 
ATOM      3  C   UNL     1       0.999   4.153  20.136  0.00  0.00    +0.000 A 
ATOM      4  C   UNL     1       0.919   5.489  20.518  0.00  0.00    +0.000 A 
ATOM      5  C   UNL     1       2.036   6.315  20.345  0.00  0.00    +0.000 A 
ATOM      6  C   UNL     1       3.117   5.846  19.594  0.00  0.00    +0.000 A 
ATOM      7  C   UNL     1       3.184   4.509  19.160  0.00  0.00    +0.000 A 
BRANCH   7   8
ATOM      8  S   UNL     1       4.608   4.010  18.203  0.00  0.00    +0.000 S 
ATOM      9  O   UNL     1       5.669   3.773  19.166  0.00  0.00    +0.000 OA
ATOM     10  O   UNL     1       4.231   2.941  17.309  0.00  0.00    +0.000 OA
BRANCH   8  11
ATOM     11  N   UNL     1       5.118   5.335  17.291  0.00  0.00    +0.000 NA
ATOM     12  C   UNL     1       5.293   5.191  15.831  0.00  0.00    +0.000 C 
ATOM     13  C   UNL     1       6.766   4.949  15.538  0.00  0.00    +0.000 C 
ATOM     14  O   UNL     1       7.513   6.120  15.896  0.00  0.00    +0.000 OA
ATOM     15  C   UNL     1       7.400   6.415  17.298  0.00  0.00    +0.000 C 
ATOM     16  C   UNL     1       5.951   6.441  17.830  0.00  0.00    +0.000 C 
ENDBRANCH   8  11
ENDBRANCH   7   8
BRANCH   2  18
ATOM     17  C   UNL     1       1.126   1.738  18.740  0.00  0.00    +0.000 C 
ATOM     18  O   UNL     1       2.231   2.277  19.479  0.00  0.00    +0.000 OA
ENDBRANCH   2  18
ENDBRANCH   1   5
BRANCH   1  19
ATOM     19  C   UNL     1       1.191   8.616  20.592  0.00  0.00    +0.000 C 
ATOM     20  O   UNL     1       1.110   8.837  19.384  0.00  0.00    +0.000 OA
ATOM     21  N   UNL     1       0.352   9.176  21.544  0.00  0.00    +0.000 N 
ATOM     22  H   UNL     1       0.571   9.117  22.532  0.00  0.00    +0.000 HD
BRANCH  21  23
ATOM     23  N   UNL     1      -0.526  10.188  21.158  0.00  0.00    +0.000 N 
ATOM     24  C   UNL     1      -0.892  11.163  22.077  0.00  0.00    +0.000 C 
ATOM     25  O   UNL     1      -0.609  11.123  23.273  0.00  0.00    +0.000 OA
ATOM     26  H   UNL     1      -0.736  10.276  20.169  0.00  0.00    +0.000 HD
BRANCH  24  27
ATOM     27  C   UNL     1      -1.780  12.235  21.484  0.00  0.00    +0.000 C 
BRANCH  27  28
ATOM     28  O   UNL     1      -2.174  12.974  22.633  0.00  0.00    +0.000 OA
BRANCH  28  29
ATOM     29  C   UNL     1      -3.487  12.920  22.981  0.00  0.00    +0.000 A 
ATOM     30  C   UNL     1      -4.367  13.160  21.926  0.00  0.00    +0.000 A 
ATOM     31  C   UNL     1      -5.742  13.122  22.136  0.00  0.00    +0.000 A 
ATOM     32  C   UNL     1      -6.248  12.829  23.406  0.00  0.00    +0.000 A 
ATOM     33  C   UNL     1      -7.725  12.777  23.648  0.00  0.00    +0.000 C 
ATOM     34  C   UNL     1      -5.360  12.563  24.456  0.00  0.00    +0.000 A 
ATOM     35  C   UNL     1      -3.981  12.609  24.245  0.00  0.00    +0.000 A 
ENDBRANCH  28  29
ENDBRANCH  27  28
ENDBRANCH  24  27
ENDBRANCH  21  23
ENDBRANCH   1  19
TORSDOF 9
ENDMDL
