MODEL 1
REMARK VINA RESULT:      -8.2      0.000      0.000
REMARK  Name = 
REMARK  4 active torsions:
REMARK  status: ('A' for Active; 'I' for Inactive)
REMARK    1  A    between atoms: O_1  and  C_2
REMARK    2  A    between atoms: C_8  and  C_9
REMARK    3  A    between atoms: N_19  and  C_20
REMARK    4  A    between atoms: C_20  and  C_21
REMARK                            x       y       z     vdW  Elec       q    Type
REMARK                         _______ _______ _______ _____ _____    ______ ____
ROOT
ATOM      1  C   UNL     1       3.005   4.364  20.112  0.00  0.00    +0.000 A 
ATOM      2  N   UNL     1       2.200   5.050  20.853  0.00  0.00    +0.000 NA
ATOM      3  C   UNL     1       1.921   6.340  20.406  0.00  0.00    +0.000 A 
ATOM      4  C   UNL     1       2.422   6.912  19.279  0.00  0.00    +0.000 A 
ATOM      5  C   UNL     1       3.305   6.114  18.499  0.00  0.00    +0.000 A 
ATOM      6  N   UNL     1       3.959   6.320  17.380  0.00  0.00    +0.000 NA
ATOM      7  C   UNL     1       4.652   5.142  17.181  0.00  0.00    +0.000 A 
ATOM      8  N   UNL     1       4.419   4.202  18.115  0.00  0.00    +0.000 NA
ATOM      9  N   UNL     1       3.574   4.851  18.945  0.00  0.00    +0.000 N 
ATOM     10  C   UNL     1       2.057   8.334  18.885  0.00  0.00    +0.000 C 
ATOM     11  N   UNL     1       0.898   8.908  19.604  0.00  0.00    +0.000 NA
ATOM     12  C   UNL     1       1.021   8.635  21.041  0.00  0.00    +0.000 C 
ATOM     13  C   UNL     1       0.992   7.124  21.303  0.00  0.00    +0.000 C 
ENDROOT
BRANCH   7  14
ATOM     14  C   UNL     1       5.502   4.922  16.017  0.00  0.00    +0.000 A 
ATOM     15  C   UNL     1       5.025   4.092  14.984  0.00  0.00    +0.000 A 
ATOM     16  C   UNL     1       5.783   3.867  13.833  0.00  0.00    +0.000 A 
ATOM     17  C   UNL     1       7.031   4.465  13.696  0.00  0.00    +0.000 A 
ATOM     18  C   UNL     1       7.524   5.282  14.714  0.00  0.00    +0.000 A 
ATOM     19  C   UNL     1       6.771   5.510  15.873  0.00  0.00    +0.000 A 
ATOM     20 CL   UNL     1       7.518   6.490  17.090  0.00  0.00    +0.000 Cl
ENDBRANCH   7  14
BRANCH   1  21
ATOM     21  O   UNL     1       3.360   3.104  20.424  0.00  0.00    +0.000 OA
ATOM     22  H   UNL     1       4.284   3.120  20.720  0.00  0.00    +0.000 HD
ENDBRANCH   1  21
BRANCH  11  23
ATOM     23  C   UNL     1       0.814  10.352  19.311  0.00  0.00    +0.000 C 
BRANCH  23  24
ATOM     24  C   UNL     1      -0.580  10.864  19.004  0.00  0.00    +0.000 A 
ATOM     25  C   UNL     1      -1.317  10.322  17.938  0.00  0.00    +0.000 A 
ATOM     26  C   UNL     1      -2.621  10.748  17.684  0.00  0.00    +0.000 A 
ATOM     27  C   UNL     1      -3.211  11.712  18.499  0.00  0.00    +0.000 A 
ATOM     28  C   UNL     1      -2.486  12.269  19.552  0.00  0.00    +0.000 A 
ATOM     29  C   UNL     1      -1.175  11.855  19.799  0.00  0.00    +0.000 A 
ENDBRANCH  23  24
ENDBRANCH  11  23
TORSDOF 4
ENDMDL
MODEL 2
REMARK VINA RESULT:      -7.9      0.909      1.354
REMARK  Name = 
REMARK  4 active torsions:
REMARK  status: ('A' for Active; 'I' for Inactive)
REMARK    1  A    between atoms: O_1  and  C_2
REMARK    2  A    between atoms: C_8  and  C_9
REMARK    3  A    between atoms: N_19  and  C_20
REMARK    4  A    between atoms: C_20  and  C_21
REMARK                            x       y       z     vdW  Elec       q    Type
REMARK                         _______ _______ _______ _____ _____    ______ ____
ROOT
ATOM      1  C   UNL     1       3.399   3.570  19.292  0.00  0.00    +0.000 A 
ATOM      2  N   UNL     1       2.658   4.191  20.148  0.00  0.00    +0.000 NA
ATOM      3  C   UNL     1       2.387   5.526  19.853  0.00  0.00    +0.000 A 
ATOM      4  C   UNL     1       2.835   6.201  18.762  0.00  0.00    +0.000 A 
ATOM      5  C   UNL     1       3.648   5.471  17.850  0.00  0.00    +0.000 A 
ATOM      6  N   UNL     1       4.239   5.779  16.720  0.00  0.00    +0.000 NA
ATOM      7  C   UNL     1       4.888   4.614  16.359  0.00  0.00    +0.000 A 
ATOM      8  N   UNL     1       4.686   3.587  17.205  0.00  0.00    +0.000 NA
ATOM      9  N   UNL     1       3.910   4.164  18.147  0.00  0.00    +0.000 N 
ATOM     10  C   UNL     1       2.485   7.664  18.539  0.00  0.00    +0.000 C 
ATOM     11  N   UNL     1       1.386   8.184  19.383  0.00  0.00    +0.000 NA
ATOM     12  C   UNL     1       1.588   7.760  20.774  0.00  0.00    +0.000 C 
ATOM     13  C   UNL     1       1.535   6.232  20.881  0.00  0.00    +0.000 C 
ENDROOT
BRANCH   7  14
ATOM     14  C   UNL     1       5.660   4.499  15.128  0.00  0.00    +0.000 A 
ATOM     15  C   UNL     1       5.137   3.722  14.077  0.00  0.00    +0.000 A 
ATOM     16  C   UNL     1       5.819   3.597  12.864  0.00  0.00    +0.000 A 
ATOM     17  C   UNL     1       7.036   4.245  12.683  0.00  0.00    +0.000 A 
ATOM     18  C   UNL     1       7.575   5.010  13.718  0.00  0.00    +0.000 A 
ATOM     19  C   UNL     1       6.898   5.137  14.938  0.00  0.00    +0.000 A 
ATOM     20 CL   UNL     1       7.700   6.061  16.165  0.00  0.00    +0.000 Cl
ENDBRANCH   7  14
BRANCH   1  21
ATOM     21  O   UNL     1       3.738   2.277  19.451  0.00  0.00    +0.000 OA
ATOM     22  H   UNL     1       3.071   1.738  18.997  0.00  0.00    +0.000 HD
ENDBRANCH   1  21
BRANCH  11  23
ATOM     23  C   UNL     1       1.324   9.652  19.245  0.00  0.00    +0.000 C 
BRANCH  23  24
ATOM     24  C   UNL     1      -0.048  10.206  18.911  0.00  0.00    +0.000 A 
ATOM     25  C   UNL     1      -0.654  11.154  19.752  0.00  0.00    +0.000 A 
ATOM     26  C   UNL     1      -1.891  11.710  19.423  0.00  0.00    +0.000 A 
ATOM     27  C   UNL     1      -2.533  11.335  18.245  0.00  0.00    +0.000 A 
ATOM     28  C   UNL     1      -1.951  10.384  17.409  0.00  0.00    +0.000 A 
ATOM     29  C   UNL     1      -0.719   9.815  17.743  0.00  0.00    +0.000 A 
ENDBRANCH  23  24
ENDBRANCH  11  23
TORSDOF 4
ENDMDL
MODEL 3
REMARK VINA RESULT:      -7.8      0.753      1.319
REMARK  Name = 
REMARK  4 active torsions:
REMARK  status: ('A' for Active; 'I' for Inactive)
REMARK    1  A    between atoms: O_1  and  C_2
REMARK    2  A    between atoms: C_8  and  C_9
REMARK    3  A    between atoms: N_19  and  C_20
REMARK    4  A    between atoms: C_20  and  C_21
REMARK                            x       y       z     vdW  Elec       q    Type
REMARK                         _______ _______ _______ _____ _____    ______ ____
ROOT
ATOM      1  C   UNL     1       2.645   4.868  20.233  0.00  0.00    +0.000 A 
ATOM      2  N   UNL     1       1.853   5.630  20.912  0.00  0.00    +0.000 NA
ATOM      3  C   UNL     1       1.676   6.917  20.407  0.00  0.00    +0.000 A 
ATOM      4  C   UNL     1       2.261   7.413  19.285  0.00  0.00    +0.000 A 
ATOM      5  C   UNL     1       3.126   6.533  18.575  0.00  0.00    +0.000 A 
ATOM      6  N   UNL     1       3.840   6.656  17.481  0.00  0.00    +0.000 NA
ATOM      7  C   UNL     1       4.466   5.431  17.356  0.00  0.00    +0.000 A 
ATOM      8  N   UNL     1       4.132   4.543  18.311  0.00  0.00    +0.000 NA
ATOM      9  N   UNL     1       3.294   5.275  19.077  0.00  0.00    +0.000 N 
ATOM     10  C   UNL     1       2.005   8.839  18.825  0.00  0.00    +0.000 C 
ATOM     11  N   UNL     1       0.854   9.511  19.468  0.00  0.00    +0.000 NA
ATOM     12  C   UNL     1       0.896   9.285  20.918  0.00  0.00    +0.000 C 
ATOM     13  C   UNL     1       0.760   7.790  21.231  0.00  0.00    +0.000 C 
ENDROOT
BRANCH   7  14
ATOM     14  C   UNL     1       5.350   5.115  16.242  0.00  0.00    +0.000 A 
ATOM     15  C   UNL     1       4.844   4.341  15.180  0.00  0.00    +0.000 A 
ATOM     16  C   UNL     1       5.636   4.030  14.073  0.00  0.00    +0.000 A 
ATOM     17  C   UNL     1       6.949   4.485  14.009  0.00  0.00    +0.000 A 
ATOM     18  C   UNL     1       7.471   5.244  15.057  0.00  0.00    +0.000 A 
ATOM     19  C   UNL     1       6.683   5.558  16.172  0.00  0.00    +0.000 A 
ATOM     20 CL   UNL     1       7.465   6.451  17.434  0.00  0.00    +0.000 Cl
ENDBRANCH   7  14
BRANCH   1  21
ATOM     21  O   UNL     1       2.905   3.601  20.606  0.00  0.00    +0.000 OA
ATOM     22  H   UNL     1       2.476   3.450  21.463  0.00  0.00    +0.000 HD
ENDBRANCH   1  21
BRANCH  11  23
ATOM     23  C   UNL     1       0.875  10.945  19.121  0.00  0.00    +0.000 C 
BRANCH  23  24
ATOM     24  C   UNL     1      -0.325  11.738  19.603  0.00  0.00    +0.000 A 
ATOM     25  C   UNL     1      -0.152  12.826  20.474  0.00  0.00    +0.000 A 
ATOM     26  C   UNL     1      -1.245  13.595  20.878  0.00  0.00    +0.000 A 
ATOM     27  C   UNL     1      -2.521  13.295  20.407  0.00  0.00    +0.000 A 
ATOM     28  C   UNL     1      -2.709  12.209  19.553  0.00  0.00    +0.000 A 
ATOM     29  C   UNL     1      -1.619  11.429  19.159  0.00  0.00    +0.000 A 
ENDBRANCH  23  24
ENDBRANCH  11  23
TORSDOF 4
ENDMDL
MODEL 4
REMARK VINA RESULT:      -7.7      1.799      2.545
REMARK  Name = 
REMARK  4 active torsions:
REMARK  status: ('A' for Active; 'I' for Inactive)
REMARK    1  A    between atoms: O_1  and  C_2
REMARK    2  A    between atoms: C_8  and  C_9
REMARK    3  A    between atoms: N_19  and  C_20
REMARK    4  A    between atoms: C_20  and  C_21
REMARK                            x       y       z     vdW  Elec       q    Type
REMARK                         _______ _______ _______ _____ _____    ______ ____
ROOT
ATOM      1  C   UNL     1       3.023   2.659  18.496  0.00  0.00    +0.000 A 
ATOM      2  N   UNL     1       2.304   3.146  19.453  0.00  0.00    +0.000 NA
ATOM      3  C   UNL     1       2.242   4.537  19.513  0.00  0.00    +0.000 A 
ATOM      4  C   UNL     1       2.868   5.393  18.662  0.00  0.00    +0.000 A 
ATOM      5  C   UNL     1       3.648   4.806  17.627  0.00  0.00    +0.000 A 
ATOM      6  N   UNL     1       4.369   5.299  16.647  0.00  0.00    +0.000 NA
ATOM      7  C   UNL     1       4.881   4.181  16.018  0.00  0.00    +0.000 A 
ATOM      8  N   UNL     1       4.470   3.015  16.550  0.00  0.00    +0.000 NA
ATOM      9  N   UNL     1       3.703   3.442  17.576  0.00  0.00    +0.000 N 
ATOM     10  C   UNL     1       2.740   6.899  18.822  0.00  0.00    +0.000 C 
ATOM     11  N   UNL     1       1.655   7.347  19.724  0.00  0.00    +0.000 NA
ATOM     12  C   UNL     1       1.680   6.554  20.959  0.00  0.00    +0.000 C 
ATOM     13  C   UNL     1       1.410   5.076  20.652  0.00  0.00    +0.000 C 
ENDROOT
BRANCH   7  14
ATOM     14  C   UNL     1       5.731   4.269  14.838  0.00  0.00    +0.000 A 
ATOM     15  C   UNL     1       5.339   3.580  13.674  0.00  0.00    +0.000 A 
ATOM     16  C   UNL     1       6.099   3.650  12.505  0.00  0.00    +0.000 A 
ATOM     17  C   UNL     1       7.265   4.407  12.479  0.00  0.00    +0.000 A 
ATOM     18  C   UNL     1       7.675   5.088  13.626  0.00  0.00    +0.000 A 
ATOM     19  C   UNL     1       6.919   5.020  14.804  0.00  0.00    +0.000 A 
ATOM     20 CL   UNL     1       7.565   5.856  16.176  0.00  0.00    +0.000 Cl
ENDBRANCH   7  14
BRANCH   1  21
ATOM     21  O   UNL     1       3.168   1.333  18.320  0.00  0.00    +0.000 OA
ATOM     22  H   UNL     1       2.414   1.020  17.794  0.00  0.00    +0.000 HD
ENDBRANCH   1  21
BRANCH  11  23
ATOM     23  C   UNL     1       1.805   8.793  19.979  0.00  0.00    +0.000 C 
BRANCH  23  24
ATOM     24  C   UNL     1       0.819   9.372  20.976  0.00  0.00    +0.000 A 
ATOM     25  C   UNL     1       0.883   9.009  22.330  0.00  0.00    +0.000 A 
ATOM     26  C   UNL     1       0.015   9.580  23.263  0.00  0.00    +0.000 A 
ATOM     27  C   UNL     1      -0.918  10.530  22.856  0.00  0.00    +0.000 A 
ATOM     28  C   UNL     1      -1.002  10.891  21.511  0.00  0.00    +0.000 A 
ATOM     29  C   UNL     1      -0.145  10.309  20.574  0.00  0.00    +0.000 A 
ENDBRANCH  23  24
ENDBRANCH  11  23
TORSDOF 4
ENDMDL
MODEL 5
REMARK VINA RESULT:      -7.5      4.525      9.610
REMARK  Name = 
REMARK  4 active torsions:
REMARK  status: ('A' for Active; 'I' for Inactive)
REMARK    1  A    between atoms: O_1  and  C_2
REMARK    2  A    between atoms: C_8  and  C_9
REMARK    3  A    between atoms: N_19  and  C_20
REMARK    4  A    between atoms: C_20  and  C_21
REMARK                            x       y       z     vdW  Elec       q    Type
REMARK                         _______ _______ _______ _____ _____    ______ ____
ROOT
ATOM      1  C   UNL     1       1.349  11.432  18.463  0.00  0.00    +0.000 A 
ATOM      2  N   UNL     1       1.953  10.401  17.971  0.00  0.00    +0.000 NA
ATOM      3  C   UNL     1       1.884   9.240  18.737  0.00  0.00    +0.000 A 
ATOM      4  C   UNL     1       1.247   9.118  19.932  0.00  0.00    +0.000 A 
ATOM      5  C   UNL     1       0.599  10.283  20.431  0.00  0.00    +0.000 A 
ATOM      6  N   UNL     1      -0.097  10.537  21.513  0.00  0.00    +0.000 NA
ATOM      7  C   UNL     1      -0.420  11.875  21.392  0.00  0.00    +0.000 A 
ATOM      8  N   UNL     1       0.018  12.445  20.254  0.00  0.00    +0.000 NA
ATOM      9  N   UNL     1       0.673  11.417  19.673  0.00  0.00    +0.000 N 
ATOM     10  C   UNL     1       1.239   7.802  20.693  0.00  0.00    +0.000 C 
ATOM     11  N   UNL     1       1.665   6.620  19.910  0.00  0.00    +0.000 NA
ATOM     12  C   UNL     1       2.885   6.938  19.158  0.00  0.00    +0.000 C 
ATOM     13  C   UNL     1       2.613   8.057  18.146  0.00  0.00    +0.000 C 
ENDROOT
BRANCH   7  14
ATOM     14  C   UNL     1      -1.229  12.576  22.381  0.00  0.00    +0.000 A 
ATOM     15  C   UNL     1      -2.409  11.963  22.842  0.00  0.00    +0.000 A 
ATOM     16  C   UNL     1      -3.210  12.574  23.809  0.00  0.00    +0.000 A 
ATOM     17  C   UNL     1      -2.845  13.811  24.331  0.00  0.00    +0.000 A 
ATOM     18  C   UNL     1      -1.684  14.439  23.878  0.00  0.00    +0.000 A 
ATOM     19  C   UNL     1      -0.878  13.832  22.906  0.00  0.00    +0.000 A 
ATOM     20 CL   UNL     1       0.501  14.740  22.382  0.00  0.00    +0.000 Cl
ENDBRANCH   7  14
BRANCH   1  21
ATOM     21  O   UNL     1       1.335  12.618  17.827  0.00  0.00    +0.000 OA
ATOM     22  H   UNL     1       0.903  12.488  16.968  0.00  0.00    +0.000 HD
ENDBRANCH   1  21
BRANCH  11  23
ATOM     23  C   UNL     1       1.848   5.476  20.824  0.00  0.00    +0.000 C 
BRANCH  23  24
ATOM     24  C   UNL     1       2.010   4.131  20.142  0.00  0.00    +0.000 A 
ATOM     25  C   UNL     1       0.916   3.520  19.509  0.00  0.00    +0.000 A 
ATOM     26  C   UNL     1       1.069   2.309  18.832  0.00  0.00    +0.000 A 
ATOM     27  C   UNL     1       2.321   1.700  18.768  0.00  0.00    +0.000 A 
ATOM     28  C   UNL     1       3.413   2.288  19.404  0.00  0.00    +0.000 A 
ATOM     29  C   UNL     1       3.258   3.492  20.095  0.00  0.00    +0.000 A 
ENDBRANCH  23  24
ENDBRANCH  11  23
TORSDOF 4
ENDMDL
MODEL 6
REMARK VINA RESULT:      -7.4      3.436      5.223
REMARK  Name = 
REMARK  4 active torsions:
REMARK  status: ('A' for Active; 'I' for Inactive)
REMARK    1  A    between atoms: O_1  and  C_2
REMARK    2  A    between atoms: C_8  and  C_9
REMARK    3  A    between atoms: N_19  and  C_20
REMARK    4  A    between atoms: C_20  and  C_21
REMARK                            x       y       z     vdW  Elec       q    Type
REMARK                         _______ _______ _______ _____ _____    ______ ____
ROOT
ATOM      1  C   UNL     1       2.121   9.032  18.033  0.00  0.00    +0.000 A 
ATOM      2  N   UNL     1       1.547  10.171  18.241  0.00  0.00    +0.000 NA
ATOM      3  C   UNL     1       0.871  10.292  19.454  0.00  0.00    +0.000 A 
ATOM      4  C   UNL     1       0.773   9.325  20.405  0.00  0.00    +0.000 A 
ATOM      5  C   UNL     1       1.422   8.090  20.126  0.00  0.00    +0.000 A 
ATOM      6  N   UNL     1       1.545   6.963  20.788  0.00  0.00    +0.000 NA
ATOM      7  C   UNL     1       2.283   6.161  19.940  0.00  0.00    +0.000 A 
ATOM      8  N   UNL     1       2.654   6.764  18.796  0.00  0.00    +0.000 NA
ATOM      9  N   UNL     1       2.082   7.980  18.935  0.00  0.00    +0.000 N 
ATOM     10  C   UNL     1       0.002   9.559  21.694  0.00  0.00    +0.000 C 
ATOM     11  N   UNL     1      -0.333  10.973  21.979  0.00  0.00    +0.000 NA
ATOM     12  C   UNL     1      -0.866  11.609  20.768  0.00  0.00    +0.000 C 
ATOM     13  C   UNL     1       0.194  11.627  19.661  0.00  0.00    +0.000 C 
ENDROOT
BRANCH   7  14
ATOM     14  C   UNL     1       2.681   4.805  20.297  0.00  0.00    +0.000 A 
ATOM     15  C   UNL     1       1.904   4.102  21.237  0.00  0.00    +0.000 A 
ATOM     16  C   UNL     1       2.220   2.790  21.598  0.00  0.00    +0.000 A 
ATOM     17  C   UNL     1       3.321   2.160  21.027  0.00  0.00    +0.000 A 
ATOM     18  C   UNL     1       4.109   2.845  20.101  0.00  0.00    +0.000 A 
ATOM     19  C   UNL     1       3.799   4.162  19.737  0.00  0.00    +0.000 A 
ATOM     20 CL   UNL     1       4.889   4.925  18.628  0.00  0.00    +0.000 Cl
ENDBRANCH   7  14
BRANCH   1  21
ATOM     21  O   UNL     1       2.810   8.779  16.905  0.00  0.00    +0.000 OA
ATOM     22  H   UNL     1       3.337   9.567  16.698  0.00  0.00    +0.000 HD
ENDBRANCH   1  21
BRANCH  11  23
ATOM     23  C   UNL     1      -1.281  11.026  23.108  0.00  0.00    +0.000 C 
BRANCH  23  24
ATOM     24  C   UNL     1      -1.999  12.351  23.279  0.00  0.00    +0.000 A 
ATOM     25  C   UNL     1      -3.403  12.402  23.283  0.00  0.00    +0.000 A 
ATOM     26  C   UNL     1      -4.071  13.609  23.496  0.00  0.00    +0.000 A 
ATOM     27  C   UNL     1      -3.345  14.778  23.719  0.00  0.00    +0.000 A 
ATOM     28  C   UNL     1      -1.952  14.744  23.704  0.00  0.00    +0.000 A 
ATOM     29  C   UNL     1      -1.281  13.539  23.476  0.00  0.00    +0.000 A 
ENDBRANCH  23  24
ENDBRANCH  11  23
TORSDOF 4
ENDMDL
MODEL 7
REMARK VINA RESULT:      -7.3      2.254      8.271
REMARK  Name = 
REMARK  4 active torsions:
REMARK  status: ('A' for Active; 'I' for Inactive)
REMARK    1  A    between atoms: O_1  and  C_2
REMARK    2  A    between atoms: C_8  and  C_9
REMARK    3  A    between atoms: N_19  and  C_20
REMARK    4  A    between atoms: C_20  and  C_21
REMARK                            x       y       z     vdW  Elec       q    Type
REMARK                         _______ _______ _______ _____ _____    ______ ____
ROOT
ATOM      1  C   UNL     1       2.250   4.125  20.495  0.00  0.00    +0.000 A 
ATOM      2  N   UNL     1       3.057   3.405  19.789  0.00  0.00    +0.000 NA
ATOM      3  C   UNL     1       3.782   4.090  18.816  0.00  0.00    +0.000 A 
ATOM      4  C   UNL     1       3.702   5.423  18.563  0.00  0.00    +0.000 A 
ATOM      5  C   UNL     1       2.797   6.171  19.368  0.00  0.00    +0.000 A 
ATOM      6  N   UNL     1       2.465   7.440  19.415  0.00  0.00    +0.000 NA
ATOM      7  C   UNL     1       1.512   7.495  20.414  0.00  0.00    +0.000 A 
ATOM      8  N   UNL     1       1.274   6.314  21.012  0.00  0.00    +0.000 NA
ATOM      9  N   UNL     1       2.090   5.491  20.319  0.00  0.00    +0.000 N 
ATOM     10  C   UNL     1       4.534   6.071  17.469  0.00  0.00    +0.000 C 
ATOM     11  N   UNL     1       5.645   5.243  16.949  0.00  0.00    +0.000 NA
ATOM     12  C   UNL     1       5.166   3.879  16.691  0.00  0.00    +0.000 C 
ATOM     13  C   UNL     1       4.703   3.219  17.995  0.00  0.00    +0.000 C 
ENDROOT
BRANCH   7  14
ATOM     14  C   UNL     1       0.883   8.744  20.824  0.00  0.00    +0.000 A 
ATOM     15  C   UNL     1       0.607   8.940  22.191  0.00  0.00    +0.000 A 
ATOM     16  C   UNL     1       0.029  10.127  22.647  0.00  0.00    +0.000 A 
ATOM     17  C   UNL     1      -0.284  11.137  21.744  0.00  0.00    +0.000 A 
ATOM     18  C   UNL     1      -0.028  10.956  20.385  0.00  0.00    +0.000 A 
ATOM     19  C   UNL     1       0.548   9.767  19.920  0.00  0.00    +0.000 A 
ATOM     20 CL   UNL     1       0.758   9.638  18.205  0.00  0.00    +0.000 Cl
ENDBRANCH   7  14
BRANCH   1  21
ATOM     21  O   UNL     1       1.491   3.593  21.471  0.00  0.00    +0.000 OA
ATOM     22  H   UNL     1       1.892   2.749  21.732  0.00  0.00    +0.000 HD
ENDBRANCH   1  21
BRANCH  11  23
ATOM     23  C   UNL     1       6.201   5.883  15.741  0.00  0.00    +0.000 C 
BRANCH  23  24
ATOM     24  C   UNL     1       6.221   5.006  14.503  0.00  0.00    +0.000 A 
ATOM     25  C   UNL     1       5.061   4.327  14.096  0.00  0.00    +0.000 A 
ATOM     26  C   UNL     1       5.056   3.563  12.928  0.00  0.00    +0.000 A 
ATOM     27  C   UNL     1       6.205   3.478  12.146  0.00  0.00    +0.000 A 
ATOM     28  C   UNL     1       7.368   4.135  12.545  0.00  0.00    +0.000 A 
ATOM     29  C   UNL     1       7.380   4.889  13.723  0.00  0.00    +0.000 A 
ENDBRANCH  23  24
ENDBRANCH  11  23
TORSDOF 4
ENDMDL
MODEL 8
REMARK VINA RESULT:      -7.3      4.618     10.052
REMARK  Name = 
REMARK  4 active torsions:
REMARK  status: ('A' for Active; 'I' for Inactive)
REMARK    1  A    between atoms: O_1  and  C_2
REMARK    2  A    between atoms: C_8  and  C_9
REMARK    3  A    between atoms: N_19  and  C_20
REMARK    4  A    between atoms: C_20  and  C_21
REMARK                            x       y       z     vdW  Elec       q    Type
REMARK                         _______ _______ _______ _____ _____    ______ ____
ROOT
ATOM      1  C   UNL     1      -0.547  11.845  18.368  0.00  0.00    +0.000 A 
ATOM      2  N   UNL     1       0.144  10.925  17.782  0.00  0.00    +0.000 NA
ATOM      3  C   UNL     1       0.610   9.904  18.607  0.00  0.00    +0.000 A 
ATOM      4  C   UNL     1       0.398   9.811  19.947  0.00  0.00    +0.000 A 
ATOM      5  C   UNL     1      -0.369  10.851  20.544  0.00  0.00    +0.000 A 
ATOM      6  N   UNL     1      -0.769  11.089  21.771  0.00  0.00    +0.000 NA
ATOM      7  C   UNL     1      -1.460  12.281  21.667  0.00  0.00    +0.000 A 
ATOM      8  N   UNL     1      -1.534  12.767  20.414  0.00  0.00    +0.000 NA
ATOM      9  N   UNL     1      -0.821  11.848  19.727  0.00  0.00    +0.000 N 
ATOM     10  C   UNL     1       0.960   8.655  20.758  0.00  0.00    +0.000 C 
ATOM     11  N   UNL     1       1.445   7.505  19.962  0.00  0.00    +0.000 NA
ATOM     12  C   UNL     1       2.269   7.988  18.847  0.00  0.00    +0.000 C 
ATOM     13  C   UNL     1       1.431   8.852  17.898  0.00  0.00    +0.000 C 
ENDROOT
BRANCH   7  14
ATOM     14  C   UNL     1      -2.110  12.909  22.810  0.00  0.00    +0.000 A 
ATOM     15  C   UNL     1      -3.273  12.312  23.334  0.00  0.00    +0.000 A 
ATOM     16  C   UNL     1      -3.923  12.853  24.445  0.00  0.00    +0.000 A 
ATOM     17  C   UNL     1      -3.424  14.002  25.050  0.00  0.00    +0.000 A 
ATOM     18  C   UNL     1      -2.279  14.613  24.538  0.00  0.00    +0.000 A 
ATOM     19  C   UNL     1      -1.623  14.077  23.422  0.00  0.00    +0.000 A 
ATOM     20 CL   UNL     1      -0.251  14.962  22.844  0.00  0.00    +0.000 Cl
ENDBRANCH   7  14
BRANCH   1  21
ATOM     21  O   UNL     1      -1.060  12.889  17.691  0.00  0.00    +0.000 OA
ATOM     22  H   UNL     1      -1.746  13.294  18.245  0.00  0.00    +0.000 HD
ENDBRANCH   1  21
BRANCH  11  23
ATOM     23  C   UNL     1       2.181   6.582  20.847  0.00  0.00    +0.000 C 
BRANCH  23  24
ATOM     24  C   UNL     1       2.183   5.132  20.401  0.00  0.00    +0.000 A 
ATOM     25  C   UNL     1       3.356   4.546  19.898  0.00  0.00    +0.000 A 
ATOM     26  C   UNL     1       3.380   3.198  19.537  0.00  0.00    +0.000 A 
ATOM     27  C   UNL     1       2.237   2.415  19.687  0.00  0.00    +0.000 A 
ATOM     28  C   UNL     1       1.062   2.988  20.172  0.00  0.00    +0.000 A 
ATOM     29  C   UNL     1       1.031   4.341  20.519  0.00  0.00    +0.000 A 
ENDBRANCH  23  24
ENDBRANCH  11  23
TORSDOF 4
ENDMDL
MODEL 9
REMARK VINA RESULT:      -7.2      1.731      2.332
REMARK  Name = 
REMARK  4 active torsions:
REMARK  status: ('A' for Active; 'I' for Inactive)
REMARK    1  A    between atoms: O_1  and  C_2
REMARK    2  A    between atoms: C_8  and  C_9
REMARK    3  A    between atoms: N_19  and  C_20
REMARK    4  A    between atoms: C_20  and  C_21
REMARK                            x       y       z     vdW  Elec       q    Type
REMARK                         _______ _______ _______ _____ _____    ______ ____
ROOT
ATOM      1  C   UNL     1       4.061   3.483  18.319  0.00  0.00    +0.000 A 
ATOM      2  N   UNL     1       3.298   4.026  19.210  0.00  0.00    +0.000 NA
ATOM      3  C   UNL     1       2.992   5.369  19.002  0.00  0.00    +0.000 A 
ATOM      4  C   UNL     1       3.427   6.128  17.962  0.00  0.00    +0.000 A 
ATOM      5  C   UNL     1       4.266   5.482  17.010  0.00  0.00    +0.000 A 
ATOM      6  N   UNL     1       4.856   5.881  15.907  0.00  0.00    +0.000 NA
ATOM      7  C   UNL     1       5.538   4.761  15.475  0.00  0.00    +0.000 A 
ATOM      8  N   UNL     1       5.360   3.675  16.249  0.00  0.00    +0.000 NA
ATOM      9  N   UNL     1       4.562   4.166  17.222  0.00  0.00    +0.000 N 
ATOM     10  C   UNL     1       3.039   7.592  17.834  0.00  0.00    +0.000 C 
ATOM     11  N   UNL     1       1.921   8.024  18.702  0.00  0.00    +0.000 NA
ATOM     12  C   UNL     1       2.126   7.514  20.064  0.00  0.00    +0.000 C 
ATOM     13  C   UNL     1       2.114   5.981  20.068  0.00  0.00    +0.000 C 
ENDROOT
BRANCH   7  14
ATOM     14  C   UNL     1       6.321   4.750  14.245  0.00  0.00    +0.000 A 
ATOM     15  C   UNL     1       7.524   5.481  14.207  0.00  0.00    +0.000 A 
ATOM     16  C   UNL     1       8.329   5.486  13.067  0.00  0.00    +0.000 A 
ATOM     17  C   UNL     1       7.945   4.761  11.944  0.00  0.00    +0.000 A 
ATOM     18  C   UNL     1       6.752   4.038  11.959  0.00  0.00    +0.000 A 
ATOM     19  C   UNL     1       5.937   4.032  13.099  0.00  0.00    +0.000 A 
ATOM     20 CL   UNL     1       4.452   3.150  12.972  0.00  0.00    +0.000 Cl
ENDBRANCH   7  14
BRANCH   1  21
ATOM     21  O   UNL     1       4.435   2.192  18.395  0.00  0.00    +0.000 OA
ATOM     22  H   UNL     1       3.887   1.765  19.072  0.00  0.00    +0.000 HD
ENDBRANCH   1  21
BRANCH  11  23
ATOM     23  C   UNL     1       1.818   9.496  18.662  0.00  0.00    +0.000 C 
BRANCH  23  24
ATOM     24  C   UNL     1       0.404  10.038  18.583  0.00  0.00    +0.000 A 
ATOM     25  C   UNL     1      -0.464   9.611  17.565  0.00  0.00    +0.000 A 
ATOM     26  C   UNL     1      -1.784  10.063  17.518  0.00  0.00    +0.000 A 
ATOM     27  C   UNL     1      -2.257  10.936  18.495  0.00  0.00    +0.000 A 
ATOM     28  C   UNL     1      -1.403  11.379  19.504  0.00  0.00    +0.000 A 
ATOM     29  C   UNL     1      -0.076  10.940  19.544  0.00  0.00    +0.000 A 
ENDBRANCH  23  24
ENDBRANCH  11  23
TORSDOF 4
ENDMDL
