MODEL 1
REMARK VINA RESULT:      -6.9      0.000      0.000
REMARK  Name = 
REMARK  4 active torsions:
REMARK  status: ('A' for Active; 'I' for Inactive)
REMARK    1  A    between atoms: C_2  and  C_3
REMARK    2  A    between atoms: C_3  and  N_4
REMARK    3  A    between atoms: N_4  and  S_5
REMARK    4  A    between atoms: S_5  and  C_8
REMARK                            x       y       z     vdW  Elec       q    Type
REMARK                         _______ _______ _______ _____ _____    ______ ____
ROOT
ATOM      1  O   UNL     1       4.781   5.701  17.055  0.00  0.00    +0.000 OA
ATOM      2  C   UNL     1       4.388   5.591  18.215  0.00  0.00    +0.000 C 
ATOM      3  N   UNL     1       3.330   6.342  18.726  0.00  0.00    +0.000 N 
ATOM      4  C   UNL     1       2.937   6.247  20.133  0.00  0.00    +0.000 C 
ATOM      5  C   UNL     1       1.589   6.856  20.479  0.00  0.00    +0.000 C 
ATOM      6  C   UNL     1       1.482   8.228  19.882  0.00  0.00    +0.000 A 
ATOM      7  C   UNL     1       0.896   9.291  20.573  0.00  0.00    +0.000 A 
ATOM      8  C   UNL     1       0.813  10.545  19.971  0.00  0.00    +0.000 A 
ATOM      9  C   UNL     1       1.300  10.736  18.677  0.00  0.00    +0.000 A 
ATOM     10  C   UNL     1       1.871   9.672  17.976  0.00  0.00    +0.000 A 
ATOM     11  C   UNL     1       1.977   8.413  18.577  0.00  0.00    +0.000 A 
ATOM     12  C   UNL     1       2.555   7.223  17.845  0.00  0.00    +0.000 C 
ENDROOT
BRANCH   2  13
ATOM     13  C   UNL     1       4.997   4.571  19.183  0.00  0.00    +0.000 C 
BRANCH  13  14
ATOM     14  N   UNL     1       5.247   3.263  18.571  0.00  0.00    +0.000 NA
ATOM     15  H   UNL     1       6.238   3.059  18.442  0.00  0.00    +0.000 HD
BRANCH  14  16
ATOM     16  S   UNL     1       4.447   1.983  19.317  0.00  0.00    +0.000 S 
ATOM     17  O   UNL     1       4.241   0.959  18.318  0.00  0.00    +0.000 OA
ATOM     18  O   UNL     1       5.129   1.709  20.558  0.00  0.00    +0.000 OA
BRANCH  16  19
ATOM     19  C   UNL     1       2.837   2.559  19.801  0.00  0.00    +0.000 A 
ATOM     20  C   UNL     1       1.699   2.856  19.074  0.00  0.00    +0.000 A 
ATOM     21  C   UNL     1       0.616   3.262  19.906  0.00  0.00    +0.000 A 
ATOM     22  C   UNL     1       0.963   3.259  21.239  0.00  0.00    +0.000 A 
ATOM     23  S   UNL     1       2.584   2.768  21.479  0.00  0.00    +0.000 S 
ENDBRANCH  16  19
ENDBRANCH  14  16
ENDBRANCH  13  14
ENDBRANCH   2  13
TORSDOF 4
ENDMDL
MODEL 2
REMARK VINA RESULT:      -6.8      1.116      1.435
REMARK  Name = 
REMARK  4 active torsions:
REMARK  status: ('A' for Active; 'I' for Inactive)
REMARK    1  A    between atoms: C_2  and  C_3
REMARK    2  A    between atoms: C_3  and  N_4
REMARK    3  A    between atoms: N_4  and  S_5
REMARK    4  A    between atoms: S_5  and  C_8
REMARK                            x       y       z     vdW  Elec       q    Type
REMARK                         _______ _______ _______ _____ _____    ______ ____
ROOT
ATOM      1  O   UNL     1       4.403   6.175  16.635  0.00  0.00    +0.000 OA
ATOM      2  C   UNL     1       4.098   5.919  17.799  0.00  0.00    +0.000 C 
ATOM      3  N   UNL     1       3.102   6.611  18.487  0.00  0.00    +0.000 N 
ATOM      4  C   UNL     1       2.817   6.337  19.896  0.00  0.00    +0.000 C 
ATOM      5  C   UNL     1       1.515   6.914  20.426  0.00  0.00    +0.000 C 
ATOM      6  C   UNL     1       1.396   8.353  20.023  0.00  0.00    +0.000 A 
ATOM      7  C   UNL     1       0.892   9.324  20.891  0.00  0.00    +0.000 A 
ATOM      8  C   UNL     1       0.794  10.648  20.467  0.00  0.00    +0.000 A 
ATOM      9  C   UNL     1       1.183  11.001  19.174  0.00  0.00    +0.000 A 
ATOM     10  C   UNL     1       1.671  10.031  18.297  0.00  0.00    +0.000 A 
ATOM     11  C   UNL     1       1.793   8.702  18.718  0.00  0.00    +0.000 A 
ATOM     12  C   UNL     1       2.283   7.611  17.793  0.00  0.00    +0.000 C 
ENDROOT
BRANCH   2  13
ATOM     13  C   UNL     1       4.755   4.772  18.573  0.00  0.00    +0.000 C 
BRANCH  13  14
ATOM     14  N   UNL     1       4.853   3.528  17.804  0.00  0.00    +0.000 NA
ATOM     15  H   UNL     1       5.687   2.982  18.020  0.00  0.00    +0.000 HD
BRANCH  14  16
ATOM     16  S   UNL     1       3.465   2.575  17.843  0.00  0.00    +0.000 S 
ATOM     17  O   UNL     1       2.511   3.161  16.931  0.00  0.00    +0.000 OA
ATOM     18  O   UNL     1       3.881   1.198  17.730  0.00  0.00    +0.000 OA
BRANCH  16  19
ATOM     19  C   UNL     1       2.765   2.705  19.471  0.00  0.00    +0.000 A 
ATOM     20  C   UNL     1       3.324   2.620  20.733  0.00  0.00    +0.000 A 
ATOM     21  C   UNL     1       2.363   2.821  21.766  0.00  0.00    +0.000 A 
ATOM     22  C   UNL     1       1.104   3.056  21.257  0.00  0.00    +0.000 A 
ATOM     23  S   UNL     1       1.088   3.032  19.547  0.00  0.00    +0.000 S 
ENDBRANCH  16  19
ENDBRANCH  14  16
ENDBRANCH  13  14
ENDBRANCH   2  13
TORSDOF 4
ENDMDL
MODEL 3
REMARK VINA RESULT:      -6.7      4.809      7.478
REMARK  Name = 
REMARK  4 active torsions:
REMARK  status: ('A' for Active; 'I' for Inactive)
REMARK    1  A    between atoms: C_2  and  C_3
REMARK    2  A    between atoms: C_3  and  N_4
REMARK    3  A    between atoms: N_4  and  S_5
REMARK    4  A    between atoms: S_5  and  C_8
REMARK                            x       y       z     vdW  Elec       q    Type
REMARK                         _______ _______ _______ _____ _____    ______ ____
ROOT
ATOM      1  O   UNL     1       2.468   8.909  17.079  0.00  0.00    +0.000 OA
ATOM      2  C   UNL     1       2.096   8.780  18.245  0.00  0.00    +0.000 C 
ATOM      3  N   UNL     1       2.111   7.555  18.910  0.00  0.00    +0.000 N 
ATOM      4  C   UNL     1       1.587   7.420  20.270  0.00  0.00    +0.000 C 
ATOM      5  C   UNL     1       1.955   6.133  20.988  0.00  0.00    +0.000 C 
ATOM      6  C   UNL     1       1.700   4.958  20.090  0.00  0.00    +0.000 A 
ATOM      7  C   UNL     1       1.152   3.767  20.570  0.00  0.00    +0.000 A 
ATOM      8  C   UNL     1       0.942   2.701  19.697  0.00  0.00    +0.000 A 
ATOM      9  C   UNL     1       1.292   2.817  18.351  0.00  0.00    +0.000 A 
ATOM     10  C   UNL     1       1.856   4.001  17.871  0.00  0.00    +0.000 A 
ATOM     11  C   UNL     1       2.054   5.084  18.734  0.00  0.00    +0.000 A 
ATOM     12  C   UNL     1       2.694   6.372  18.267  0.00  0.00    +0.000 C 
ENDROOT
BRANCH   2  13
ATOM     13  C   UNL     1       1.637   9.978  19.083  0.00  0.00    +0.000 C 
BRANCH  13  14
ATOM     14  N   UNL     1       1.107  11.084  18.282  0.00  0.00    +0.000 NA
ATOM     15  H   UNL     1       0.984  10.849  17.297  0.00  0.00    +0.000 HD
BRANCH  14  16
ATOM     16  S   UNL     1      -0.274  11.805  18.920  0.00  0.00    +0.000 S 
ATOM     17  O   UNL     1      -0.348  11.442  20.316  0.00  0.00    +0.000 OA
ATOM     18  O   UNL     1      -0.282  13.183  18.490  0.00  0.00    +0.000 OA
BRANCH  16  19
ATOM     19  C   UNL     1      -1.684  11.074  18.124  0.00  0.00    +0.000 A 
ATOM     20  C   UNL     1      -1.806  10.038  17.216  0.00  0.00    +0.000 A 
ATOM     21  C   UNL     1      -3.164   9.775  16.873  0.00  0.00    +0.000 A 
ATOM     22  C   UNL     1      -4.032  10.616  17.533  0.00  0.00    +0.000 A 
ATOM     23  S   UNL     1      -3.210  11.713  18.557  0.00  0.00    +0.000 S 
ENDBRANCH  16  19
ENDBRANCH  14  16
ENDBRANCH  13  14
ENDBRANCH   2  13
TORSDOF 4
ENDMDL
MODEL 4
REMARK VINA RESULT:      -6.7      2.282      3.472
REMARK  Name = 
REMARK  4 active torsions:
REMARK  status: ('A' for Active; 'I' for Inactive)
REMARK    1  A    between atoms: C_2  and  C_3
REMARK    2  A    between atoms: C_3  and  N_4
REMARK    3  A    between atoms: N_4  and  S_5
REMARK    4  A    between atoms: S_5  and  C_8
REMARK                            x       y       z     vdW  Elec       q    Type
REMARK                         _______ _______ _______ _____ _____    ______ ____
ROOT
ATOM      1  O   UNL     1       2.064   9.197  17.447  0.00  0.00    +0.000 OA
ATOM      2  C   UNL     1       1.951   8.629  18.532  0.00  0.00    +0.000 C 
ATOM      3  N   UNL     1       1.057   9.052  19.514  0.00  0.00    +0.000 N 
ATOM      4  C   UNL     1       1.003   8.404  20.826  0.00  0.00    +0.000 C 
ATOM      5  C   UNL     1      -0.215   8.736  21.672  0.00  0.00    +0.000 C 
ATOM      6  C   UNL     1      -0.434  10.220  21.687  0.00  0.00    +0.000 A 
ATOM      7  C   UNL     1      -0.822  10.897  22.845  0.00  0.00    +0.000 A 
ATOM      8  C   UNL     1      -1.020  12.276  22.807  0.00  0.00    +0.000 A 
ATOM      9  C   UNL     1      -0.848  12.977  21.612  0.00  0.00    +0.000 A 
ATOM     10  C   UNL     1      -0.476  12.301  20.448  0.00  0.00    +0.000 A 
ATOM     11  C   UNL     1      -0.255  10.920  20.479  0.00  0.00    +0.000 A 
ATOM     12  C   UNL     1       0.113  10.140  19.237  0.00  0.00    +0.000 C 
ENDROOT
BRANCH   2  13
ATOM     13  C   UNL     1       2.751   7.367  18.871  0.00  0.00    +0.000 C 
BRANCH  13  14
ATOM     14  N   UNL     1       3.421   6.770  17.711  0.00  0.00    +0.000 NA
ATOM     15  H   UNL     1       4.029   7.421  17.215  0.00  0.00    +0.000 HD
BRANCH  14  16
ATOM     16  S   UNL     1       4.206   5.317  18.034  0.00  0.00    +0.000 S 
ATOM     17  O   UNL     1       4.848   4.890  16.813  0.00  0.00    +0.000 OA
ATOM     18  O   UNL     1       4.944   5.487  19.263  0.00  0.00    +0.000 OA
BRANCH  16  19
ATOM     19  C   UNL     1       2.966   4.103  18.414  0.00  0.00    +0.000 A 
ATOM     20  C   UNL     1       1.652   3.959  18.008  0.00  0.00    +0.000 A 
ATOM     21  C   UNL     1       1.041   2.794  18.556  0.00  0.00    +0.000 A 
ATOM     22  C   UNL     1       1.910   2.087  19.358  0.00  0.00    +0.000 A 
ATOM     23  S   UNL     1       3.449   2.828  19.446  0.00  0.00    +0.000 S 
ENDBRANCH  16  19
ENDBRANCH  14  16
ENDBRANCH  13  14
ENDBRANCH   2  13
TORSDOF 4
ENDMDL
MODEL 5
REMARK VINA RESULT:      -6.6      1.736      3.299
REMARK  Name = 
REMARK  4 active torsions:
REMARK  status: ('A' for Active; 'I' for Inactive)
REMARK    1  A    between atoms: C_2  and  C_3
REMARK    2  A    between atoms: C_3  and  N_4
REMARK    3  A    between atoms: N_4  and  S_5
REMARK    4  A    between atoms: S_5  and  C_8
REMARK                            x       y       z     vdW  Elec       q    Type
REMARK                         _______ _______ _______ _____ _____    ______ ____
ROOT
ATOM      1  O   UNL     1       1.209   4.289  20.866  0.00  0.00    +0.000 OA
ATOM      2  C   UNL     1       1.516   4.627  19.724  0.00  0.00    +0.000 C 
ATOM      3  N   UNL     1       1.829   5.943  19.387  0.00  0.00    +0.000 N 
ATOM      4  C   UNL     1       2.112   6.329  18.003  0.00  0.00    +0.000 C 
ATOM      5  C   UNL     1       2.748   7.697  17.821  0.00  0.00    +0.000 C 
ATOM      6  C   UNL     1       1.997   8.717  18.624  0.00  0.00    +0.000 A 
ATOM      7  C   UNL     1       1.737   9.999  18.132  0.00  0.00    +0.000 A 
ATOM      8  C   UNL     1       1.042  10.914  18.919  0.00  0.00    +0.000 A 
ATOM      9  C   UNL     1       0.620  10.559  20.201  0.00  0.00    +0.000 A 
ATOM     10  C   UNL     1       0.892   9.285  20.703  0.00  0.00    +0.000 A 
ATOM     11  C   UNL     1       1.572   8.351  19.915  0.00  0.00    +0.000 A 
ATOM     12  C   UNL     1       1.920   6.972  20.429  0.00  0.00    +0.000 C 
ENDROOT
BRANCH   2  13
ATOM     13  C   UNL     1       1.636   3.611  18.584  0.00  0.00    +0.000 C 
BRANCH  13  14
ATOM     14  N   UNL     1       2.082   2.286  19.026  0.00  0.00    +0.000 NA
ATOM     15  H   UNL     1       1.650   1.520  18.509  0.00  0.00    +0.000 HD
BRANCH  14  16
ATOM     16  S   UNL     1       3.753   2.108  19.112  0.00  0.00    +0.000 S 
ATOM     17  O   UNL     1       4.146   2.344  20.482  0.00  0.00    +0.000 OA
ATOM     18  O   UNL     1       4.095   0.888  18.421  0.00  0.00    +0.000 OA
BRANCH  16  19
ATOM     19  C   UNL     1       4.486   3.402  18.138  0.00  0.00    +0.000 A 
ATOM     20  C   UNL     1       4.470   3.667  16.781  0.00  0.00    +0.000 A 
ATOM     21  C   UNL     1       5.186   4.854  16.453  0.00  0.00    +0.000 A 
ATOM     22  C   UNL     1       5.720   5.458  17.570  0.00  0.00    +0.000 A 
ATOM     23  S   UNL     1       5.358   4.593  19.001  0.00  0.00    +0.000 S 
ENDBRANCH  16  19
ENDBRANCH  14  16
ENDBRANCH  13  14
ENDBRANCH   2  13
TORSDOF 4
ENDMDL
MODEL 6
REMARK VINA RESULT:      -6.6      2.323      3.896
REMARK  Name = 
REMARK  4 active torsions:
REMARK  status: ('A' for Active; 'I' for Inactive)
REMARK    1  A    between atoms: C_2  and  C_3
REMARK    2  A    between atoms: C_3  and  N_4
REMARK    3  A    between atoms: N_4  and  S_5
REMARK    4  A    between atoms: S_5  and  C_8
REMARK                            x       y       z     vdW  Elec       q    Type
REMARK                         _______ _______ _______ _____ _____    ______ ____
ROOT
ATOM      1  O   UNL     1       3.069   7.457  17.853  0.00  0.00    +0.000 OA
ATOM      2  C   UNL     1       2.618   7.268  18.982  0.00  0.00    +0.000 C 
ATOM      3  N   UNL     1       1.720   8.143  19.590  0.00  0.00    +0.000 N 
ATOM      4  C   UNL     1       1.263   7.933  20.965  0.00  0.00    +0.000 C 
ATOM      5  C   UNL     1       0.058   8.755  21.388  0.00  0.00    +0.000 C 
ATOM      6  C   UNL     1       0.259  10.190  20.998  0.00  0.00    +0.000 A 
ATOM      7  C   UNL     1      -0.121  11.242  21.835  0.00  0.00    +0.000 A 
ATOM      8  C   UNL     1       0.080  12.559  21.424  0.00  0.00    +0.000 A 
ATOM      9  C   UNL     1       0.644  12.826  20.176  0.00  0.00    +0.000 A 
ATOM     10  C   UNL     1       1.009  11.777  19.330  0.00  0.00    +0.000 A 
ATOM     11  C   UNL     1       0.831  10.451  19.739  0.00  0.00    +0.000 A 
ATOM     12  C   UNL     1       1.177   9.284  18.843  0.00  0.00    +0.000 C 
ENDROOT
BRANCH   2  13
ATOM     13  C   UNL     1       2.966   6.015  19.792  0.00  0.00    +0.000 C 
BRANCH  13  14
ATOM     14  N   UNL     1       3.315   4.859  18.961  0.00  0.00    +0.000 NA
ATOM     15  H   UNL     1       2.965   4.926  18.006  0.00  0.00    +0.000 HD
BRANCH  14  16
ATOM     16  S   UNL     1       4.947   4.448  18.992  0.00  0.00    +0.000 S 
ATOM     17  O   UNL     1       5.655   5.529  19.638  0.00  0.00    +0.000 OA
ATOM     18  O   UNL     1       5.043   3.087  19.461  0.00  0.00    +0.000 OA
BRANCH  16  19
ATOM     19  C   UNL     1       5.523   4.391  17.312  0.00  0.00    +0.000 A 
ATOM     20  C   UNL     1       4.872   4.158  16.114  0.00  0.00    +0.000 A 
ATOM     21  C   UNL     1       5.752   4.241  14.995  0.00  0.00    +0.000 A 
ATOM     22  C   UNL     1       7.042   4.538  15.377  0.00  0.00    +0.000 A 
ATOM     23  S   UNL     1       7.185   4.713  17.072  0.00  0.00    +0.000 S 
ENDBRANCH  16  19
ENDBRANCH  14  16
ENDBRANCH  13  14
ENDBRANCH   2  13
TORSDOF 4
ENDMDL
MODEL 7
REMARK VINA RESULT:      -6.6      4.534      7.416
REMARK  Name = 
REMARK  4 active torsions:
REMARK  status: ('A' for Active; 'I' for Inactive)
REMARK    1  A    between atoms: C_2  and  C_3
REMARK    2  A    between atoms: C_3  and  N_4
REMARK    3  A    between atoms: N_4  and  S_5
REMARK    4  A    between atoms: S_5  and  C_8
REMARK                            x       y       z     vdW  Elec       q    Type
REMARK                         _______ _______ _______ _____ _____    ______ ____
ROOT
ATOM      1  O   UNL     1       2.964   8.439  16.784  0.00  0.00    +0.000 OA
ATOM      2  C   UNL     1       2.425   8.420  17.890  0.00  0.00    +0.000 C 
ATOM      3  N   UNL     1       2.327   7.262  18.661  0.00  0.00    +0.000 N 
ATOM      4  C   UNL     1       1.609   7.254  19.936  0.00  0.00    +0.000 C 
ATOM      5  C   UNL     1       1.852   6.040  20.817  0.00  0.00    +0.000 C 
ATOM      6  C   UNL     1       1.717   4.787  20.005  0.00  0.00    +0.000 A 
ATOM      7  C   UNL     1       1.089   3.645  20.508  0.00  0.00    +0.000 A 
ATOM      8  C   UNL     1       0.994   2.502  19.716  0.00  0.00    +0.000 A 
ATOM      9  C   UNL     1       1.538   2.492  18.431  0.00  0.00    +0.000 A 
ATOM     10  C   UNL     1       2.181   3.626  17.930  0.00  0.00    +0.000 A 
ATOM     11  C   UNL     1       2.265   4.786  18.708  0.00  0.00    +0.000 A 
ATOM     12  C   UNL     1       2.983   6.024  18.223  0.00  0.00    +0.000 C 
ENDROOT
BRANCH   2  13
ATOM     13  C   UNL     1       1.864   9.690  18.538  0.00  0.00    +0.000 C 
BRANCH  13  14
ATOM     14  N   UNL     1       0.594  10.132  17.954  0.00  0.00    +0.000 NA
ATOM     15  H   UNL     1       0.118   9.405  17.421  0.00  0.00    +0.000 HD
BRANCH  14  16
ATOM     16  S   UNL     1      -0.448  10.880  19.044  0.00  0.00    +0.000 S 
ATOM     17  O   UNL     1      -0.604   9.993  20.174  0.00  0.00    +0.000 OA
ATOM     18  O   UNL     1      -0.005  12.244  19.203  0.00  0.00    +0.000 OA
BRANCH  16  19
ATOM     19  C   UNL     1      -2.042  11.008  18.269  0.00  0.00    +0.000 A 
ATOM     20  C   UNL     1      -3.190  11.698  18.613  0.00  0.00    +0.000 A 
ATOM     21  C   UNL     1      -4.233  11.524  17.657  0.00  0.00    +0.000 A 
ATOM     22  C   UNL     1      -3.844  10.710  16.615  0.00  0.00    +0.000 A 
ATOM     23  S   UNL     1      -2.233  10.164  16.794  0.00  0.00    +0.000 S 
ENDBRANCH  16  19
ENDBRANCH  14  16
ENDBRANCH  13  14
ENDBRANCH   2  13
TORSDOF 4
ENDMDL
MODEL 8
REMARK VINA RESULT:      -6.6      2.310      3.430
REMARK  Name = 
REMARK  4 active torsions:
REMARK  status: ('A' for Active; 'I' for Inactive)
REMARK    1  A    between atoms: C_2  and  C_3
REMARK    2  A    between atoms: C_3  and  N_4
REMARK    3  A    between atoms: N_4  and  S_5
REMARK    4  A    between atoms: S_5  and  C_8
REMARK                            x       y       z     vdW  Elec       q    Type
REMARK                         _______ _______ _______ _____ _____    ______ ____
ROOT
ATOM      1  O   UNL     1       1.969   9.217  17.412  0.00  0.00    +0.000 OA
ATOM      2  C   UNL     1       1.926   8.638  18.497  0.00  0.00    +0.000 C 
ATOM      3  N   UNL     1       1.044   9.005  19.512  0.00  0.00    +0.000 N 
ATOM      4  C   UNL     1       1.072   8.349  20.820  0.00  0.00    +0.000 C 
ATOM      5  C   UNL     1      -0.132   8.608  21.709  0.00  0.00    +0.000 C 
ATOM      6  C   UNL     1      -0.432  10.078  21.743  0.00  0.00    +0.000 A 
ATOM      7  C   UNL     1      -0.816  10.726  22.919  0.00  0.00    +0.000 A 
ATOM      8  C   UNL     1      -1.091  12.092  22.897  0.00  0.00    +0.000 A 
ATOM      9  C   UNL     1      -0.999  12.808  21.702  0.00  0.00    +0.000 A 
ATOM     10  C   UNL     1      -0.631  12.160  20.521  0.00  0.00    +0.000 A 
ATOM     11  C   UNL     1      -0.334  10.793  20.535  0.00  0.00    +0.000 A 
ATOM     12  C   UNL     1       0.033  10.042  19.275  0.00  0.00    +0.000 C 
ENDROOT
BRANCH   2  13
ATOM     13  C   UNL     1       2.805   7.420  18.799  0.00  0.00    +0.000 C 
BRANCH  13  14
ATOM     14  N   UNL     1       2.342   6.189  18.150  0.00  0.00    +0.000 NA
ATOM     15  H   UNL     1       2.054   6.325  17.182  0.00  0.00    +0.000 HD
BRANCH  14  16
ATOM     16  S   UNL     1       3.395   4.885  18.303  0.00  0.00    +0.000 S 
ATOM     17  O   UNL     1       3.249   4.068  17.121  0.00  0.00    +0.000 OA
ATOM     18  O   UNL     1       4.676   5.408  18.714  0.00  0.00    +0.000 OA
BRANCH  16  19
ATOM     19  C   UNL     1       2.844   3.902  19.677  0.00  0.00    +0.000 A 
ATOM     20  C   UNL     1       3.455   2.897  20.405  0.00  0.00    +0.000 A 
ATOM     21  C   UNL     1       2.625   2.410  21.457  0.00  0.00    +0.000 A 
ATOM     22  C   UNL     1       1.412   3.062  21.498  0.00  0.00    +0.000 A 
ATOM     23  S   UNL     1       1.281   4.252  20.276  0.00  0.00    +0.000 S 
ENDBRANCH  16  19
ENDBRANCH  14  16
ENDBRANCH  13  14
ENDBRANCH   2  13
TORSDOF 4
ENDMDL
MODEL 9
REMARK VINA RESULT:      -6.5      2.136      3.711
REMARK  Name = 
REMARK  4 active torsions:
REMARK  status: ('A' for Active; 'I' for Inactive)
REMARK    1  A    between atoms: C_2  and  C_3
REMARK    2  A    between atoms: C_3  and  N_4
REMARK    3  A    between atoms: N_4  and  S_5
REMARK    4  A    between atoms: S_5  and  C_8
REMARK                            x       y       z     vdW  Elec       q    Type
REMARK                         _______ _______ _______ _____ _____    ______ ____
ROOT
ATOM      1  O   UNL     1       3.306   7.179  17.573  0.00  0.00    +0.000 OA
ATOM      2  C   UNL     1       2.737   7.216  18.663  0.00  0.00    +0.000 C 
ATOM      3  N   UNL     1       1.964   8.302  19.073  0.00  0.00    +0.000 N 
ATOM      4  C   UNL     1       1.366   8.351  20.408  0.00  0.00    +0.000 C 
ATOM      5  C   UNL     1       0.298   9.413  20.609  0.00  0.00    +0.000 C 
ATOM      6  C   UNL     1       0.785  10.730  20.082  0.00  0.00    +0.000 A 
ATOM      7  C   UNL     1       0.534  11.931  20.750  0.00  0.00    +0.000 A 
ATOM      8  C   UNL     1       1.001  13.130  20.216  0.00  0.00    +0.000 A 
ATOM      9  C   UNL     1       1.703  13.135  19.010  0.00  0.00    +0.000 A 
ATOM     10  C   UNL     1       1.942  11.939  18.331  0.00  0.00    +0.000 A 
ATOM     11  C   UNL     1       1.495  10.726  18.867  0.00  0.00    +0.000 A 
ATOM     12  C   UNL     1       1.698   9.411  18.150  0.00  0.00    +0.000 C 
ENDROOT
BRANCH   2  13
ATOM     13  C   UNL     1       2.788   6.039  19.642  0.00  0.00    +0.000 C 
BRANCH  13  14
ATOM     14  N   UNL     1       4.111   5.415  19.739  0.00  0.00    +0.000 NA
ATOM     15  H   UNL     1       4.456   5.342  20.696  0.00  0.00    +0.000 HD
BRANCH  14  16
ATOM     16  S   UNL     1       4.249   3.950  18.921  0.00  0.00    +0.000 S 
ATOM     17  O   UNL     1       5.036   3.064  19.748  0.00  0.00    +0.000 OA
ATOM     18  O   UNL     1       2.933   3.587  18.455  0.00  0.00    +0.000 OA
BRANCH  16  19
ATOM     19  C   UNL     1       5.190   4.242  17.443  0.00  0.00    +0.000 A 
ATOM     20  C   UNL     1       4.866   4.151  16.101  0.00  0.00    +0.000 A 
ATOM     21  C   UNL     1       5.954   4.517  15.256  0.00  0.00    +0.000 A 
ATOM     22  C   UNL     1       7.069   4.878  15.979  0.00  0.00    +0.000 A 
ATOM     23  S   UNL     1       6.800   4.775  17.666  0.00  0.00    +0.000 S 
ENDBRANCH  16  19
ENDBRANCH  14  16
ENDBRANCH  13  14
ENDBRANCH   2  13
TORSDOF 4
ENDMDL
