MODEL 1
REMARK VINA RESULT:      -7.2      0.000      0.000
REMARK  Name = 
REMARK  6 active torsions:
REMARK  status: ('A' for Active; 'I' for Inactive)
REMARK    1  A    between atoms: C_1  and  C_2
REMARK    2  A    between atoms: N_7  and  C_8
REMARK    3  A    between atoms: C_8  and  C_9
REMARK    4  A    between atoms: C_9  and  C_10
REMARK    5  A    between atoms: C_10  and  N_11
REMARK    6  A    between atoms: C_12  and  C_14
REMARK                            x       y       z     vdW  Elec       q    Type
REMARK                         _______ _______ _______ _____ _____    ______ ____
ROOT
ATOM      1  C   UNL     1       5.565   5.265  19.029  0.00  0.00    +0.000 C 
ENDROOT
BRANCH   1   2
ATOM      2  N   UNL     1       5.785   5.158  17.605  0.00  0.00    +0.000 N 
ATOM      3  C   UNL     1       6.966   4.706  17.061  0.00  0.00    +0.000 C 
ATOM      4  O   UNL     1       7.941   4.370  17.728  0.00  0.00    +0.000 OA
ATOM      5  H   UNL     1       5.040   5.353  16.943  0.00  0.00    +0.000 HD
BRANCH   3   6
ATOM      6  C   UNL     1       6.955   4.664  15.590  0.00  0.00    +0.000 A 
ATOM      7  C   UNL     1       6.169   3.809  14.773  0.00  0.00    +0.000 A 
ATOM      8  C   UNL     1       6.501   4.127  13.483  0.00  0.00    +0.000 A 
ATOM      9  N   UNL     1       7.432   5.117  13.569  0.00  0.00    +0.000 N 
ATOM     10  N   UNL     1       7.727   5.473  14.833  0.00  0.00    +0.000 NA
ATOM     11  H   UNL     1       7.907   5.594  12.810  0.00  0.00    +0.000 HD
ENDBRANCH   3   6
ENDBRANCH   1   2
BRANCH   1  12
ATOM     12  C   UNL     1       4.267   6.003  19.337  0.00  0.00    +0.000 C 
BRANCH  12  13
ATOM     13  C   UNL     1       3.215   5.090  19.980  0.00  0.00    +0.000 C 
BRANCH  13  20
ATOM     14  C   UNL     1       3.324   1.971  17.835  0.00  0.00    +0.000 C 
ATOM     15  C   UNL     1       2.804   3.327  18.340  0.00  0.00    +0.000 C 
ATOM     16  C   UNL     1       1.264   3.371  18.321  0.00  0.00    +0.000 C 
ATOM     17  C   UNL     1       0.642   2.516  19.424  0.00  0.00    +0.000 C 
ATOM     18  C   UNL     1       1.274   2.803  20.782  0.00  0.00    +0.000 C 
ATOM     19  C   UNL     1       2.801   2.779  20.717  0.00  0.00    +0.000 C 
ATOM     20  N   UNL     1       3.367   3.652  19.673  0.00  0.00    +0.000 NA
ENDBRANCH  13  20
ENDBRANCH  12  13
ENDBRANCH   1  12
TORSDOF 5
ENDMDL
MODEL 2
REMARK VINA RESULT:      -7.0      0.943      1.926
REMARK  Name = 
REMARK  6 active torsions:
REMARK  status: ('A' for Active; 'I' for Inactive)
REMARK    1  A    between atoms: C_1  and  C_2
REMARK    2  A    between atoms: N_7  and  C_8
REMARK    3  A    between atoms: C_8  and  C_9
REMARK    4  A    between atoms: C_9  and  C_10
REMARK    5  A    between atoms: C_10  and  N_11
REMARK    6  A    between atoms: C_12  and  C_14
REMARK                            x       y       z     vdW  Elec       q    Type
REMARK                         _______ _______ _______ _____ _____    ______ ____
ROOT
ATOM      1  C   UNL     1       5.753   5.464  18.638  0.00  0.00    +0.000 C 
ENDROOT
BRANCH   1   2
ATOM      2  N   UNL     1       5.935   5.318  17.212  0.00  0.00    +0.000 N 
ATOM      3  C   UNL     1       7.060   4.756  16.653  0.00  0.00    +0.000 C 
ATOM      4  O   UNL     1       8.015   4.345  17.307  0.00  0.00    +0.000 OA
ATOM      5  H   UNL     1       5.197   5.568  16.561  0.00  0.00    +0.000 HD
BRANCH   3   6
ATOM      6  C   UNL     1       7.017   4.694  15.183  0.00  0.00    +0.000 A 
ATOM      7  C   UNL     1       6.229   3.814  14.396  0.00  0.00    +0.000 A 
ATOM      8  C   UNL     1       6.525   4.121  13.094  0.00  0.00    +0.000 A 
ATOM      9  N   UNL     1       7.439   5.130  13.147  0.00  0.00    +0.000 N 
ATOM     10  N   UNL     1       7.756   5.508  14.398  0.00  0.00    +0.000 NA
ATOM     11  H   UNL     1       7.886   5.606  12.371  0.00  0.00    +0.000 HD
ENDBRANCH   3   6
ENDBRANCH   1   2
BRANCH   1  12
ATOM     12  C   UNL     1       5.547   4.113  19.313  0.00  0.00    +0.000 C 
BRANCH  12  13
ATOM     13  C   UNL     1       4.159   3.523  19.026  0.00  0.00    +0.000 C 
BRANCH  13  20
ATOM     14  C   UNL     1       1.724   6.014  20.515  0.00  0.00    +0.000 C 
ATOM     15  C   UNL     1       2.553   4.721  20.424  0.00  0.00    +0.000 C 
ATOM     16  C   UNL     1       1.761   3.517  20.966  0.00  0.00    +0.000 C 
ATOM     17  C   UNL     1       0.643   3.080  20.022  0.00  0.00    +0.000 C 
ATOM     18  C   UNL     1       1.144   2.925  18.590  0.00  0.00    +0.000 C 
ATOM     19  C   UNL     1       1.951   4.140  18.133  0.00  0.00    +0.000 C 
ATOM     20  N   UNL     1       3.051   4.501  19.044  0.00  0.00    +0.000 NA
ENDBRANCH  13  20
ENDBRANCH  12  13
ENDBRANCH   1  12
TORSDOF 5
ENDMDL
MODEL 3
REMARK VINA RESULT:      -7.0      1.255      1.987
REMARK  Name = 
REMARK  6 active torsions:
REMARK  status: ('A' for Active; 'I' for Inactive)
REMARK    1  A    between atoms: C_1  and  C_2
REMARK    2  A    between atoms: N_7  and  C_8
REMARK    3  A    between atoms: C_8  and  C_9
REMARK    4  A    between atoms: C_9  and  C_10
REMARK    5  A    between atoms: C_10  and  N_11
REMARK    6  A    between atoms: C_12  and  C_14
REMARK                            x       y       z     vdW  Elec       q    Type
REMARK                         _______ _______ _______ _____ _____    ______ ____
ROOT
ATOM      1  C   UNL     1       6.813   4.582  18.240  0.00  0.00    +0.000 C 
ENDROOT
BRANCH   1   2
ATOM      2  N   UNL     1       6.849   4.348  16.814  0.00  0.00    +0.000 N 
ATOM      3  C   UNL     1       6.902   5.365  15.888  0.00  0.00    +0.000 C 
ATOM      4  O   UNL     1       6.907   6.557  16.184  0.00  0.00    +0.000 OA
ATOM      5  H   UNL     1       6.904   3.405  16.438  0.00  0.00    +0.000 HD
BRANCH   3   6
ATOM      6  C   UNL     1       6.950   4.889  14.497  0.00  0.00    +0.000 A 
ATOM      7  C   UNL     1       6.146   3.870  13.923  0.00  0.00    +0.000 A 
ATOM      8  C   UNL     1       6.551   3.773  12.618  0.00  0.00    +0.000 A 
ATOM      9  N   UNL     1       7.539   4.699  12.464  0.00  0.00    +0.000 N 
ATOM     10  N   UNL     1       7.803   5.399  13.582  0.00  0.00    +0.000 NA
ATOM     11  H   UNL     1       8.074   4.906  11.627  0.00  0.00    +0.000 HD
ENDBRANCH   3   6
ENDBRANCH   1   2
BRANCH   1  12
ATOM     12  C   UNL     1       5.410   4.952  18.707  0.00  0.00    +0.000 C 
BRANCH  12  13
ATOM     13  C   UNL     1       4.584   3.722  19.106  0.00  0.00    +0.000 C 
BRANCH  13  20
ATOM     14  C   UNL     1       1.802   3.028  21.580  0.00  0.00    +0.000 C 
ATOM     15  C   UNL     1       2.746   2.760  20.396  0.00  0.00    +0.000 C 
ATOM     16  C   UNL     1       2.013   2.026  19.258  0.00  0.00    +0.000 C 
ATOM     17  C   UNL     1       1.038   2.933  18.510  0.00  0.00    +0.000 C 
ATOM     18  C   UNL     1       1.694   4.250  18.105  0.00  0.00    +0.000 C 
ATOM     19  C   UNL     1       2.432   4.902  19.273  0.00  0.00    +0.000 C 
ATOM     20  N   UNL     1       3.399   4.012  19.939  0.00  0.00    +0.000 NA
ENDBRANCH  13  20
ENDBRANCH  12  13
ENDBRANCH   1  12
TORSDOF 5
ENDMDL
MODEL 4
REMARK VINA RESULT:      -6.9      1.203      1.537
REMARK  Name = 
REMARK  6 active torsions:
REMARK  status: ('A' for Active; 'I' for Inactive)
REMARK    1  A    between atoms: C_1  and  C_2
REMARK    2  A    between atoms: N_7  and  C_8
REMARK    3  A    between atoms: C_8  and  C_9
REMARK    4  A    between atoms: C_9  and  C_10
REMARK    5  A    between atoms: C_10  and  N_11
REMARK    6  A    between atoms: C_12  and  C_14
REMARK                            x       y       z     vdW  Elec       q    Type
REMARK                         _______ _______ _______ _____ _____    ______ ____
ROOT
ATOM      1  C   UNL     1       6.420   5.308  18.817  0.00  0.00    +0.000 C 
ENDROOT
BRANCH   1   2
ATOM      2  N   UNL     1       6.412   4.907  17.429  0.00  0.00    +0.000 N 
ATOM      3  C   UNL     1       7.004   5.647  16.431  0.00  0.00    +0.000 C 
ATOM      4  O   UNL     1       7.576   6.717  16.623  0.00  0.00    +0.000 OA
ATOM      5  H   UNL     1       6.018   4.015  17.143  0.00  0.00    +0.000 HD
BRANCH   3   6
ATOM      6  C   UNL     1       6.886   5.035  15.098  0.00  0.00    +0.000 A 
ATOM      7  C   UNL     1       6.040   3.954  14.735  0.00  0.00    +0.000 A 
ATOM      8  C   UNL     1       6.278   3.732  13.405  0.00  0.00    +0.000 A 
ATOM      9  N   UNL     1       7.215   4.649  13.035  0.00  0.00    +0.000 N 
ATOM     10  N   UNL     1       7.603   5.461  14.035  0.00  0.00    +0.000 NA
ATOM     11  H   UNL     1       7.635   4.777  12.120  0.00  0.00    +0.000 HD
ENDBRANCH   3   6
ENDBRANCH   1   2
BRANCH   1  12
ATOM     12  C   UNL     1       5.054   5.103  19.463  0.00  0.00    +0.000 C 
BRANCH  12  13
ATOM     13  C   UNL     1       4.610   3.635  19.435  0.00  0.00    +0.000 C 
BRANCH  13  20
ATOM     14  C   UNL     1       1.399   4.491  17.617  0.00  0.00    +0.000 C 
ATOM     15  C   UNL     1       2.503   4.615  18.681  0.00  0.00    +0.000 C 
ATOM     16  C   UNL     1       1.911   4.995  20.051  0.00  0.00    +0.000 C 
ATOM     17  C   UNL     1       1.161   3.837  20.705  0.00  0.00    +0.000 C 
ATOM     18  C   UNL     1       1.987   2.555  20.698  0.00  0.00    +0.000 C 
ATOM     19  C   UNL     1       2.572   2.261  19.317  0.00  0.00    +0.000 C 
ATOM     20  N   UNL     1       3.330   3.385  18.739  0.00  0.00    +0.000 NA
ENDBRANCH  13  20
ENDBRANCH  12  13
ENDBRANCH   1  12
TORSDOF 5
ENDMDL
MODEL 5
REMARK VINA RESULT:      -6.9      0.955      1.710
REMARK  Name = 
REMARK  6 active torsions:
REMARK  status: ('A' for Active; 'I' for Inactive)
REMARK    1  A    between atoms: C_1  and  C_2
REMARK    2  A    between atoms: N_7  and  C_8
REMARK    3  A    between atoms: C_8  and  C_9
REMARK    4  A    between atoms: C_9  and  C_10
REMARK    5  A    between atoms: C_10  and  N_11
REMARK    6  A    between atoms: C_12  and  C_14
REMARK                            x       y       z     vdW  Elec       q    Type
REMARK                         _______ _______ _______ _____ _____    ______ ____
ROOT
ATOM      1  C   UNL     1       6.507   6.030  18.626  0.00  0.00    +0.000 C 
ENDROOT
BRANCH   1   2
ATOM      2  N   UNL     1       6.440   5.705  17.219  0.00  0.00    +0.000 N 
ATOM      3  C   UNL     1       7.279   4.794  16.619  0.00  0.00    +0.000 C 
ATOM      4  O   UNL     1       8.166   4.188  17.214  0.00  0.00    +0.000 OA
ATOM      5  H   UNL     1       5.714   6.095  16.625  0.00  0.00    +0.000 HD
BRANCH   3   6
ATOM      6  C   UNL     1       7.013   4.610  15.183  0.00  0.00    +0.000 A 
ATOM      7  C   UNL     1       6.084   3.707  14.603  0.00  0.00    +0.000 A 
ATOM      8  C   UNL     1       6.194   3.887  13.249  0.00  0.00    +0.000 A 
ATOM      9  N   UNL     1       7.143   4.848  13.076  0.00  0.00    +0.000 N 
ATOM     10  N   UNL     1       7.658   5.315  14.228  0.00  0.00    +0.000 NA
ATOM     11  H   UNL     1       7.488   5.233  12.203  0.00  0.00    +0.000 HD
ENDBRANCH   3   6
ENDBRANCH   1   2
BRANCH   1  12
ATOM     12  C   UNL     1       5.689   5.053  19.462  0.00  0.00    +0.000 C 
BRANCH  12  13
ATOM     13  C   UNL     1       4.363   4.677  18.788  0.00  0.00    +0.000 C 
BRANCH  13  20
ATOM     14  C   UNL     1       2.285   2.993  21.470  0.00  0.00    +0.000 C 
ATOM     15  C   UNL     1       3.167   3.094  20.214  0.00  0.00    +0.000 C 
ATOM     16  C   UNL     1       2.709   2.097  19.134  0.00  0.00    +0.000 C 
ATOM     17  C   UNL     1       1.399   2.516  18.469  0.00  0.00    +0.000 C 
ATOM     18  C   UNL     1       1.438   3.973  18.020  0.00  0.00    +0.000 C 
ATOM     19  C   UNL     1       1.936   4.899  19.129  0.00  0.00    +0.000 C 
ATOM     20  N   UNL     1       3.226   4.490  19.713  0.00  0.00    +0.000 NA
ENDBRANCH  13  20
ENDBRANCH  12  13
ENDBRANCH   1  12
TORSDOF 5
ENDMDL
MODEL 6
REMARK VINA RESULT:      -6.9      1.556      1.742
REMARK  Name = 
REMARK  6 active torsions:
REMARK  status: ('A' for Active; 'I' for Inactive)
REMARK    1  A    between atoms: C_1  and  C_2
REMARK    2  A    between atoms: N_7  and  C_8
REMARK    3  A    between atoms: C_8  and  C_9
REMARK    4  A    between atoms: C_9  and  C_10
REMARK    5  A    between atoms: C_10  and  N_11
REMARK    6  A    between atoms: C_12  and  C_14
REMARK                            x       y       z     vdW  Elec       q    Type
REMARK                         _______ _______ _______ _____ _____    ______ ____
ROOT
ATOM      1  C   UNL     1       3.435   7.599  17.795  0.00  0.00    +0.000 C 
ENDROOT
BRANCH   1   2
ATOM      2  N   UNL     1       4.228   6.845  16.850  0.00  0.00    +0.000 N 
ATOM      3  C   UNL     1       5.475   6.345  17.149  0.00  0.00    +0.000 C 
ATOM      4  O   UNL     1       6.033   6.503  18.232  0.00  0.00    +0.000 OA
ATOM      5  H   UNL     1       3.859   6.597  15.937  0.00  0.00    +0.000 HD
BRANCH   3   6
ATOM      6  C   UNL     1       6.086   5.595  16.040  0.00  0.00    +0.000 A 
ATOM      7  C   UNL     1       5.490   4.540  15.301  0.00  0.00    +0.000 A 
ATOM      8  C   UNL     1       6.433   4.153  14.386  0.00  0.00    +0.000 A 
ATOM      9  N   UNL     1       7.513   4.956  14.601  0.00  0.00    +0.000 N 
ATOM     10  N   UNL     1       7.336   5.847  15.593  0.00  0.00    +0.000 NA
ATOM     11  H   UNL     1       8.400   4.951  14.110  0.00  0.00    +0.000 HD
ENDBRANCH   3   6
ENDBRANCH   1   2
BRANCH   1  12
ATOM     12  C   UNL     1       2.567   6.681  18.648  0.00  0.00    +0.000 C 
BRANCH  12  13
ATOM     13  C   UNL     1       2.261   5.350  17.949  0.00  0.00    +0.000 C 
BRANCH  13  20
ATOM     14  C   UNL     1       3.304   1.721  18.251  0.00  0.00    +0.000 C 
ATOM     15  C   UNL     1       2.346   2.912  18.070  0.00  0.00    +0.000 C 
ATOM     16  C   UNL     1       1.009   2.660  18.789  0.00  0.00    +0.000 C 
ATOM     17  C   UNL     1       1.134   2.759  20.308  0.00  0.00    +0.000 C 
ATOM     18  C   UNL     1       1.859   4.033  20.731  0.00  0.00    +0.000 C 
ATOM     19  C   UNL     1       3.157   4.236  19.951  0.00  0.00    +0.000 C 
ATOM     20  N   UNL     1       2.989   4.182  18.488  0.00  0.00    +0.000 NA
ENDBRANCH  13  20
ENDBRANCH  12  13
ENDBRANCH   1  12
TORSDOF 5
ENDMDL
MODEL 7
REMARK VINA RESULT:      -6.9      1.138      1.267
REMARK  Name = 
REMARK  6 active torsions:
REMARK  status: ('A' for Active; 'I' for Inactive)
REMARK    1  A    between atoms: C_1  and  C_2
REMARK    2  A    between atoms: N_7  and  C_8
REMARK    3  A    between atoms: C_8  and  C_9
REMARK    4  A    between atoms: C_9  and  C_10
REMARK    5  A    between atoms: C_10  and  N_11
REMARK    6  A    between atoms: C_12  and  C_14
REMARK                            x       y       z     vdW  Elec       q    Type
REMARK                         _______ _______ _______ _____ _____    ______ ____
ROOT
ATOM      1  C   UNL     1       6.904   4.825  18.731  0.00  0.00    +0.000 C 
ENDROOT
BRANCH   1   2
ATOM      2  N   UNL     1       6.775   4.531  17.322  0.00  0.00    +0.000 N 
ATOM      3  C   UNL     1       7.134   5.420  16.334  0.00  0.00    +0.000 C 
ATOM      4  O   UNL     1       7.578   6.543  16.556  0.00  0.00    +0.000 OA
ATOM      5  H   UNL     1       6.471   3.615  17.003  0.00  0.00    +0.000 HD
BRANCH   3   6
ATOM      6  C   UNL     1       6.932   4.897  14.973  0.00  0.00    +0.000 A 
ATOM      7  C   UNL     1       5.996   3.906  14.577  0.00  0.00    +0.000 A 
ATOM      8  C   UNL     1       6.180   3.745  13.229  0.00  0.00    +0.000 A 
ATOM      9  N   UNL     1       7.175   4.608  12.882  0.00  0.00    +0.000 N 
ATOM     10  N   UNL     1       7.652   5.328  13.914  0.00  0.00    +0.000 NA
ATOM     11  H   UNL     1       7.579   4.758  11.963  0.00  0.00    +0.000 HD
ENDBRANCH   3   6
ENDBRANCH   1   2
BRANCH   1  12
ATOM     12  C   UNL     1       5.660   5.525  19.268  0.00  0.00    +0.000 C 
BRANCH  12  13
ATOM     13  C   UNL     1       4.395   5.151  18.483  0.00  0.00    +0.000 C 
BRANCH  13  20
ATOM     14  C   UNL     1       2.565   1.938  17.664  0.00  0.00    +0.000 C 
ATOM     15  C   UNL     1       2.777   3.456  17.796  0.00  0.00    +0.000 C 
ATOM     16  C   UNL     1       1.485   4.156  18.257  0.00  0.00    +0.000 C 
ATOM     17  C   UNL     1       1.169   3.890  19.727  0.00  0.00    +0.000 C 
ATOM     18  C   UNL     1       2.383   4.135  20.617  0.00  0.00    +0.000 C 
ATOM     19  C   UNL     1       3.634   3.441  20.080  0.00  0.00    +0.000 C 
ATOM     20  N   UNL     1       3.934   3.760  18.673  0.00  0.00    +0.000 NA
ENDBRANCH  13  20
ENDBRANCH  12  13
ENDBRANCH   1  12
TORSDOF 5
ENDMDL
MODEL 8
REMARK VINA RESULT:      -6.9      1.305      1.650
REMARK  Name = 
REMARK  6 active torsions:
REMARK  status: ('A' for Active; 'I' for Inactive)
REMARK    1  A    between atoms: C_1  and  C_2
REMARK    2  A    between atoms: N_7  and  C_8
REMARK    3  A    between atoms: C_8  and  C_9
REMARK    4  A    between atoms: C_9  and  C_10
REMARK    5  A    between atoms: C_10  and  N_11
REMARK    6  A    between atoms: C_12  and  C_14
REMARK                            x       y       z     vdW  Elec       q    Type
REMARK                         _______ _______ _______ _____ _____    ______ ____
ROOT
ATOM      1  C   UNL     1       5.825   6.437  17.444  0.00  0.00    +0.000 C 
ENDROOT
BRANCH   1   2
ATOM      2  N   UNL     1       6.059   6.016  16.082  0.00  0.00    +0.000 N 
ATOM      3  C   UNL     1       7.003   5.075  15.740  0.00  0.00    +0.000 C 
ATOM      4  O   UNL     1       7.740   4.521  16.551  0.00  0.00    +0.000 OA
ATOM      5  H   UNL     1       5.479   6.357  15.320  0.00  0.00    +0.000 HD
BRANCH   3   6
ATOM      6  C   UNL     1       7.051   4.790  14.296  0.00  0.00    +0.000 A 
ATOM      7  C   UNL     1       6.265   3.840  13.594  0.00  0.00    +0.000 A 
ATOM      8  C   UNL     1       6.663   3.928  12.287  0.00  0.00    +0.000 A 
ATOM      9  N   UNL     1       7.630   4.887  12.254  0.00  0.00    +0.000 N 
ATOM     10  N   UNL     1       7.887   5.437  13.455  0.00  0.00    +0.000 NA
ATOM     11  H   UNL     1       8.155   5.216  11.451  0.00  0.00    +0.000 HD
ENDBRANCH   3   6
ENDBRANCH   1   2
BRANCH   1  12
ATOM     12  C   UNL     1       4.334   6.539  17.746  0.00  0.00    +0.000 C 
BRANCH  12  13
ATOM     13  C   UNL     1       3.630   5.178  17.675  0.00  0.00    +0.000 C 
BRANCH  13  20
ATOM     14  C   UNL     1       4.441   2.262  19.952  0.00  0.00    +0.000 C 
ATOM     15  C   UNL     1       3.991   2.974  18.665  0.00  0.00    +0.000 C 
ATOM     16  C   UNL     1       2.837   2.213  17.987  0.00  0.00    +0.000 C 
ATOM     17  C   UNL     1       1.518   2.358  18.743  0.00  0.00    +0.000 C 
ATOM     18  C   UNL     1       1.217   3.815  19.075  0.00  0.00    +0.000 C 
ATOM     19  C   UNL     1       2.417   4.515  19.711  0.00  0.00    +0.000 C 
ATOM     20  N   UNL     1       3.660   4.396  18.929  0.00  0.00    +0.000 NA
ENDBRANCH  13  20
ENDBRANCH  12  13
ENDBRANCH   1  12
TORSDOF 5
ENDMDL
MODEL 9
REMARK VINA RESULT:      -6.8      1.260      1.576
REMARK  Name = 
REMARK  6 active torsions:
REMARK  status: ('A' for Active; 'I' for Inactive)
REMARK    1  A    between atoms: C_1  and  C_2
REMARK    2  A    between atoms: N_7  and  C_8
REMARK    3  A    between atoms: C_8  and  C_9
REMARK    4  A    between atoms: C_9  and  C_10
REMARK    5  A    between atoms: C_10  and  N_11
REMARK    6  A    between atoms: C_12  and  C_14
REMARK                            x       y       z     vdW  Elec       q    Type
REMARK                         _______ _______ _______ _____ _____    ______ ____
ROOT
ATOM      1  C   UNL     1       5.727   5.597  18.112  0.00  0.00    +0.000 C 
ENDROOT
BRANCH   1   2
ATOM      2  N   UNL     1       5.858   5.121  16.754  0.00  0.00    +0.000 N 
ATOM      3  C   UNL     1       6.828   5.575  15.890  0.00  0.00    +0.000 C 
ATOM      4  O   UNL     1       7.657   6.432  16.185  0.00  0.00    +0.000 OA
ATOM      5  H   UNL     1       5.269   4.372  16.401  0.00  0.00    +0.000 HD
BRANCH   3   6
ATOM      6  C   UNL     1       6.781   4.935  14.566  0.00  0.00    +0.000 A 
ATOM      7  C   UNL     1       5.939   3.862  14.174  0.00  0.00    +0.000 A 
ATOM      8  C   UNL     1       6.254   3.606  12.866  0.00  0.00    +0.000 A 
ATOM      9  N   UNL     1       7.230   4.497  12.536  0.00  0.00    +0.000 N 
ATOM     10  N   UNL     1       7.571   5.324  13.541  0.00  0.00    +0.000 NA
ATOM     11  H   UNL     1       7.708   4.597  11.646  0.00  0.00    +0.000 HD
ENDBRANCH   3   6
ENDBRANCH   1   2
BRANCH   1  12
ATOM     12  C   UNL     1       5.198   4.504  19.035  0.00  0.00    +0.000 C 
BRANCH  12  13
ATOM     13  C   UNL     1       3.682   4.603  19.248  0.00  0.00    +0.000 C 
BRANCH  13  20
ATOM     14  C   UNL     1       0.739   2.332  18.522  0.00  0.00    +0.000 C 
ATOM     15  C   UNL     1       1.482   3.553  19.090  0.00  0.00    +0.000 C 
ATOM     16  C   UNL     1       0.931   3.940  20.475  0.00  0.00    +0.000 C 
ATOM     17  C   UNL     1       1.345   2.954  21.565  0.00  0.00    +0.000 C 
ATOM     18  C   UNL     1       2.843   2.671  21.528  0.00  0.00    +0.000 C 
ATOM     19  C   UNL     1       3.325   2.330  20.118  0.00  0.00    +0.000 C 
ATOM     20  N   UNL     1       2.948   3.329  19.102  0.00  0.00    +0.000 NA
ENDBRANCH  13  20
ENDBRANCH  12  13
ENDBRANCH   1  12
TORSDOF 5
ENDMDL
