MODEL 1
REMARK VINA RESULT:      -8.3      0.000      0.000
REMARK  Name = 
REMARK  4 active torsions:
REMARK  status: ('A' for Active; 'I' for Inactive)
REMARK    1  A    between atoms: C_1  and  N_2
REMARK    2  A    between atoms: N_6  and  C_7
REMARK    3  A    between atoms: C_11  and  C_12
REMARK    4  A    between atoms: N_14  and  C_15
REMARK                            x       y       z     vdW  Elec       q    Type
REMARK                         _______ _______ _______ _____ _____    ______ ____
ROOT
ATOM      1  C   UNL     1       5.315   4.423  18.263  0.00  0.00    +0.000 A 
ATOM      2  C   UNL     1       6.248   5.231  18.933  0.00  0.00    +0.000 A 
ATOM      3  C   UNL     1       7.331   5.806  18.265  0.00  0.00    +0.000 A 
ATOM      4  C   UNL     1       7.500   5.591  16.904  0.00  0.00    +0.000 A 
ATOM      5  C   UNL     1       6.599   4.785  16.196  0.00  0.00    +0.000 A 
ATOM      6  C   UNL     1       5.524   4.194  16.889  0.00  0.00    +0.000 A 
ENDROOT
BRANCH   1  12
ATOM      7  C   UNL     1       0.708   3.782  20.004  0.00  0.00    +0.000 C 
ATOM      8  N   UNL     1       2.114   3.578  19.755  0.00  0.00    +0.000 N 
ATOM      9  C   UNL     1       2.843   2.475  20.304  0.00  0.00    +0.000 C 
ATOM     10  C   UNL     1       4.238   2.774  19.796  0.00  0.00    +0.000 C 
ATOM     11  O   UNL     1       5.205   2.109  20.147  0.00  0.00    +0.000 OA
ATOM     12  N   UNL     1       4.191   3.873  18.955  0.00  0.00    +0.000 N 
ATOM     13  C   UNL     1       2.903   4.377  18.941  0.00  0.00    +0.000 C 
ATOM     14  O   UNL     1       2.461   5.342  18.331  0.00  0.00    +0.000 OA
ENDBRANCH   1  12
BRANCH   5  15
ATOM     15  C   UNL     1       6.818   4.654  14.720  0.00  0.00    +0.000 C 
ATOM     16  O   UNL     1       7.627   5.394  14.161  0.00  0.00    +0.000 OA
ATOM     17  N   UNL     1       6.073   3.715  14.030  0.00  0.00    +0.000 N 
ATOM     18  H   UNL     1       5.421   3.109  14.506  0.00  0.00    +0.000 HD
BRANCH  17  19
ATOM     19  C   UNL     1       6.148   3.601  12.606  0.00  0.00    +0.000 C 
ATOM     20  C   UNL     1       5.972   2.274  11.927  0.00  0.00    +0.000 C 
ATOM     21  C   UNL     1       4.910   3.324  11.798  0.00  0.00    +0.000 C 
ENDBRANCH  17  19
ENDBRANCH   5  15
TORSDOF 3
ENDMDL
MODEL 2
REMARK VINA RESULT:      -8.2      0.737      1.828
REMARK  Name = 
REMARK  4 active torsions:
REMARK  status: ('A' for Active; 'I' for Inactive)
REMARK    1  A    between atoms: C_1  and  N_2
REMARK    2  A    between atoms: N_6  and  C_7
REMARK    3  A    between atoms: C_11  and  C_12
REMARK    4  A    between atoms: N_14  and  C_15
REMARK                            x       y       z     vdW  Elec       q    Type
REMARK                         _______ _______ _______ _____ _____    ______ ____
ROOT
ATOM      1  C   UNL     1       5.155   4.412  18.021  0.00  0.00    +0.000 A 
ATOM      2  C   UNL     1       6.331   4.728  18.719  0.00  0.00    +0.000 A 
ATOM      3  C   UNL     1       7.546   4.919  18.058  0.00  0.00    +0.000 A 
ATOM      4  C   UNL     1       7.608   4.806  16.675  0.00  0.00    +0.000 A 
ATOM      5  C   UNL     1       6.462   4.484  15.938  0.00  0.00    +0.000 A 
ATOM      6  C   UNL     1       5.248   4.273  16.622  0.00  0.00    +0.000 A 
ENDROOT
BRANCH   1  12
ATOM      7  C   UNL     1       1.536   2.509  20.842  0.00  0.00    +0.000 C 
ATOM      8  N   UNL     1       2.265   3.403  19.976  0.00  0.00    +0.000 N 
ATOM      9  C   UNL     1       1.728   4.652  19.527  0.00  0.00    +0.000 C 
ATOM     10  C   UNL     1       2.844   5.135  18.625  0.00  0.00    +0.000 C 
ATOM     11  O   UNL     1       2.724   6.144  17.941  0.00  0.00    +0.000 OA
ATOM     12  N   UNL     1       3.911   4.257  18.711  0.00  0.00    +0.000 N 
ATOM     13  C   UNL     1       3.557   3.192  19.517  0.00  0.00    +0.000 C 
ATOM     14  O   UNL     1       4.219   2.210  19.831  0.00  0.00    +0.000 OA
ENDBRANCH   1  12
BRANCH   5  15
ATOM     15  C   UNL     1       6.601   4.443  14.447  0.00  0.00    +0.000 C 
ATOM     16  O   UNL     1       7.245   5.321  13.876  0.00  0.00    +0.000 OA
ATOM     17  N   UNL     1       5.969   3.421  13.760  0.00  0.00    +0.000 N 
ATOM     18  H   UNL     1       5.454   2.703  14.246  0.00  0.00    +0.000 HD
BRANCH  17  19
ATOM     19  C   UNL     1       5.968   3.372  12.331  0.00  0.00    +0.000 C 
ATOM     20  C   UNL     1       5.675   2.092  11.602  0.00  0.00    +0.000 C 
ATOM     21  C   UNL     1       4.677   3.211  11.576  0.00  0.00    +0.000 C 
ENDBRANCH  17  19
ENDBRANCH   5  15
TORSDOF 3
ENDMDL
MODEL 3
REMARK VINA RESULT:      -7.3      1.403      1.403
REMARK  Name = 
REMARK  4 active torsions:
REMARK  status: ('A' for Active; 'I' for Inactive)
REMARK    1  A    between atoms: C_1  and  N_2
REMARK    2  A    between atoms: N_6  and  C_7
REMARK    3  A    between atoms: C_11  and  C_12
REMARK    4  A    between atoms: N_14  and  C_15
REMARK                            x       y       z     vdW  Elec       q    Type
REMARK                         _______ _______ _______ _____ _____    ______ ____
ROOT
ATOM      1  C   UNL     1       4.268   4.754  17.420  0.00  0.00    +0.000 A 
ATOM      2  C   UNL     1       4.373   6.126  17.699  0.00  0.00    +0.000 A 
ATOM      3  C   UNL     1       5.076   6.993  16.859  0.00  0.00    +0.000 A 
ATOM      4  C   UNL     1       5.685   6.503  15.711  0.00  0.00    +0.000 A 
ATOM      5  C   UNL     1       5.614   5.141  15.397  0.00  0.00    +0.000 A 
ATOM      6  C   UNL     1       4.920   4.276  16.265  0.00  0.00    +0.000 A 
ENDROOT
BRANCH   1  12
ATOM      7  C   UNL     1       0.455   2.339  19.492  0.00  0.00    +0.000 C 
ATOM      8  N   UNL     1       1.795   2.797  19.220  0.00  0.00    +0.000 N 
ATOM      9  C   UNL     1       2.933   2.334  19.955  0.00  0.00    +0.000 C 
ATOM     10  C   UNL     1       4.035   3.158  19.324  0.00  0.00    +0.000 C 
ATOM     11  O   UNL     1       5.180   3.140  19.760  0.00  0.00    +0.000 OA
ATOM     12  N   UNL     1       3.512   3.888  18.270  0.00  0.00    +0.000 N 
ATOM     13  C   UNL     1       2.145   3.686  18.214  0.00  0.00    +0.000 C 
ATOM     14  O   UNL     1       1.328   4.158  17.434  0.00  0.00    +0.000 OA
ENDBRANCH   1  12
BRANCH   5  15
ATOM     15  C   UNL     1       6.246   4.705  14.110  0.00  0.00    +0.000 C 
ATOM     16  O   UNL     1       7.313   5.207  13.761  0.00  0.00    +0.000 OA
ATOM     17  N   UNL     1       5.583   3.764  13.342  0.00  0.00    +0.000 N 
ATOM     18  H   UNL     1       4.713   3.355  13.649  0.00  0.00    +0.000 HD
BRANCH  17  19
ATOM     19  C   UNL     1       6.067   3.375  12.054  0.00  0.00    +0.000 C 
ATOM     20  C   UNL     1       6.609   1.995  11.817  0.00  0.00    +0.000 C 
ATOM     21  C   UNL     1       5.295   2.395  11.214  0.00  0.00    +0.000 C 
ENDBRANCH  17  19
ENDBRANCH   5  15
TORSDOF 3
ENDMDL
MODEL 4
REMARK VINA RESULT:      -7.2      3.375      7.436
REMARK  Name = 
REMARK  4 active torsions:
REMARK  status: ('A' for Active; 'I' for Inactive)
REMARK    1  A    between atoms: C_1  and  N_2
REMARK    2  A    between atoms: N_6  and  C_7
REMARK    3  A    between atoms: C_11  and  C_12
REMARK    4  A    between atoms: N_14  and  C_15
REMARK                            x       y       z     vdW  Elec       q    Type
REMARK                         _______ _______ _______ _____ _____    ______ ____
ROOT
ATOM      1  C   UNL     1       3.955   5.016  19.065  0.00  0.00    +0.000 A 
ATOM      2  C   UNL     1       3.265   3.921  19.606  0.00  0.00    +0.000 A 
ATOM      3  C   UNL     1       2.130   4.091  20.402  0.00  0.00    +0.000 A 
ATOM      4  C   UNL     1       1.654   5.368  20.666  0.00  0.00    +0.000 A 
ATOM      5  C   UNL     1       2.315   6.491  20.154  0.00  0.00    +0.000 A 
ATOM      6  C   UNL     1       3.471   6.304  19.372  0.00  0.00    +0.000 A 
ENDROOT
BRANCH   1  12
ATOM      7  C   UNL     1       6.759   3.924  15.114  0.00  0.00    +0.000 C 
ATOM      8  N   UNL     1       6.372   4.323  16.445  0.00  0.00    +0.000 N 
ATOM      9  C   UNL     1       7.323   4.712  17.442  0.00  0.00    +0.000 C 
ATOM     10  C   UNL     1       6.411   4.957  18.625  0.00  0.00    +0.000 C 
ATOM     11  O   UNL     1       6.858   5.205  19.738  0.00  0.00    +0.000 OA
ATOM     12  N   UNL     1       5.094   4.822  18.221  0.00  0.00    +0.000 N 
ATOM     13  C   UNL     1       5.065   4.418  16.899  0.00  0.00    +0.000 C 
ATOM     14  O   UNL     1       4.097   4.184  16.186  0.00  0.00    +0.000 OA
ENDBRANCH   1  12
BRANCH   5  15
ATOM     15  C   UNL     1       1.701   7.829  20.434  0.00  0.00    +0.000 C 
ATOM     16  O   UNL     1       1.496   8.606  19.503  0.00  0.00    +0.000 OA
ATOM     17  N   UNL     1       1.411   8.153  21.748  0.00  0.00    +0.000 N 
ATOM     18  H   UNL     1       1.577   7.499  22.498  0.00  0.00    +0.000 HD
BRANCH  17  19
ATOM     19  C   UNL     1       0.923   9.448  22.107  0.00  0.00    +0.000 C 
ATOM     20  C   UNL     1      -0.503   9.837  21.840  0.00  0.00    +0.000 C 
ATOM     21  C   UNL     1      -0.043   9.608  23.249  0.00  0.00    +0.000 C 
ENDBRANCH  17  19
ENDBRANCH   5  15
TORSDOF 3
ENDMDL
MODEL 5
REMARK VINA RESULT:      -7.2      1.224      2.182
REMARK  Name = 
REMARK  4 active torsions:
REMARK  status: ('A' for Active; 'I' for Inactive)
REMARK    1  A    between atoms: C_1  and  N_2
REMARK    2  A    between atoms: N_6  and  C_7
REMARK    3  A    between atoms: C_11  and  C_12
REMARK    4  A    between atoms: N_14  and  C_15
REMARK                            x       y       z     vdW  Elec       q    Type
REMARK                         _______ _______ _______ _____ _____    ______ ____
ROOT
ATOM      1  C   UNL     1       5.136   4.270  17.769  0.00  0.00    +0.000 A 
ATOM      2  C   UNL     1       6.441   4.632  18.140  0.00  0.00    +0.000 A 
ATOM      3  C   UNL     1       7.465   4.748  17.198  0.00  0.00    +0.000 A 
ATOM      4  C   UNL     1       7.201   4.513  15.855  0.00  0.00    +0.000 A 
ATOM      5  C   UNL     1       5.916   4.141  15.439  0.00  0.00    +0.000 A 
ATOM      6  C   UNL     1       4.900   4.006  16.405  0.00  0.00    +0.000 A 
ENDROOT
BRANCH   1  12
ATOM      7  C   UNL     1       2.352   2.720  21.579  0.00  0.00    +0.000 C 
ATOM      8  N   UNL     1       2.820   3.496  20.456  0.00  0.00    +0.000 N 
ATOM      9  C   UNL     1       2.133   4.660  19.983  0.00  0.00    +0.000 C 
ATOM     10  C   UNL     1       2.990   5.030  18.791  0.00  0.00    +0.000 C 
ATOM     11  O   UNL     1       2.669   5.931  18.025  0.00  0.00    +0.000 OA
ATOM     12  N   UNL     1       4.091   4.192  18.742  0.00  0.00    +0.000 N 
ATOM     13  C   UNL     1       3.983   3.245  19.743  0.00  0.00    +0.000 C 
ATOM     14  O   UNL     1       4.745   2.328  20.022  0.00  0.00    +0.000 OA
ENDBRANCH   1  12
BRANCH   5  15
ATOM     15  C   UNL     1       5.701   3.966  13.967  0.00  0.00    +0.000 C 
ATOM     16  O   UNL     1       4.672   4.401  13.451  0.00  0.00    +0.000 OA
ATOM     17  N   UNL     1       6.666   3.291  13.241  0.00  0.00    +0.000 N 
ATOM     18  H   UNL     1       7.509   2.951  13.678  0.00  0.00    +0.000 HD
BRANCH  17  19
ATOM     19  C   UNL     1       6.485   2.993  11.854  0.00  0.00    +0.000 C 
ATOM     20  C   UNL     1       7.311   1.938  11.176  0.00  0.00    +0.000 C 
ATOM     21  C   UNL     1       5.854   1.695  11.430  0.00  0.00    +0.000 C 
ENDBRANCH  17  19
ENDBRANCH   5  15
TORSDOF 3
ENDMDL
MODEL 6
REMARK VINA RESULT:      -7.2      1.642      2.371
REMARK  Name = 
REMARK  4 active torsions:
REMARK  status: ('A' for Active; 'I' for Inactive)
REMARK    1  A    between atoms: C_1  and  N_2
REMARK    2  A    between atoms: N_6  and  C_7
REMARK    3  A    between atoms: C_11  and  C_12
REMARK    4  A    between atoms: N_14  and  C_15
REMARK                            x       y       z     vdW  Elec       q    Type
REMARK                         _______ _______ _______ _____ _____    ______ ____
ROOT
ATOM      1  C   UNL     1       3.560   5.112  17.939  0.00  0.00    +0.000 A 
ATOM      2  C   UNL     1       3.535   6.516  17.956  0.00  0.00    +0.000 A 
ATOM      3  C   UNL     1       4.397   7.273  17.160  0.00  0.00    +0.000 A 
ATOM      4  C   UNL     1       5.303   6.638  16.320  0.00  0.00    +0.000 A 
ATOM      5  C   UNL     1       5.369   5.240  16.277  0.00  0.00    +0.000 A 
ATOM      6  C   UNL     1       4.507   4.491  17.102  0.00  0.00    +0.000 A 
ENDROOT
BRANCH   1  12
ATOM      7  C   UNL     1       1.618   2.499  21.690  0.00  0.00    +0.000 C 
ATOM      8  N   UNL     1       1.758   3.163  20.417  0.00  0.00    +0.000 N 
ATOM      9  C   UNL     1       0.709   3.195  19.444  0.00  0.00    +0.000 C 
ATOM     10  C   UNL     1       1.391   3.936  18.314  0.00  0.00    +0.000 C 
ATOM     11  O   UNL     1       0.853   4.077  17.222  0.00  0.00    +0.000 OA
ATOM     12  N   UNL     1       2.643   4.353  18.732  0.00  0.00    +0.000 N 
ATOM     13  C   UNL     1       2.879   3.868  20.005  0.00  0.00    +0.000 C 
ATOM     14  O   UNL     1       3.869   4.011  20.712  0.00  0.00    +0.000 OA
ENDBRANCH   1  12
BRANCH   5  15
ATOM     15  C   UNL     1       6.329   4.634  15.299  0.00  0.00    +0.000 C 
ATOM     16  O   UNL     1       7.538   4.715  15.511  0.00  0.00    +0.000 OA
ATOM     17  N   UNL     1       5.814   4.023  14.170  0.00  0.00    +0.000 N 
ATOM     18  H   UNL     1       4.819   3.956  14.018  0.00  0.00    +0.000 HD
BRANCH  17  19
ATOM     19  C   UNL     1       6.667   3.514  13.141  0.00  0.00    +0.000 C 
ATOM     20  C   UNL     1       6.104   3.065  11.824  0.00  0.00    +0.000 C 
ATOM     21  C   UNL     1       6.923   4.319  11.897  0.00  0.00    +0.000 C 
ENDBRANCH  17  19
ENDBRANCH   5  15
TORSDOF 3
ENDMDL
MODEL 7
REMARK VINA RESULT:      -7.1      1.897      2.153
REMARK  Name = 
REMARK  4 active torsions:
REMARK  status: ('A' for Active; 'I' for Inactive)
REMARK    1  A    between atoms: C_1  and  N_2
REMARK    2  A    between atoms: N_6  and  C_7
REMARK    3  A    between atoms: C_11  and  C_12
REMARK    4  A    between atoms: N_14  and  C_15
REMARK                            x       y       z     vdW  Elec       q    Type
REMARK                         _______ _______ _______ _____ _____    ______ ____
ROOT
ATOM      1  C   UNL     1       5.265   5.393  17.832  0.00  0.00    +0.000 A 
ATOM      2  C   UNL     1       6.428   5.118  18.568  0.00  0.00    +0.000 A 
ATOM      3  C   UNL     1       7.597   4.668  17.950  0.00  0.00    +0.000 A 
ATOM      4  C   UNL     1       7.629   4.491  16.573  0.00  0.00    +0.000 A 
ATOM      5  C   UNL     1       6.490   4.744  15.799  0.00  0.00    +0.000 A 
ATOM      6  C   UNL     1       5.313   5.176  16.440  0.00  0.00    +0.000 A 
ENDROOT
BRANCH   1  12
ATOM      7  C   UNL     1       1.548   8.394  19.189  0.00  0.00    +0.000 C 
ATOM      8  N   UNL     1       2.409   7.240  19.103  0.00  0.00    +0.000 N 
ATOM      9  C   UNL     1       2.174   6.044  19.854  0.00  0.00    +0.000 C 
ATOM     10  C   UNL     1       3.373   5.213  19.449  0.00  0.00    +0.000 C 
ATOM     11  O   UNL     1       3.610   4.131  19.972  0.00  0.00    +0.000 OA
ATOM     12  N   UNL     1       4.089   5.889  18.476  0.00  0.00    +0.000 N 
ATOM     13  C   UNL     1       3.517   7.132  18.275  0.00  0.00    +0.000 C 
ATOM     14  O   UNL     1       3.860   8.023  17.508  0.00  0.00    +0.000 OA
ENDBRANCH   1  12
BRANCH   5  15
ATOM     15  C   UNL     1       6.627   4.588  14.315  0.00  0.00    +0.000 C 
ATOM     16  O   UNL     1       7.365   5.351  13.693  0.00  0.00    +0.000 OA
ATOM     17  N   UNL     1       5.890   3.597  13.692  0.00  0.00    +0.000 N 
ATOM     18  H   UNL     1       5.298   2.973  14.220  0.00  0.00    +0.000 HD
BRANCH  17  19
ATOM     19  C   UNL     1       5.886   3.452  12.269  0.00  0.00    +0.000 C 
ATOM     20  C   UNL     1       5.714   2.105  11.630  0.00  0.00    +0.000 C 
ATOM     21  C   UNL     1       4.613   3.119  11.541  0.00  0.00    +0.000 C 
ENDBRANCH  17  19
ENDBRANCH   5  15
TORSDOF 3
ENDMDL
MODEL 8
REMARK VINA RESULT:      -7.1      1.512      2.227
REMARK  Name = 
REMARK  4 active torsions:
REMARK  status: ('A' for Active; 'I' for Inactive)
REMARK    1  A    between atoms: C_1  and  N_2
REMARK    2  A    between atoms: N_6  and  C_7
REMARK    3  A    between atoms: C_11  and  C_12
REMARK    4  A    between atoms: N_14  and  C_15
REMARK                            x       y       z     vdW  Elec       q    Type
REMARK                         _______ _______ _______ _____ _____    ______ ____
ROOT
ATOM      1  C   UNL     1       3.985   4.796  17.575  0.00  0.00    +0.000 A 
ATOM      2  C   UNL     1       4.284   6.154  17.765  0.00  0.00    +0.000 A 
ATOM      3  C   UNL     1       5.080   6.862  16.862  0.00  0.00    +0.000 A 
ATOM      4  C   UNL     1       5.589   6.224  15.739  0.00  0.00    +0.000 A 
ATOM      5  C   UNL     1       5.323   4.868  15.512  0.00  0.00    +0.000 A 
ATOM      6  C   UNL     1       4.537   4.163  16.444  0.00  0.00    +0.000 A 
ENDROOT
BRANCH   1  12
ATOM      7  C   UNL     1       2.442   2.121  21.465  0.00  0.00    +0.000 C 
ATOM      8  N   UNL     1       2.429   2.880  20.239  0.00  0.00    +0.000 N 
ATOM      9  C   UNL     1       1.225   3.153  19.513  0.00  0.00    +0.000 C 
ATOM     10  C   UNL     1       1.777   3.900  18.317  0.00  0.00    +0.000 C 
ATOM     11  O   UNL     1       1.062   4.220  17.376  0.00  0.00    +0.000 OA
ATOM     12  N   UNL     1       3.136   4.096  18.489  0.00  0.00    +0.000 N 
ATOM     13  C   UNL     1       3.542   3.461  19.649  0.00  0.00    +0.000 C 
ATOM     14  O   UNL     1       4.662   3.395  20.140  0.00  0.00    +0.000 OA
ENDBRANCH   1  12
BRANCH   5  15
ATOM     15  C   UNL     1       5.858   4.272  14.246  0.00  0.00    +0.000 C 
ATOM     16  O   UNL     1       7.067   4.073  14.135  0.00  0.00    +0.000 OA
ATOM     17  N   UNL     1       4.964   3.989  13.228  0.00  0.00    +0.000 N 
ATOM     18  H   UNL     1       3.974   4.149  13.340  0.00  0.00    +0.000 HD
BRANCH  17  19
ATOM     19  C   UNL     1       5.408   3.517  11.953  0.00  0.00    +0.000 C 
ATOM     20  C   UNL     1       5.560   2.048  11.684  0.00  0.00    +0.000 C 
ATOM     21  C   UNL     1       4.454   2.818  11.026  0.00  0.00    +0.000 C 
ENDBRANCH  17  19
ENDBRANCH   5  15
TORSDOF 3
ENDMDL
MODEL 9
REMARK VINA RESULT:      -6.9      1.546      2.528
REMARK  Name = 
REMARK  4 active torsions:
REMARK  status: ('A' for Active; 'I' for Inactive)
REMARK    1  A    between atoms: C_1  and  N_2
REMARK    2  A    between atoms: N_6  and  C_7
REMARK    3  A    between atoms: C_11  and  C_12
REMARK    4  A    between atoms: N_14  and  C_15
REMARK                            x       y       z     vdW  Elec       q    Type
REMARK                         _______ _______ _______ _____ _____    ______ ____
ROOT
ATOM      1  C   UNL     1       4.982   4.369  16.710  0.00  0.00    +0.000 A 
ATOM      2  C   UNL     1       6.222   4.884  17.121  0.00  0.00    +0.000 A 
ATOM      3  C   UNL     1       7.291   5.016  16.232  0.00  0.00    +0.000 A 
ATOM      4  C   UNL     1       7.138   4.642  14.903  0.00  0.00    +0.000 A 
ATOM      5  C   UNL     1       5.922   4.116  14.450  0.00  0.00    +0.000 A 
ATOM      6  C   UNL     1       4.860   3.969  15.364  0.00  0.00    +0.000 A 
ENDROOT
BRANCH   1  12
ATOM      7  C   UNL     1       1.485   2.495  19.698  0.00  0.00    +0.000 C 
ATOM      8  N   UNL     1       2.296   3.440  18.970  0.00  0.00    +0.000 N 
ATOM      9  C   UNL     1       2.100   4.856  19.060  0.00  0.00    +0.000 C 
ATOM     10  C   UNL     1       3.141   5.351  18.079  0.00  0.00    +0.000 C 
ATOM     11  O   UNL     1       3.223   6.534  17.774  0.00  0.00    +0.000 OA
ATOM     12  N   UNL     1       3.886   4.277  17.624  0.00  0.00    +0.000 N 
ATOM     13  C   UNL     1       3.364   3.109  18.149  0.00  0.00    +0.000 C 
ATOM     14  O   UNL     1       3.735   1.954  17.979  0.00  0.00    +0.000 OA
ENDBRANCH   1  12
BRANCH   5  15
ATOM     15  C   UNL     1       5.821   3.796  12.990  0.00  0.00    +0.000 C 
ATOM     16  O   UNL     1       6.829   3.854  12.288  0.00  0.00    +0.000 OA
ATOM     17  N   UNL     1       4.578   3.469  12.477  0.00  0.00    +0.000 N 
ATOM     18  H   UNL     1       3.764   3.415  13.070  0.00  0.00    +0.000 HD
BRANCH  17  19
ATOM     19  C   UNL     1       4.381   3.252  11.077  0.00  0.00    +0.000 C 
ATOM     20  C   UNL     1       3.090   2.691  10.557  0.00  0.00    +0.000 C 
ATOM     21  C   UNL     1       3.438   4.126  10.297  0.00  0.00    +0.000 C 
ENDBRANCH  17  19
ENDBRANCH   5  15
TORSDOF 3
ENDMDL
