MODEL 1
REMARK VINA RESULT:      -9.2      0.000      0.000
REMARK  Name = 
REMARK  6 active torsions:
REMARK  status: ('A' for Active; 'I' for Inactive)
REMARK    1  A    between atoms: C_1  and  C_2
REMARK    2  A    between atoms: C_6  and  N_7
REMARK    3  A    between atoms: N_7  and  C_8
REMARK    4  A    between atoms: C_11  and  N_12
REMARK    5  A    between atoms: C_16  and  C_18
REMARK    6  A    between atoms: C_18  and  C_19
REMARK                            x       y       z     vdW  Elec       q    Type
REMARK                         _______ _______ _______ _____ _____    ______ ____
ROOT
ATOM      1  N   UNL     1       0.482   9.997  19.545  0.00  0.00    +0.000 N 
ATOM      2  C   UNL     1       0.831   9.237  18.345  0.00  0.00    +0.000 C 
ATOM      3  C   UNL     1       2.074   8.388  18.631  0.00  0.00    +0.000 C 
ATOM      4  N   UNL     1       1.879   7.546  19.814  0.00  0.00    +0.000 N 
ATOM      5  C   UNL     1       2.057   6.174  19.855  0.00  0.00    +0.000 C 
ATOM      6  O   UNL     1       1.865   5.529  20.892  0.00  0.00    +0.000 OA
ATOM      7  C   UNL     1       1.477   8.283  21.026  0.00  0.00    +0.000 C 
ATOM      8  C   UNL     1       0.278   9.221  20.773  0.00  0.00    +0.000 C 
ENDROOT
BRANCH   1  13
ATOM      9  N   UNL     1       1.942  14.570  19.053  0.00  0.00    +0.000 N 
ATOM     10  C   UNL     1       3.277  14.272  19.575  0.00  0.00    +0.000 C 
ATOM     11  C   UNL     1       0.929  13.615  19.316  0.00  0.00    +0.000 A 
ATOM     12  C   UNL     1       1.219  12.264  19.321  0.00  0.00    +0.000 A 
ATOM     13  C   UNL     1       0.205  11.344  19.512  0.00  0.00    +0.000 A 
ATOM     14  N   UNL     1      -1.058  11.750  19.688  0.00  0.00    +0.000 NA
ATOM     15  C   UNL     1      -1.262  13.073  19.698  0.00  0.00    +0.000 A 
ATOM     16  N   UNL     1      -0.337  14.023  19.515  0.00  0.00    +0.000 NA
BRANCH   9  22
ATOM     17  C   UNL     1      -1.080  18.360  18.070  0.00  0.00    +0.000 C 
ATOM     18  C   UNL     1       0.248  17.692  17.879  0.00  0.00    +0.000 A 
ATOM     19  C   UNL     1       1.219  18.231  17.035  0.00  0.00    +0.000 A 
ATOM     20  C   UNL     1       2.441  17.582  16.877  0.00  0.00    +0.000 A 
ATOM     21  C   UNL     1       2.695  16.384  17.550  0.00  0.00    +0.000 A 
ATOM     22  C   UNL     1       1.739  15.802  18.396  0.00  0.00    +0.000 A 
ATOM     23  C   UNL     1       0.521  16.491  18.551  0.00  0.00    +0.000 A 
ENDBRANCH   9  22
ENDBRANCH   1  13
BRANCH   5  24
ATOM     24  C   UNL     1       2.490   5.458  18.578  0.00  0.00    +0.000 C 
BRANCH  24  25
ATOM     25  C   UNL     1       3.908   4.968  18.634  0.00  0.00    +0.000 A 
ATOM     26  C   UNL     1       4.345   3.782  19.195  0.00  0.00    +0.000 A 
ATOM     27  N   UNL     1       5.707   3.723  19.088  0.00  0.00    +0.000 N 
ATOM     28  C   UNL     1       6.185   4.852  18.469  0.00  0.00    +0.000 A 
ATOM     29  C   UNL     1       7.502   5.226  18.173  0.00  0.00    +0.000 A 
ATOM     30  C   UNL     1       7.702   6.457  17.546  0.00  0.00    +0.000 A 
ATOM     31  C   UNL     1       6.625   7.280  17.227  0.00  0.00    +0.000 A 
ATOM     32  C   UNL     1       5.313   6.892  17.531  0.00  0.00    +0.000 A 
ATOM     33  C   UNL     1       5.080   5.654  18.168  0.00  0.00    +0.000 A 
ATOM     34  H   UNL     1       6.285   2.970  19.434  0.00  0.00    +0.000 HD
ENDBRANCH  24  25
ENDBRANCH   5  24
TORSDOF 4
ENDMDL
MODEL 2
REMARK VINA RESULT:      -9.2      1.194      1.235
REMARK  Name = 
REMARK  6 active torsions:
REMARK  status: ('A' for Active; 'I' for Inactive)
REMARK    1  A    between atoms: C_1  and  C_2
REMARK    2  A    between atoms: C_6  and  N_7
REMARK    3  A    between atoms: N_7  and  C_8
REMARK    4  A    between atoms: C_11  and  N_12
REMARK    5  A    between atoms: C_16  and  C_18
REMARK    6  A    between atoms: C_18  and  C_19
REMARK                            x       y       z     vdW  Elec       q    Type
REMARK                         _______ _______ _______ _____ _____    ______ ____
ROOT
ATOM      1  N   UNL     1       0.682   9.644  19.053  0.00  0.00    +0.000 N 
ATOM      2  C   UNL     1       1.049   8.771  17.937  0.00  0.00    +0.000 C 
ATOM      3  C   UNL     1       2.308   7.982  18.309  0.00  0.00    +0.000 C 
ATOM      4  N   UNL     1       2.127   7.262  19.573  0.00  0.00    +0.000 N 
ATOM      5  C   UNL     1       2.333   5.906  19.756  0.00  0.00    +0.000 C 
ATOM      6  O   UNL     1       2.152   5.368  20.853  0.00  0.00    +0.000 OA
ATOM      7  C   UNL     1       1.707   8.113  20.703  0.00  0.00    +0.000 C 
ATOM      8  C   UNL     1       0.491   8.994  20.354  0.00  0.00    +0.000 C 
ENDROOT
BRANCH   1  13
ATOM      9  N   UNL     1       1.975  14.292  19.162  0.00  0.00    +0.000 N 
ATOM     10  C   UNL     1       2.967  14.062  20.214  0.00  0.00    +0.000 C 
ATOM     11  C   UNL     1       0.998  13.282  18.978  0.00  0.00    +0.000 A 
ATOM     12  C   UNL     1       1.326  11.949  19.131  0.00  0.00    +0.000 A 
ATOM     13  C   UNL     1       0.378  10.975  18.881  0.00  0.00    +0.000 A 
ATOM     14  N   UNL     1      -0.856  11.311  18.488  0.00  0.00    +0.000 NA
ATOM     15  C   UNL     1      -1.113  12.621  18.387  0.00  0.00    +0.000 A 
ATOM     16  N   UNL     1      -0.249  13.621  18.605  0.00  0.00    +0.000 NA
BRANCH   9  22
ATOM     17  C   UNL     1      -0.188  18.623  18.151  0.00  0.00    +0.000 C 
ATOM     18  C   UNL     1       0.948  17.671  17.930  0.00  0.00    +0.000 A 
ATOM     19  C   UNL     1       1.966  17.953  17.019  0.00  0.00    +0.000 A 
ATOM     20  C   UNL     1       3.005  17.045  16.834  0.00  0.00    +0.000 A 
ATOM     21  C   UNL     1       3.025  15.843  17.548  0.00  0.00    +0.000 A 
ATOM     22  C   UNL     1       2.012  15.516  18.461  0.00  0.00    +0.000 A 
ATOM     23  C   UNL     1       0.986  16.463  18.641  0.00  0.00    +0.000 A 
ENDBRANCH   9  22
ENDBRANCH   1  13
BRANCH   5  24
ATOM     24  C   UNL     1       2.784   5.071  18.560  0.00  0.00    +0.000 C 
BRANCH  24  25
ATOM     25  C   UNL     1       4.276   4.942  18.464  0.00  0.00    +0.000 A 
ATOM     26  C   UNL     1       5.173   4.990  19.515  0.00  0.00    +0.000 A 
ATOM     27  N   UNL     1       6.441   4.883  19.014  0.00  0.00    +0.000 N 
ATOM     28  C   UNL     1       6.403   4.769  17.646  0.00  0.00    +0.000 A 
ATOM     29  C   UNL     1       7.451   4.660  16.723  0.00  0.00    +0.000 A 
ATOM     30  C   UNL     1       7.120   4.576  15.370  0.00  0.00    +0.000 A 
ATOM     31  C   UNL     1       5.791   4.600  14.957  0.00  0.00    +0.000 A 
ATOM     32  C   UNL     1       4.752   4.711  15.893  0.00  0.00    +0.000 A 
ATOM     33  C   UNL     1       5.057   4.800  17.268  0.00  0.00    +0.000 A 
ATOM     34  H   UNL     1       7.288   4.907  19.565  0.00  0.00    +0.000 HD
ENDBRANCH  24  25
ENDBRANCH   5  24
TORSDOF 4
ENDMDL
MODEL 3
REMARK VINA RESULT:      -9.1      3.649      5.613
REMARK  Name = 
REMARK  6 active torsions:
REMARK  status: ('A' for Active; 'I' for Inactive)
REMARK    1  A    between atoms: C_1  and  C_2
REMARK    2  A    between atoms: C_6  and  N_7
REMARK    3  A    between atoms: N_7  and  C_8
REMARK    4  A    between atoms: C_11  and  N_12
REMARK    5  A    between atoms: C_16  and  C_18
REMARK    6  A    between atoms: C_18  and  C_19
REMARK                            x       y       z     vdW  Elec       q    Type
REMARK                         _______ _______ _______ _____ _____    ______ ____
ROOT
ATOM      1  N   UNL     1       1.007   9.753  19.072  0.00  0.00    +0.000 N 
ATOM      2  C   UNL     1       1.439   8.827  20.119  0.00  0.00    +0.000 C 
ATOM      3  C   UNL     1       1.789   7.477  19.484  0.00  0.00    +0.000 C 
ATOM      4  N   UNL     1       2.773   7.637  18.410  0.00  0.00    +0.000 N 
ATOM      5  C   UNL     1       3.974   6.955  18.320  0.00  0.00    +0.000 C 
ATOM      6  O   UNL     1       4.759   7.151  17.385  0.00  0.00    +0.000 OA
ATOM      7  C   UNL     1       2.384   8.605  17.368  0.00  0.00    +0.000 C 
ATOM      8  C   UNL     1       1.939   9.959  17.959  0.00  0.00    +0.000 C 
ENDROOT
BRANCH   1  13
ATOM      9  N   UNL     1      -3.277  11.168  17.361  0.00  0.00    +0.000 N 
ATOM     10  C   UNL     1      -2.875  10.936  15.972  0.00  0.00    +0.000 C 
ATOM     11  C   UNL     1      -2.235  11.255  18.317  0.00  0.00    +0.000 A 
ATOM     12  C   UNL     1      -1.107  10.465  18.205  0.00  0.00    +0.000 A 
ATOM     13  C   UNL     1      -0.133  10.514  19.184  0.00  0.00    +0.000 A 
ATOM     14  N   UNL     1      -0.274  11.318  20.244  0.00  0.00    +0.000 NA
ATOM     15  C   UNL     1      -1.378  12.075  20.275  0.00  0.00    +0.000 A 
ATOM     16  N   UNL     1      -2.366  12.079  19.372  0.00  0.00    +0.000 NA
BRANCH   9  22
ATOM     17  C   UNL     1      -7.321  13.968  16.845  0.00  0.00    +0.000 C 
ATOM     18  C   UNL     1      -6.670  12.742  17.411  0.00  0.00    +0.000 A 
ATOM     19  C   UNL     1      -7.370  11.860  18.233  0.00  0.00    +0.000 A 
ATOM     20  C   UNL     1      -6.734  10.732  18.746  0.00  0.00    +0.000 A 
ATOM     21  C   UNL     1      -5.389  10.487  18.450  0.00  0.00    +0.000 A 
ATOM     22  C   UNL     1      -4.647  11.358  17.640  0.00  0.00    +0.000 A 
ATOM     23  C   UNL     1      -5.323  12.479  17.121  0.00  0.00    +0.000 A 
ENDBRANCH   9  22
ENDBRANCH   1  13
BRANCH   5  24
ATOM     24  C   UNL     1       4.324   5.952  19.416  0.00  0.00    +0.000 C 
BRANCH  24  25
ATOM     25  C   UNL     1       4.056   4.530  19.015  0.00  0.00    +0.000 A 
ATOM     26  C   UNL     1       4.935   3.678  18.374  0.00  0.00    +0.000 A 
ATOM     27  N   UNL     1       4.301   2.489  18.141  0.00  0.00    +0.000 N 
ATOM     28  C   UNL     1       3.012   2.537  18.613  0.00  0.00    +0.000 A 
ATOM     29  C   UNL     1       2.002   1.567  18.572  0.00  0.00    +0.000 A 
ATOM     30  C   UNL     1       0.761   1.897  19.119  0.00  0.00    +0.000 A 
ATOM     31  C   UNL     1       0.541   3.149  19.687  0.00  0.00    +0.000 A 
ATOM     32  C   UNL     1       1.562   4.110  19.720  0.00  0.00    +0.000 A 
ATOM     33  C   UNL     1       2.826   3.805  19.171  0.00  0.00    +0.000 A 
ATOM     34  H   UNL     1       4.709   1.694  17.669  0.00  0.00    +0.000 HD
ENDBRANCH  24  25
ENDBRANCH   5  24
TORSDOF 4
ENDMDL
MODEL 4
REMARK VINA RESULT:      -9.1      3.647      5.774
REMARK  Name = 
REMARK  6 active torsions:
REMARK  status: ('A' for Active; 'I' for Inactive)
REMARK    1  A    between atoms: C_1  and  C_2
REMARK    2  A    between atoms: C_6  and  N_7
REMARK    3  A    between atoms: N_7  and  C_8
REMARK    4  A    between atoms: C_11  and  N_12
REMARK    5  A    between atoms: C_16  and  C_18
REMARK    6  A    between atoms: C_18  and  C_19
REMARK                            x       y       z     vdW  Elec       q    Type
REMARK                         _______ _______ _______ _____ _____    ______ ____
ROOT
ATOM      1  N   UNL     1       1.134   9.705  19.064  0.00  0.00    +0.000 N 
ATOM      2  C   UNL     1       1.550   8.743  20.085  0.00  0.00    +0.000 C 
ATOM      3  C   UNL     1       1.900   7.413  19.410  0.00  0.00    +0.000 C 
ATOM      4  N   UNL     1       2.896   7.603  18.352  0.00  0.00    +0.000 N 
ATOM      5  C   UNL     1       4.094   6.917  18.253  0.00  0.00    +0.000 C 
ATOM      6  O   UNL     1       4.890   7.139  17.334  0.00  0.00    +0.000 OA
ATOM      7  C   UNL     1       2.524   8.606  17.338  0.00  0.00    +0.000 C 
ATOM      8  C   UNL     1       2.080   9.942  17.969  0.00  0.00    +0.000 C 
ENDROOT
BRANCH   1  13
ATOM      9  N   UNL     1      -3.165  11.130  17.401  0.00  0.00    +0.000 N 
ATOM     10  C   UNL     1      -2.779  10.896  16.007  0.00  0.00    +0.000 C 
ATOM     11  C   UNL     1      -2.113  11.215  18.345  0.00  0.00    +0.000 A 
ATOM     12  C   UNL     1      -0.988  10.422  18.220  0.00  0.00    +0.000 A 
ATOM     13  C   UNL     1      -0.003  10.470  19.189  0.00  0.00    +0.000 A 
ATOM     14  N   UNL     1      -0.130  11.274  20.250  0.00  0.00    +0.000 NA
ATOM     15  C   UNL     1      -1.232  12.033  20.293  0.00  0.00    +0.000 A 
ATOM     16  N   UNL     1      -2.230  12.039  19.401  0.00  0.00    +0.000 NA
BRANCH   9  22
ATOM     17  C   UNL     1      -7.227   9.542  19.734  0.00  0.00    +0.000 C 
ATOM     18  C   UNL     1      -6.571  10.544  18.834  0.00  0.00    +0.000 A 
ATOM     19  C   UNL     1      -7.295  11.587  18.257  0.00  0.00    +0.000 A 
ATOM     20  C   UNL     1      -6.655  12.499  17.421  0.00  0.00    +0.000 A 
ATOM     21  C   UNL     1      -5.291  12.367  17.146  0.00  0.00    +0.000 A 
ATOM     22  C   UNL     1      -4.532  11.323  17.695  0.00  0.00    +0.000 A 
ATOM     23  C   UNL     1      -5.202  10.428  18.551  0.00  0.00    +0.000 A 
ENDBRANCH   9  22
ENDBRANCH   1  13
BRANCH   5  24
ATOM     24  C   UNL     1       4.427   5.876  19.319  0.00  0.00    +0.000 C 
BRANCH  24  25
ATOM     25  C   UNL     1       4.071   4.479  18.904  0.00  0.00    +0.000 A 
ATOM     26  C   UNL     1       4.841   3.631  18.129  0.00  0.00    +0.000 A 
ATOM     27  N   UNL     1       4.150   2.468  17.933  0.00  0.00    +0.000 N 
ATOM     28  C   UNL     1       2.929   2.528  18.560  0.00  0.00    +0.000 A 
ATOM     29  C   UNL     1       1.894   1.586  18.608  0.00  0.00    +0.000 A 
ATOM     30  C   UNL     1       0.739   1.924  19.315  0.00  0.00    +0.000 A 
ATOM     31  C   UNL     1       0.625   3.157  19.950  0.00  0.00    +0.000 A 
ATOM     32  C   UNL     1       1.670   4.091  19.892  0.00  0.00    +0.000 A 
ATOM     33  C   UNL     1       2.849   3.778  19.183  0.00  0.00    +0.000 A 
ATOM     34  H   UNL     1       4.475   1.682  17.386  0.00  0.00    +0.000 HD
ENDBRANCH  24  25
ENDBRANCH   5  24
TORSDOF 4
ENDMDL
MODEL 5
REMARK VINA RESULT:      -9.0      2.896      4.554
REMARK  Name = 
REMARK  6 active torsions:
REMARK  status: ('A' for Active; 'I' for Inactive)
REMARK    1  A    between atoms: C_1  and  C_2
REMARK    2  A    between atoms: C_6  and  N_7
REMARK    3  A    between atoms: N_7  and  C_8
REMARK    4  A    between atoms: C_11  and  N_12
REMARK    5  A    between atoms: C_16  and  C_18
REMARK    6  A    between atoms: C_18  and  C_19
REMARK                            x       y       z     vdW  Elec       q    Type
REMARK                         _______ _______ _______ _____ _____    ______ ____
ROOT
ATOM      1  N   UNL     1       2.007   7.140  19.777  0.00  0.00    +0.000 N 
ATOM      2  C   UNL     1       1.976   7.051  18.316  0.00  0.00    +0.000 C 
ATOM      3  C   UNL     1       3.339   6.563  17.813  0.00  0.00    +0.000 C 
ATOM      4  N   UNL     1       3.723   5.307  18.462  0.00  0.00    +0.000 N 
ATOM      5  C   UNL     1       4.090   4.147  17.801  0.00  0.00    +0.000 C 
ATOM      6  O   UNL     1       4.394   3.121  18.419  0.00  0.00    +0.000 OA
ATOM      7  C   UNL     1       3.712   5.355  19.936  0.00  0.00    +0.000 C 
ATOM      8  C   UNL     1       2.390   5.920  20.495  0.00  0.00    +0.000 C 
ENDROOT
BRANCH   1  13
ATOM      9  N   UNL     1       0.383  11.684  19.797  0.00  0.00    +0.000 N 
ATOM     10  C   UNL     1       1.115  12.022  18.575  0.00  0.00    +0.000 C 
ATOM     11  C   UNL     1       0.796  10.513  20.480  0.00  0.00    +0.000 A 
ATOM     12  C   UNL     1       1.222   9.401  19.778  0.00  0.00    +0.000 A 
ATOM     13  C   UNL     1       1.555   8.245  20.459  0.00  0.00    +0.000 A 
ATOM     14  N   UNL     1       1.464   8.191  21.793  0.00  0.00    +0.000 NA
ATOM     15  C   UNL     1       1.070   9.312  22.410  0.00  0.00    +0.000 A 
ATOM     16  N   UNL     1       0.725  10.464  21.822  0.00  0.00    +0.000 NA
BRANCH   9  22
ATOM     17  C   UNL     1      -4.435  12.733  20.172  0.00  0.00    +0.000 C 
ATOM     18  C   UNL     1      -3.011  13.122  20.431  0.00  0.00    +0.000 A 
ATOM     19  C   UNL     1      -2.687  14.338  21.031  0.00  0.00    +0.000 A 
ATOM     20  C   UNL     1      -1.353  14.670  21.253  0.00  0.00    +0.000 A 
ATOM     21  C   UNL     1      -0.334  13.795  20.865  0.00  0.00    +0.000 A 
ATOM     22  C   UNL     1      -0.620  12.569  20.246  0.00  0.00    +0.000 A 
ATOM     23  C   UNL     1      -1.977  12.252  20.052  0.00  0.00    +0.000 A 
ENDBRANCH   9  22
ENDBRANCH   1  13
BRANCH   5  24
ATOM     24  C   UNL     1       4.102   4.153  16.275  0.00  0.00    +0.000 C 
BRANCH  24  25
ATOM     25  C   UNL     1       5.415   4.598  15.701  0.00  0.00    +0.000 A 
ATOM     26  C   UNL     1       6.367   5.375  16.336  0.00  0.00    +0.000 A 
ATOM     27  N   UNL     1       7.397   5.603  15.466  0.00  0.00    +0.000 N 
ATOM     28  C   UNL     1       7.145   4.995  14.260  0.00  0.00    +0.000 A 
ATOM     29  C   UNL     1       7.904   4.981  13.083  0.00  0.00    +0.000 A 
ATOM     30  C   UNL     1       7.389   4.288  11.986  0.00  0.00    +0.000 A 
ATOM     31  C   UNL     1       6.163   3.633  12.065  0.00  0.00    +0.000 A 
ATOM     32  C   UNL     1       5.415   3.657  13.251  0.00  0.00    +0.000 A 
ATOM     33  C   UNL     1       5.908   4.352  14.376  0.00  0.00    +0.000 A 
ATOM     34  H   UNL     1       8.217   6.158  15.667  0.00  0.00    +0.000 HD
ENDBRANCH  24  25
ENDBRANCH   5  24
TORSDOF 4
ENDMDL
MODEL 6
REMARK VINA RESULT:      -8.9      2.914      4.495
REMARK  Name = 
REMARK  6 active torsions:
REMARK  status: ('A' for Active; 'I' for Inactive)
REMARK    1  A    between atoms: C_1  and  C_2
REMARK    2  A    between atoms: C_6  and  N_7
REMARK    3  A    between atoms: N_7  and  C_8
REMARK    4  A    between atoms: C_11  and  N_12
REMARK    5  A    between atoms: C_16  and  C_18
REMARK    6  A    between atoms: C_18  and  C_19
REMARK                            x       y       z     vdW  Elec       q    Type
REMARK                         _______ _______ _______ _____ _____    ______ ____
ROOT
ATOM      1  N   UNL     1       1.988   7.130  19.764  0.00  0.00    +0.000 N 
ATOM      2  C   UNL     1       1.962   7.034  18.304  0.00  0.00    +0.000 C 
ATOM      3  C   UNL     1       3.325   6.542  17.807  0.00  0.00    +0.000 C 
ATOM      4  N   UNL     1       3.707   5.289  18.463  0.00  0.00    +0.000 N 
ATOM      5  C   UNL     1       4.074   4.126  17.809  0.00  0.00    +0.000 C 
ATOM      6  O   UNL     1       4.376   3.102  18.433  0.00  0.00    +0.000 OA
ATOM      7  C   UNL     1       3.691   5.344  19.937  0.00  0.00    +0.000 C 
ATOM      8  C   UNL     1       2.368   5.913  20.490  0.00  0.00    +0.000 C 
ENDROOT
BRANCH   1  13
ATOM      9  N   UNL     1       0.400  11.686  19.761  0.00  0.00    +0.000 N 
ATOM     10  C   UNL     1       1.152  12.019  18.549  0.00  0.00    +0.000 C 
ATOM     11  C   UNL     1       0.794  10.512  20.450  0.00  0.00    +0.000 A 
ATOM     12  C   UNL     1       1.222   9.397  19.754  0.00  0.00    +0.000 A 
ATOM     13  C   UNL     1       1.536   8.239  20.440  0.00  0.00    +0.000 A 
ATOM     14  N   UNL     1       1.426   8.185  21.772  0.00  0.00    +0.000 NA
ATOM     15  C   UNL     1       1.031   9.309  22.383  0.00  0.00    +0.000 A 
ATOM     16  N   UNL     1       0.704  10.464  21.791  0.00  0.00    +0.000 NA
BRANCH   9  22
ATOM     17  C   UNL     1      -0.764  15.849  22.164  0.00  0.00    +0.000 C 
ATOM     18  C   UNL     1      -1.208  14.639  21.399  0.00  0.00    +0.000 A 
ATOM     19  C   UNL     1      -2.560  14.372  21.182  0.00  0.00    +0.000 A 
ATOM     20  C   UNL     1      -2.939  13.236  20.472  0.00  0.00    +0.000 A 
ATOM     21  C   UNL     1      -1.970  12.353  19.985  0.00  0.00    +0.000 A 
ATOM     22  C   UNL     1      -0.602  12.580  20.195  0.00  0.00    +0.000 A 
ATOM     23  C   UNL     1      -0.249  13.746  20.900  0.00  0.00    +0.000 A 
ENDBRANCH   9  22
ENDBRANCH   1  13
BRANCH   5  24
ATOM     24  C   UNL     1       4.091   4.124  16.283  0.00  0.00    +0.000 C 
BRANCH  24  25
ATOM     25  C   UNL     1       5.404   4.573  15.711  0.00  0.00    +0.000 A 
ATOM     26  C   UNL     1       6.358   5.341  16.350  0.00  0.00    +0.000 A 
ATOM     27  N   UNL     1       7.387   5.576  15.481  0.00  0.00    +0.000 N 
ATOM     28  C   UNL     1       7.131   4.980  14.270  0.00  0.00    +0.000 A 
ATOM     29  C   UNL     1       7.888   4.976  13.091  0.00  0.00    +0.000 A 
ATOM     30  C   UNL     1       7.370   4.294  11.989  0.00  0.00    +0.000 A 
ATOM     31  C   UNL     1       6.143   3.641  12.064  0.00  0.00    +0.000 A 
ATOM     32  C   UNL     1       5.397   3.655  13.251  0.00  0.00    +0.000 A 
ATOM     33  C   UNL     1       5.894   4.338  14.382  0.00  0.00    +0.000 A 
ATOM     34  H   UNL     1       8.208   6.128  15.686  0.00  0.00    +0.000 HD
ENDBRANCH  24  25
ENDBRANCH   5  24
TORSDOF 4
ENDMDL
MODEL 7
REMARK VINA RESULT:      -8.8      3.700      5.572
REMARK  Name = 
REMARK  6 active torsions:
REMARK  status: ('A' for Active; 'I' for Inactive)
REMARK    1  A    between atoms: C_1  and  C_2
REMARK    2  A    between atoms: C_6  and  N_7
REMARK    3  A    between atoms: N_7  and  C_8
REMARK    4  A    between atoms: C_11  and  N_12
REMARK    5  A    between atoms: C_16  and  C_18
REMARK    6  A    between atoms: C_18  and  C_19
REMARK                            x       y       z     vdW  Elec       q    Type
REMARK                         _______ _______ _______ _____ _____    ______ ____
ROOT
ATOM      1  N   UNL     1       0.085  11.347  20.788  0.00  0.00    +0.000 N 
ATOM      2  C   UNL     1       0.781  10.250  21.460  0.00  0.00    +0.000 C 
ATOM      3  C   UNL     1       0.631   8.973  20.625  0.00  0.00    +0.000 C 
ATOM      4  N   UNL     1       1.080   9.187  19.247  0.00  0.00    +0.000 N 
ATOM      5  C   UNL     1       2.018   8.414  18.585  0.00  0.00    +0.000 C 
ATOM      6  O   UNL     1       2.353   8.662  17.421  0.00  0.00    +0.000 OA
ATOM      7  C   UNL     1       0.430  10.321  18.564  0.00  0.00    +0.000 C 
ATOM      8  C   UNL     1       0.478  11.616  19.401  0.00  0.00    +0.000 C 
ENDROOT
BRANCH   1  13
ATOM      9  N   UNL     1      -4.324  13.216  21.379  0.00  0.00    +0.000 N 
ATOM     10  C   UNL     1      -4.661  13.045  19.964  0.00  0.00    +0.000 C 
ATOM     11  C   UNL     1      -2.950  13.155  21.717  0.00  0.00    +0.000 A 
ATOM     12  C   UNL     1      -2.101  12.285  21.060  0.00  0.00    +0.000 A 
ATOM     13  C   UNL     1      -0.778  12.190  21.450  0.00  0.00    +0.000 A 
ATOM     14  N   UNL     1      -0.312  12.931  22.461  0.00  0.00    +0.000 NA
ATOM     15  C   UNL     1      -1.182  13.771  23.035  0.00  0.00    +0.000 A 
ATOM     16  N   UNL     1      -2.475  13.915  22.720  0.00  0.00    +0.000 NA
BRANCH   9  22
ATOM     17  C   UNL     1      -7.607  16.476  23.129  0.00  0.00    +0.000 C 
ATOM     18  C   UNL     1      -6.999  15.107  23.186  0.00  0.00    +0.000 A 
ATOM     19  C   UNL     1      -7.401  14.172  24.139  0.00  0.00    +0.000 A 
ATOM     20  C   UNL     1      -6.812  12.911  24.168  0.00  0.00    +0.000 A 
ATOM     21  C   UNL     1      -5.809  12.580  23.252  0.00  0.00    +0.000 A 
ATOM     22  C   UNL     1      -5.367  13.498  22.287  0.00  0.00    +0.000 A 
ATOM     23  C   UNL     1      -5.995  14.758  22.271  0.00  0.00    +0.000 A 
ENDBRANCH   9  22
ENDBRANCH   1  13
BRANCH   5  24
ATOM     24  C   UNL     1       2.650   7.241  19.329  0.00  0.00    +0.000 C 
BRANCH  24  25
ATOM     25  C   UNL     1       2.942   6.070  18.437  0.00  0.00    +0.000 A 
ATOM     26  C   UNL     1       2.151   4.949  18.267  0.00  0.00    +0.000 A 
ATOM     27  N   UNL     1       2.784   4.091  17.411  0.00  0.00    +0.000 N 
ATOM     28  C   UNL     1       3.987   4.620  17.011  0.00  0.00    +0.000 A 
ATOM     29  C   UNL     1       4.968   4.086  16.166  0.00  0.00    +0.000 A 
ATOM     30  C   UNL     1       6.118   4.845  15.945  0.00  0.00    +0.000 A 
ATOM     31  C   UNL     1       6.280   6.090  16.546  0.00  0.00    +0.000 A 
ATOM     32  C   UNL     1       5.289   6.611  17.391  0.00  0.00    +0.000 A 
ATOM     33  C   UNL     1       4.115   5.865  17.635  0.00  0.00    +0.000 A 
ATOM     34  H   UNL     1       2.433   3.186  17.129  0.00  0.00    +0.000 HD
ENDBRANCH  24  25
ENDBRANCH   5  24
TORSDOF 4
ENDMDL
MODEL 8
REMARK VINA RESULT:      -8.8      3.841      6.022
REMARK  Name = 
REMARK  6 active torsions:
REMARK  status: ('A' for Active; 'I' for Inactive)
REMARK    1  A    between atoms: C_1  and  C_2
REMARK    2  A    between atoms: C_6  and  N_7
REMARK    3  A    between atoms: N_7  and  C_8
REMARK    4  A    between atoms: C_11  and  N_12
REMARK    5  A    between atoms: C_16  and  C_18
REMARK    6  A    between atoms: C_18  and  C_19
REMARK                            x       y       z     vdW  Elec       q    Type
REMARK                         _______ _______ _______ _____ _____    ______ ____
ROOT
ATOM      1  N   UNL     1      -0.062  11.208  21.066  0.00  0.00    +0.000 N 
ATOM      2  C   UNL     1       0.782  10.247  21.777  0.00  0.00    +0.000 C 
ATOM      3  C   UNL     1       0.657   8.875  21.105  0.00  0.00    +0.000 C 
ATOM      4  N   UNL     1       0.952   8.958  19.673  0.00  0.00    +0.000 N 
ATOM      5  C   UNL     1       1.882   8.181  19.004  0.00  0.00    +0.000 C 
ATOM      6  O   UNL     1       2.082   8.315  17.791  0.00  0.00    +0.000 OA
ATOM      7  C   UNL     1       0.150   9.957  18.943  0.00  0.00    +0.000 C 
ATOM      8  C   UNL     1       0.173  11.341  19.625  0.00  0.00    +0.000 C 
ENDROOT
BRANCH   1  13
ATOM      9  N   UNL     1      -4.406  13.264  21.497  0.00  0.00    +0.000 N 
ATOM     10  C   UNL     1      -4.663  13.180  20.058  0.00  0.00    +0.000 C 
ATOM     11  C   UNL     1      -3.058  13.118  21.910  0.00  0.00    +0.000 A 
ATOM     12  C   UNL     1      -2.213  12.239  21.259  0.00  0.00    +0.000 A 
ATOM     13  C   UNL     1      -0.923  12.059  21.720  0.00  0.00    +0.000 A 
ATOM     14  N   UNL     1      -0.484  12.725  22.794  0.00  0.00    +0.000 NA
ATOM     15  C   UNL     1      -1.347  13.579  23.359  0.00  0.00    +0.000 A 
ATOM     16  N   UNL     1      -2.610  13.803  22.977  0.00  0.00    +0.000 NA
BRANCH   9  22
ATOM     17  C   UNL     1      -7.647  16.588  23.202  0.00  0.00    +0.000 C 
ATOM     18  C   UNL     1      -7.101  15.193  23.232  0.00  0.00    +0.000 A 
ATOM     19  C   UNL     1      -7.595  14.237  24.119  0.00  0.00    +0.000 A 
ATOM     20  C   UNL     1      -7.062  12.951  24.124  0.00  0.00    +0.000 A 
ATOM     21  C   UNL     1      -6.022  12.616  23.252  0.00  0.00    +0.000 A 
ATOM     22  C   UNL     1      -5.487  13.553  22.356  0.00  0.00    +0.000 A 
ATOM     23  C   UNL     1      -6.060  14.839  22.360  0.00  0.00    +0.000 A 
ENDBRANCH   9  22
ENDBRANCH   1  13
BRANCH   5  24
ATOM     24  C   UNL     1       2.676   7.149  19.800  0.00  0.00    +0.000 C 
BRANCH  24  25
ATOM     25  C   UNL     1       2.052   5.784  19.776  0.00  0.00    +0.000 A 
ATOM     26  C   UNL     1       1.111   5.296  20.664  0.00  0.00    +0.000 A 
ATOM     27  N   UNL     1       0.830   3.999  20.335  0.00  0.00    +0.000 N 
ATOM     28  C   UNL     1       1.572   3.613  19.245  0.00  0.00    +0.000 A 
ATOM     29  C   UNL     1       1.626   2.379  18.584  0.00  0.00    +0.000 A 
ATOM     30  C   UNL     1       2.496   2.260  17.500  0.00  0.00    +0.000 A 
ATOM     31  C   UNL     1       3.282   3.335  17.093  0.00  0.00    +0.000 A 
ATOM     32  C   UNL     1       3.218   4.564  17.766  0.00  0.00    +0.000 A 
ATOM     33  C   UNL     1       2.348   4.713  18.868  0.00  0.00    +0.000 A 
ATOM     34  H   UNL     1       0.188   3.398  20.833  0.00  0.00    +0.000 HD
ENDBRANCH  24  25
ENDBRANCH   5  24
TORSDOF 4
ENDMDL
MODEL 9
REMARK VINA RESULT:      -8.7      3.533      5.178
REMARK  Name = 
REMARK  6 active torsions:
REMARK  status: ('A' for Active; 'I' for Inactive)
REMARK    1  A    between atoms: C_1  and  C_2
REMARK    2  A    between atoms: C_6  and  N_7
REMARK    3  A    between atoms: N_7  and  C_8
REMARK    4  A    between atoms: C_11  and  N_12
REMARK    5  A    between atoms: C_16  and  C_18
REMARK    6  A    between atoms: C_18  and  C_19
REMARK                            x       y       z     vdW  Elec       q    Type
REMARK                         _______ _______ _______ _____ _____    ______ ____
ROOT
ATOM      1  N   UNL     1      -0.456  10.720  20.320  0.00  0.00    +0.000 N 
ATOM      2  C   UNL     1      -0.144  10.337  18.943  0.00  0.00    +0.000 C 
ATOM      3  C   UNL     1       1.300   9.829  18.877  0.00  0.00    +0.000 C 
ATOM      4  N   UNL     1       1.526   8.751  19.843  0.00  0.00    +0.000 N 
ATOM      5  C   UNL     1       2.042   7.503  19.540  0.00  0.00    +0.000 C 
ATOM      6  O   UNL     1       2.197   6.640  20.411  0.00  0.00    +0.000 OA
ATOM      7  C   UNL     1       1.170   9.095  21.233  0.00  0.00    +0.000 C 
ATOM      8  C   UNL     1      -0.248   9.692  21.346  0.00  0.00    +0.000 C 
ENDROOT
BRANCH   1  13
ATOM      9  N   UNL     1      -2.993  13.461  23.376  0.00  0.00    +0.000 N 
ATOM     10  C   UNL     1      -3.677  12.302  23.954  0.00  0.00    +0.000 C 
ATOM     11  C   UNL     1      -2.356  13.264  22.126  0.00  0.00    +0.000 A 
ATOM     12  C   UNL     1      -1.733  12.065  21.834  0.00  0.00    +0.000 A 
ATOM     13  C   UNL     1      -1.059  11.916  20.636  0.00  0.00    +0.000 A 
ATOM     14  N   UNL     1      -1.000  12.923  19.758  0.00  0.00    +0.000 NA
ATOM     15  C   UNL     1      -1.648  14.045  20.094  0.00  0.00    +0.000 A 
ATOM     16  N   UNL     1      -2.315  14.268  21.233  0.00  0.00    +0.000 NA
BRANCH   9  22
ATOM     17  C   UNL     1      -0.877  16.712  26.445  0.00  0.00    +0.000 C 
ATOM     18  C   UNL     1      -2.047  16.321  25.593  0.00  0.00    +0.000 A 
ATOM     19  C   UNL     1      -3.194  17.111  25.527  0.00  0.00    +0.000 A 
ATOM     20  C   UNL     1      -4.266  16.717  24.730  0.00  0.00    +0.000 A 
ATOM     21  C   UNL     1      -4.202  15.524  24.004  0.00  0.00    +0.000 A 
ATOM     22  C   UNL     1      -3.072  14.695  24.056  0.00  0.00    +0.000 A 
ATOM     23  C   UNL     1      -1.998  15.129  24.855  0.00  0.00    +0.000 A 
ENDBRANCH   9  22
ENDBRANCH   1  13
BRANCH   5  24
ATOM     24  C   UNL     1       2.410   7.202  18.090  0.00  0.00    +0.000 C 
BRANCH  24  25
ATOM     25  C   UNL     1       3.229   5.952  17.942  0.00  0.00    +0.000 A 
ATOM     26  C   UNL     1       4.568   5.883  17.604  0.00  0.00    +0.000 A 
ATOM     27  N   UNL     1       4.932   4.568  17.523  0.00  0.00    +0.000 N 
ATOM     28  C   UNL     1       3.856   3.759  17.797  0.00  0.00    +0.000 A 
ATOM     29  C   UNL     1       3.761   2.362  17.808  0.00  0.00    +0.000 A 
ATOM     30  C   UNL     1       2.521   1.797  18.108  0.00  0.00    +0.000 A 
ATOM     31  C   UNL     1       1.418   2.600  18.386  0.00  0.00    +0.000 A 
ATOM     32  C   UNL     1       1.529   3.998  18.369  0.00  0.00    +0.000 A 
ATOM     33  C   UNL     1       2.771   4.598  18.067  0.00  0.00    +0.000 A 
ATOM     34  H   UNL     1       5.853   4.233  17.274  0.00  0.00    +0.000 HD
ENDBRANCH  24  25
ENDBRANCH   5  24
TORSDOF 4
ENDMDL
