MODEL 1
REMARK VINA RESULT:      -7.4      0.000      0.000
REMARK  Name = 
REMARK  4 active torsions:
REMARK  status: ('A' for Active; 'I' for Inactive)
REMARK    1  A    between atoms: N_1  and  C_2
REMARK    2  A    between atoms: C_2  and  C_3
REMARK    3  A    between atoms: C_3  and  C_4
REMARK    4  A    between atoms: N_8  and  C_9
REMARK                            x       y       z     vdW  Elec       q    Type
REMARK                         _______ _______ _______ _____ _____    ______ ____
ROOT
ATOM      1  C   UNL     1       6.067   5.717  16.740  0.00  0.00    +0.000 C 
ATOM      2  C   UNL     1       6.803   4.458  16.257  0.00  0.00    +0.000 C 
ATOM      3  N   UNL     1       5.725   3.484  16.250  0.00  0.00    +0.000 N 
ATOM      4  C   UNL     1       4.777   3.957  17.110  0.00  0.00    +0.000 C 
ATOM      5  N   UNL     1       3.893   3.016  17.536  0.00  0.00    +0.000 N 
ATOM      6  N   UNL     1       4.858   5.210  17.459  0.00  0.00    +0.000 NA
ATOM      7  H   UNL     1       6.014   2.535  16.449  0.00  0.00    +0.000 HD
ATOM      8  H   UNL     1       3.481   2.448  16.808  0.00  0.00    +0.000 HD
ENDROOT
BRANCH   5   9
ATOM      9  C   UNL     1       3.094   3.169  18.690  0.00  0.00    +0.000 A 
ATOM     10  C   UNL     1       3.548   2.715  19.935  0.00  0.00    +0.000 A 
ATOM     11  F   UNL     1       4.762   2.148  20.027  0.00  0.00    +0.000 F 
ATOM     12  C   UNL     1       2.778   2.836  21.091  0.00  0.00    +0.000 A 
ATOM     13  C   UNL     1       1.514   3.427  21.024  0.00  0.00    +0.000 A 
ATOM     14  C   UNL     1       1.041   3.893  19.801  0.00  0.00    +0.000 A 
ATOM     15  C   UNL     1       1.824   3.768  18.656  0.00  0.00    +0.000 A 
ATOM     16  F   UNL     1       1.355   4.312  17.522  0.00  0.00    +0.000 F 
ENDBRANCH   5   9
BRANCH   1  17
ATOM     17  C   UNL     1       6.875   6.583  17.708  0.00  0.00    +0.000 C 
BRANCH  17  18
ATOM     18  C   UNL     1       7.711   5.794  18.714  0.00  0.00    +0.000 C 
BRANCH  18  19
ATOM     19  N   UNL     1       6.905   5.296  19.821  0.00  0.00    +0.000 NA
ATOM     20  H   UNL     1       6.610   4.339  19.624  0.00  0.00    +0.000 HD
ATOM     21  H   UNL     1       6.047   5.844  19.889  0.00  0.00    +0.000 HD
ENDBRANCH  18  19
ENDBRANCH  17  18
ENDBRANCH   1  17
TORSDOF 4
ENDMDL
MODEL 2
REMARK VINA RESULT:      -7.4      0.063      2.003
REMARK  Name = 
REMARK  4 active torsions:
REMARK  status: ('A' for Active; 'I' for Inactive)
REMARK    1  A    between atoms: N_1  and  C_2
REMARK    2  A    between atoms: C_2  and  C_3
REMARK    3  A    between atoms: C_3  and  C_4
REMARK    4  A    between atoms: N_8  and  C_9
REMARK                            x       y       z     vdW  Elec       q    Type
REMARK                         _______ _______ _______ _____ _____    ______ ____
ROOT
ATOM      1  C   UNL     1       6.089   5.728  16.744  0.00  0.00    +0.000 C 
ATOM      2  C   UNL     1       6.821   4.476  16.236  0.00  0.00    +0.000 C 
ATOM      3  N   UNL     1       5.744   3.501  16.229  0.00  0.00    +0.000 N 
ATOM      4  C   UNL     1       4.805   3.961  17.105  0.00  0.00    +0.000 C 
ATOM      5  N   UNL     1       3.927   3.015  17.528  0.00  0.00    +0.000 N 
ATOM      6  N   UNL     1       4.889   5.210  17.470  0.00  0.00    +0.000 NA
ATOM      7  H   UNL     1       6.035   2.550  16.412  0.00  0.00    +0.000 HD
ATOM      8  H   UNL     1       3.506   2.455  16.797  0.00  0.00    +0.000 HD
ENDROOT
BRANCH   5   9
ATOM      9  C   UNL     1       3.139   3.152  18.692  0.00  0.00    +0.000 A 
ATOM     10  C   UNL     1       1.881   3.765  18.631  0.00  0.00    +0.000 A 
ATOM     11  F   UNL     1       1.419   4.205  17.450  0.00  0.00    +0.000 F 
ATOM     12  C   UNL     1       1.085   3.930  19.763  0.00  0.00    +0.000 A 
ATOM     13  C   UNL     1       1.539   3.475  21.003  0.00  0.00    +0.000 A 
ATOM     14  C   UNL     1       2.782   2.857  21.092  0.00  0.00    +0.000 A 
ATOM     15  C   UNL     1       3.564   2.696  19.950  0.00  0.00    +0.000 A 
ATOM     16  F   UNL     1       4.715   2.016  20.079  0.00  0.00    +0.000 F 
ENDBRANCH   5   9
BRANCH   1  17
ATOM     17  C   UNL     1       6.907   6.582  17.715  0.00  0.00    +0.000 C 
BRANCH  17  18
ATOM     18  C   UNL     1       7.730   5.780  18.722  0.00  0.00    +0.000 C 
BRANCH  18  19
ATOM     19  N   UNL     1       6.916   5.299  19.830  0.00  0.00    +0.000 NA
ATOM     20  H   UNL     1       6.073   5.868  19.905  0.00  0.00    +0.000 HD
ATOM     21  H   UNL     1       7.423   5.432  20.706  0.00  0.00    +0.000 HD
ENDBRANCH  18  19
ENDBRANCH  17  18
ENDBRANCH   1  17
TORSDOF 4
ENDMDL
MODEL 3
REMARK VINA RESULT:      -7.0      1.060      2.283
REMARK  Name = 
REMARK  4 active torsions:
REMARK  status: ('A' for Active; 'I' for Inactive)
REMARK    1  A    between atoms: N_1  and  C_2
REMARK    2  A    between atoms: C_2  and  C_3
REMARK    3  A    between atoms: C_3  and  C_4
REMARK    4  A    between atoms: N_8  and  C_9
REMARK                            x       y       z     vdW  Elec       q    Type
REMARK                         _______ _______ _______ _____ _____    ______ ____
ROOT
ATOM      1  C   UNL     1       6.476   5.547  17.460  0.00  0.00    +0.000 C 
ATOM      2  C   UNL     1       6.944   4.337  16.637  0.00  0.00    +0.000 C 
ATOM      3  N   UNL     1       5.689   3.635  16.426  0.00  0.00    +0.000 N 
ATOM      4  C   UNL     1       4.849   4.047  17.419  0.00  0.00    +0.000 C 
ATOM      5  N   UNL     1       3.788   3.224  17.628  0.00  0.00    +0.000 N 
ATOM      6  N   UNL     1       5.182   5.123  18.076  0.00  0.00    +0.000 NA
ATOM      7  H   UNL     1       5.775   2.629  16.361  0.00  0.00    +0.000 HD
ATOM      8  H   UNL     1       3.274   2.960  16.796  0.00  0.00    +0.000 HD
ENDROOT
BRANCH   5   9
ATOM      9  C   UNL     1       3.024   3.228  18.815  0.00  0.00    +0.000 A 
ATOM     10  C   UNL     1       1.745   3.799  18.836  0.00  0.00    +0.000 A 
ATOM     11  F   UNL     1       1.240   4.327  17.710  0.00  0.00    +0.000 F 
ATOM     12  C   UNL     1       0.970   3.833  19.995  0.00  0.00    +0.000 A 
ATOM     13  C   UNL     1       1.469   3.286  21.179  0.00  0.00    +0.000 A 
ATOM     14  C   UNL     1       2.735   2.706  21.185  0.00  0.00    +0.000 A 
ATOM     15  C   UNL     1       3.494   2.677  20.018  0.00  0.00    +0.000 A 
ATOM     16  F   UNL     1       4.670   2.029  20.060  0.00  0.00    +0.000 F 
ENDBRANCH   5   9
BRANCH   1  17
ATOM     17  C   UNL     1       7.434   5.950  18.582  0.00  0.00    +0.000 C 
BRANCH  17  18
ATOM     18  C   UNL     1       8.089   7.318  18.392  0.00  0.00    +0.000 C 
BRANCH  18  19
ATOM     19  N   UNL     1       7.591   7.999  17.204  0.00  0.00    +0.000 NA
ATOM     20  H   UNL     1       7.919   8.966  17.204  0.00  0.00    +0.000 HD
ATOM     21  H   UNL     1       6.573   8.049  17.243  0.00  0.00    +0.000 HD
ENDBRANCH  18  19
ENDBRANCH  17  18
ENDBRANCH   1  17
TORSDOF 4
ENDMDL
MODEL 4
REMARK VINA RESULT:      -7.0      1.074      1.109
REMARK  Name = 
REMARK  4 active torsions:
REMARK  status: ('A' for Active; 'I' for Inactive)
REMARK    1  A    between atoms: N_1  and  C_2
REMARK    2  A    between atoms: C_2  and  C_3
REMARK    3  A    between atoms: C_3  and  C_4
REMARK    4  A    between atoms: N_8  and  C_9
REMARK                            x       y       z     vdW  Elec       q    Type
REMARK                         _______ _______ _______ _____ _____    ______ ____
ROOT
ATOM      1  C   UNL     1       6.424   5.587  17.511  0.00  0.00    +0.000 C 
ATOM      2  C   UNL     1       6.947   4.368  16.736  0.00  0.00    +0.000 C 
ATOM      3  N   UNL     1       5.717   3.627  16.509  0.00  0.00    +0.000 N 
ATOM      4  C   UNL     1       4.838   4.044  17.466  0.00  0.00    +0.000 C 
ATOM      5  N   UNL     1       3.792   3.200  17.666  0.00  0.00    +0.000 N 
ATOM      6  N   UNL     1       5.124   5.145  18.101  0.00  0.00    +0.000 NA
ATOM      7  H   UNL     1       5.831   2.623  16.474  0.00  0.00    +0.000 HD
ATOM      8  H   UNL     1       3.311   2.900  16.828  0.00  0.00    +0.000 HD
ENDROOT
BRANCH   5   9
ATOM      9  C   UNL     1       2.994   3.215  18.831  0.00  0.00    +0.000 A 
ATOM     10  C   UNL     1       3.470   2.659  20.025  0.00  0.00    +0.000 A 
ATOM     11  F   UNL     1       4.702   2.127  20.060  0.00  0.00    +0.000 F 
ATOM     12  C   UNL     1       2.703   2.644  21.189  0.00  0.00    +0.000 A 
ATOM     13  C   UNL     1       1.420   3.196  21.182  0.00  0.00    +0.000 A 
ATOM     14  C   UNL     1       0.924   3.761  20.010  0.00  0.00    +0.000 A 
ATOM     15  C   UNL     1       1.706   3.771  18.857  0.00  0.00    +0.000 A 
ATOM     16  F   UNL     1       1.212   4.406  17.781  0.00  0.00    +0.000 F 
ENDBRANCH   5   9
BRANCH   1  17
ATOM     17  C   UNL     1       7.338   6.046  18.649  0.00  0.00    +0.000 C 
BRANCH  17  18
ATOM     18  C   UNL     1       8.121   7.324  18.353  0.00  0.00    +0.000 C 
BRANCH  18  19
ATOM     19  N   UNL     1       7.523   8.090  17.267  0.00  0.00    +0.000 NA
ATOM     20  H   UNL     1       8.196   8.183  16.506  0.00  0.00    +0.000 HD
ATOM     21  H   UNL     1       7.331   9.039  17.588  0.00  0.00    +0.000 HD
ENDBRANCH  18  19
ENDBRANCH  17  18
ENDBRANCH   1  17
TORSDOF 4
ENDMDL
MODEL 5
REMARK VINA RESULT:      -6.8      3.470      5.259
REMARK  Name = 
REMARK  4 active torsions:
REMARK  status: ('A' for Active; 'I' for Inactive)
REMARK    1  A    between atoms: N_1  and  C_2
REMARK    2  A    between atoms: C_2  and  C_3
REMARK    3  A    between atoms: C_3  and  C_4
REMARK    4  A    between atoms: N_8  and  C_9
REMARK                            x       y       z     vdW  Elec       q    Type
REMARK                         _______ _______ _______ _____ _____    ______ ____
ROOT
ATOM      1  C   UNL     1       6.749   3.647  12.799  0.00  0.00    +0.000 C 
ATOM      2  C   UNL     1       7.433   4.901  12.231  0.00  0.00    +0.000 C 
ATOM      3  N   UNL     1       7.974   5.500  13.440  0.00  0.00    +0.000 N 
ATOM      4  C   UNL     1       7.232   5.010  14.475  0.00  0.00    +0.000 C 
ATOM      5  N   UNL     1       7.320   5.741  15.617  0.00  0.00    +0.000 N 
ATOM      6  N   UNL     1       6.499   3.958  14.240  0.00  0.00    +0.000 NA
ATOM      7  H   UNL     1       8.025   6.510  13.422  0.00  0.00    +0.000 HD
ATOM      8  H   UNL     1       8.260   5.971  15.913  0.00  0.00    +0.000 HD
ENDROOT
BRANCH   5   9
ATOM      9  C   UNL     1       6.374   5.662  16.663  0.00  0.00    +0.000 A 
ATOM     10  C   UNL     1       6.669   4.954  17.835  0.00  0.00    +0.000 A 
ATOM     11  F   UNL     1       7.869   4.365  17.966  0.00  0.00    +0.000 F 
ATOM     12  C   UNL     1       5.754   4.843  18.881  0.00  0.00    +0.000 A 
ATOM     13  C   UNL     1       4.501   5.451  18.774  0.00  0.00    +0.000 A 
ATOM     14  C   UNL     1       4.184   6.166  17.623  0.00  0.00    +0.000 A 
ATOM     15  C   UNL     1       5.112   6.271  16.589  0.00  0.00    +0.000 A 
ATOM     16  F   UNL     1       4.786   7.044  15.540  0.00  0.00    +0.000 F 
ENDBRANCH   5   9
BRANCH   1  17
ATOM     17  C   UNL     1       5.410   3.312  12.140  0.00  0.00    +0.000 C 
BRANCH  17  18
ATOM     18  C   UNL     1       5.399   1.992  11.370  0.00  0.00    +0.000 C 
BRANCH  18  19
ATOM     19  N   UNL     1       6.721   1.381  11.317  0.00  0.00    +0.000 NA
ATOM     20  H   UNL     1       6.629   0.392  11.083  0.00  0.00    +0.000 HD
ATOM     21  H   UNL     1       7.146   1.411  12.244  0.00  0.00    +0.000 HD
ENDBRANCH  18  19
ENDBRANCH  17  18
ENDBRANCH   1  17
TORSDOF 4
ENDMDL
MODEL 6
REMARK VINA RESULT:      -6.7      3.464      5.618
REMARK  Name = 
REMARK  4 active torsions:
REMARK  status: ('A' for Active; 'I' for Inactive)
REMARK    1  A    between atoms: N_1  and  C_2
REMARK    2  A    between atoms: C_2  and  C_3
REMARK    3  A    between atoms: C_3  and  C_4
REMARK    4  A    between atoms: N_8  and  C_9
REMARK                            x       y       z     vdW  Elec       q    Type
REMARK                         _______ _______ _______ _____ _____    ______ ____
ROOT
ATOM      1  C   UNL     1       6.756   3.662  12.809  0.00  0.00    +0.000 C 
ATOM      2  C   UNL     1       7.426   4.921  12.237  0.00  0.00    +0.000 C 
ATOM      3  N   UNL     1       7.960   5.532  13.443  0.00  0.00    +0.000 N 
ATOM      4  C   UNL     1       7.224   5.037  14.480  0.00  0.00    +0.000 C 
ATOM      5  N   UNL     1       7.304   5.773  15.619  0.00  0.00    +0.000 N 
ATOM      6  N   UNL     1       6.504   3.975  14.249  0.00  0.00    +0.000 NA
ATOM      7  H   UNL     1       7.999   6.542  13.421  0.00  0.00    +0.000 HD
ATOM      8  H   UNL     1       8.241   6.016  15.914  0.00  0.00    +0.000 HD
ENDROOT
BRANCH   5   9
ATOM      9  C   UNL     1       6.360   5.687  16.666  0.00  0.00    +0.000 A 
ATOM     10  C   UNL     1       5.120   6.330  16.559  0.00  0.00    +0.000 A 
ATOM     11  F   UNL     1       4.826   7.015  15.442  0.00  0.00    +0.000 F 
ATOM     12  C   UNL     1       4.171   6.279  17.580  0.00  0.00    +0.000 A 
ATOM     13  C   UNL     1       4.449   5.568  18.750  0.00  0.00    +0.000 A 
ATOM     14  C   UNL     1       5.671   4.915  18.880  0.00  0.00    +0.000 A 
ATOM     15  C   UNL     1       6.606   4.973  17.849  0.00  0.00    +0.000 A 
ATOM     16  F   UNL     1       7.731   4.253  17.992  0.00  0.00    +0.000 F 
ENDBRANCH   5   9
BRANCH   1  17
ATOM     17  C   UNL     1       5.421   3.308  12.152  0.00  0.00    +0.000 C 
BRANCH  17  18
ATOM     18  C   UNL     1       5.430   1.994  11.372  0.00  0.00    +0.000 C 
BRANCH  18  19
ATOM     19  N   UNL     1       6.759   1.397  11.326  0.00  0.00    +0.000 NA
ATOM     20  H   UNL     1       7.238   1.564  12.212  0.00  0.00    +0.000 HD
ATOM     21  H   UNL     1       7.318   1.868  10.614  0.00  0.00    +0.000 HD
ENDBRANCH  18  19
ENDBRANCH  17  18
ENDBRANCH   1  17
TORSDOF 4
ENDMDL
MODEL 7
REMARK VINA RESULT:      -6.7      1.721      2.496
REMARK  Name = 
REMARK  4 active torsions:
REMARK  status: ('A' for Active; 'I' for Inactive)
REMARK    1  A    between atoms: N_1  and  C_2
REMARK    2  A    between atoms: C_2  and  C_3
REMARK    3  A    between atoms: C_3  and  C_4
REMARK    4  A    between atoms: N_8  and  C_9
REMARK                            x       y       z     vdW  Elec       q    Type
REMARK                         _______ _______ _______ _____ _____    ______ ____
ROOT
ATOM      1  C   UNL     1       6.109   4.442  16.006  0.00  0.00    +0.000 C 
ATOM      2  C   UNL     1       7.213   4.918  16.963  0.00  0.00    +0.000 C 
ATOM      3  N   UNL     1       6.929   4.120  18.144  0.00  0.00    +0.000 N 
ATOM      4  C   UNL     1       5.617   3.756  18.053  0.00  0.00    +0.000 C 
ATOM      5  N   UNL     1       5.068   3.354  19.229  0.00  0.00    +0.000 N 
ATOM      6  N   UNL     1       5.040   3.886  16.891  0.00  0.00    +0.000 NA
ATOM      7  H   UNL     1       7.164   4.567  19.020  0.00  0.00    +0.000 HD
ATOM      8  H   UNL     1       5.605   2.671  19.747  0.00  0.00    +0.000 HD
ENDROOT
BRANCH   5   9
ATOM      9  C   UNL     1       3.676   3.307  19.460  0.00  0.00    +0.000 A 
ATOM     10  C   UNL     1       2.998   4.433  19.946  0.00  0.00    +0.000 A 
ATOM     11  F   UNL     1       3.681   5.566  20.174  0.00  0.00    +0.000 F 
ATOM     12  C   UNL     1       1.627   4.416  20.199  0.00  0.00    +0.000 A 
ATOM     13  C   UNL     1       0.892   3.252  19.965  0.00  0.00    +0.000 A 
ATOM     14  C   UNL     1       1.539   2.121  19.476  0.00  0.00    +0.000 A 
ATOM     15  C   UNL     1       2.908   2.156  19.224  0.00  0.00    +0.000 A 
ATOM     16  F   UNL     1       3.464   1.065  18.671  0.00  0.00    +0.000 F 
ENDBRANCH   5   9
BRANCH   1  17
ATOM     17  C   UNL     1       5.497   5.554  15.152  0.00  0.00    +0.000 C 
BRANCH  17  18
ATOM     18  C   UNL     1       5.241   6.859  15.905  0.00  0.00    +0.000 C 
BRANCH  18  19
ATOM     19  N   UNL     1       4.217   6.704  16.930  0.00  0.00    +0.000 NA
ATOM     20  H   UNL     1       3.933   7.624  17.268  0.00  0.00    +0.000 HD
ATOM     21  H   UNL     1       4.614   6.220  17.736  0.00  0.00    +0.000 HD
ENDBRANCH  18  19
ENDBRANCH  17  18
ENDBRANCH   1  17
TORSDOF 4
ENDMDL
MODEL 8
REMARK VINA RESULT:      -6.7      1.807      2.659
REMARK  Name = 
REMARK  4 active torsions:
REMARK  status: ('A' for Active; 'I' for Inactive)
REMARK    1  A    between atoms: N_1  and  C_2
REMARK    2  A    between atoms: C_2  and  C_3
REMARK    3  A    between atoms: C_3  and  C_4
REMARK    4  A    between atoms: N_8  and  C_9
REMARK                            x       y       z     vdW  Elec       q    Type
REMARK                         _______ _______ _______ _____ _____    ______ ____
ROOT
ATOM      1  C   UNL     1       6.340   5.954  18.026  0.00  0.00    +0.000 C 
ATOM      2  C   UNL     1       5.848   6.840  16.871  0.00  0.00    +0.000 C 
ATOM      3  N   UNL     1       4.483   7.116  17.286  0.00  0.00    +0.000 N 
ATOM      4  C   UNL     1       4.135   6.116  18.146  0.00  0.00    +0.000 C 
ATOM      5  N   UNL     1       2.796   5.977  18.327  0.00  0.00    +0.000 N 
ATOM      6  N   UNL     1       5.099   5.389  18.639  0.00  0.00    +0.000 NA
ATOM      7  H   UNL     1       3.829   7.240  16.525  0.00  0.00    +0.000 HD
ATOM      8  H   UNL     1       2.296   6.833  18.534  0.00  0.00    +0.000 HD
ENDROOT
BRANCH   5   9
ATOM      9  C   UNL     1       2.199   4.806  18.841  0.00  0.00    +0.000 A 
ATOM     10  C   UNL     1       1.727   4.769  20.159  0.00  0.00    +0.000 A 
ATOM     11  F   UNL     1       1.828   5.867  20.927  0.00  0.00    +0.000 F 
ATOM     12  C   UNL     1       1.146   3.625  20.704  0.00  0.00    +0.000 A 
ATOM     13  C   UNL     1       1.023   2.472  19.926  0.00  0.00    +0.000 A 
ATOM     14  C   UNL     1       1.478   2.482  18.611  0.00  0.00    +0.000 A 
ATOM     15  C   UNL     1       2.052   3.635  18.081  0.00  0.00    +0.000 A 
ATOM     16  F   UNL     1       2.394   3.616  16.782  0.00  0.00    +0.000 F 
ENDBRANCH   5   9
BRANCH   1  17
ATOM     17  C   UNL     1       7.233   4.792  17.588  0.00  0.00    +0.000 C 
BRANCH  17  18
ATOM     18  C   UNL     1       6.963   4.288  16.171  0.00  0.00    +0.000 C 
BRANCH  18  19
ATOM     19  N   UNL     1       5.820   3.387  16.123  0.00  0.00    +0.000 NA
ATOM     20  H   UNL     1       5.106   3.707  16.779  0.00  0.00    +0.000 HD
ATOM     21  H   UNL     1       6.102   2.462  16.447  0.00  0.00    +0.000 HD
ENDBRANCH  18  19
ENDBRANCH  17  18
ENDBRANCH   1  17
TORSDOF 4
ENDMDL
MODEL 9
REMARK VINA RESULT:      -6.7      1.812      2.769
REMARK  Name = 
REMARK  4 active torsions:
REMARK  status: ('A' for Active; 'I' for Inactive)
REMARK    1  A    between atoms: N_1  and  C_2
REMARK    2  A    between atoms: C_2  and  C_3
REMARK    3  A    between atoms: C_3  and  C_4
REMARK    4  A    between atoms: N_8  and  C_9
REMARK                            x       y       z     vdW  Elec       q    Type
REMARK                         _______ _______ _______ _____ _____    ______ ____
ROOT
ATOM      1  C   UNL     1       6.287   6.012  18.053  0.00  0.00    +0.000 C 
ATOM      2  C   UNL     1       5.798   6.851  16.862  0.00  0.00    +0.000 C 
ATOM      3  N   UNL     1       4.418   7.106  17.242  0.00  0.00    +0.000 N 
ATOM      4  C   UNL     1       4.077   6.124  18.126  0.00  0.00    +0.000 C 
ATOM      5  N   UNL     1       2.738   5.959  18.286  0.00  0.00    +0.000 N 
ATOM      6  N   UNL     1       5.048   5.436  18.659  0.00  0.00    +0.000 NA
ATOM      7  H   UNL     1       3.776   7.191  16.465  0.00  0.00    +0.000 HD
ATOM      8  H   UNL     1       2.214   6.808  18.457  0.00  0.00    +0.000 HD
ENDROOT
BRANCH   5   9
ATOM      9  C   UNL     1       2.159   4.790  18.825  0.00  0.00    +0.000 A 
ATOM     10  C   UNL     1       2.029   3.636  18.042  0.00  0.00    +0.000 A 
ATOM     11  F   UNL     1       2.477   3.643  16.776  0.00  0.00    +0.000 F 
ATOM     12  C   UNL     1       1.448   2.469  18.538  0.00  0.00    +0.000 A 
ATOM     13  C   UNL     1       0.978   2.433  19.852  0.00  0.00    +0.000 A 
ATOM     14  C   UNL     1       1.100   3.563  20.655  0.00  0.00    +0.000 A 
ATOM     15  C   UNL     1       1.687   4.719  20.145  0.00  0.00    +0.000 A 
ATOM     16  F   UNL     1       1.858   5.751  20.989  0.00  0.00    +0.000 F 
ENDBRANCH   5   9
BRANCH   1  17
ATOM     17  C   UNL     1       7.216   4.860  17.668  0.00  0.00    +0.000 C 
BRANCH  17  18
ATOM     18  C   UNL     1       6.986   4.306  16.263  0.00  0.00    +0.000 C 
BRANCH  18  19
ATOM     19  N   UNL     1       5.834   3.416  16.210  0.00  0.00    +0.000 NA
ATOM     20  H   UNL     1       5.061   3.887  15.737  0.00  0.00    +0.000 HD
ATOM     21  H   UNL     1       5.508   3.226  17.158  0.00  0.00    +0.000 HD
ENDBRANCH  18  19
ENDBRANCH  17  18
ENDBRANCH   1  17
TORSDOF 4
ENDMDL
