MODEL 1
REMARK VINA RESULT:      -8.3      0.000      0.000
REMARK  Name = 
REMARK  11 active torsions:
REMARK  status: ('A' for Active; 'I' for Inactive)
REMARK    1  A    between atoms: C_1  and  C_2
REMARK    2  A    between atoms: N_4  and  C_5
REMARK    3  A    between atoms: N_4  and  C_6
REMARK    4  A    between atoms: C_6  and  C_7
REMARK    5  A    between atoms: C_6  and  C_14
REMARK    6  A    between atoms: C_7  and  C_8
REMARK    7  A    between atoms: N_16  and  C_17
REMARK    8  A    between atoms: N_16  and  C_18
REMARK    9  A    between atoms: C_18  and  C_19
REMARK   10  A    between atoms: C_18  and  C_26
REMARK   11  A    between atoms: C_19  and  C_20
REMARK                            x       y       z     vdW  Elec       q    Type
REMARK                         _______ _______ _______ _____ _____    ______ ____
ROOT
ATOM      1  C   UNL     1       4.365   5.077  18.666  0.00  0.00    +0.000 C 
ATOM      2  O   UNL     1       4.849   4.175  19.358  0.00  0.00    +0.000 OA
ATOM      3  N   UNL     1       5.197   5.834  17.827  0.00  0.00    +0.000 N 
ATOM      4  C   UNL     1       4.686   6.767  16.831  0.00  0.00    +0.000 C 
ENDROOT
BRANCH   1   5
ATOM      5  C   UNL     1       2.850   5.478  18.861  0.00  0.00    +0.000 C 
BRANCH   5   9
ATOM      6  C   UNL     1       0.742   2.260  18.764  0.00  0.00    +0.000 C 
ATOM      7  C   UNL     1       1.329   3.582  18.310  0.00  0.00    +0.000 C 
ATOM      8  O   UNL     1       1.354   3.881  17.118  0.00  0.00    +0.000 OA
ATOM      9  N   UNL     1       1.927   4.366  19.294  0.00  0.00    +0.000 N 
ATOM     10  C   UNL     1       1.365   4.415  20.649  0.00  0.00    +0.000 C 
ENDBRANCH   5   9
BRANCH   5  11
ATOM     11  C   UNL     1       2.882   6.639  19.903  0.00  0.00    +0.000 C 
BRANCH  11  12
ATOM     12  C   UNL     1       2.023   7.870  19.614  0.00  0.00    +0.000 A 
ATOM     13  C   UNL     1       1.221   8.512  20.576  0.00  0.00    +0.000 A 
ATOM     14  C   UNL     1       0.418   9.605  20.270  0.00  0.00    +0.000 A 
ATOM     15  C   UNL     1       0.386  10.079  18.968  0.00  0.00    +0.000 A 
ATOM     16  C   UNL     1       1.159   9.458  17.990  0.00  0.00    +0.000 A 
ATOM     17  C   UNL     1       1.973   8.367  18.306  0.00  0.00    +0.000 A 
ENDBRANCH  11  12
ENDBRANCH   5  11
ENDBRANCH   1   5
BRANCH   3  18
ATOM     18  C   UNL     1       6.691   5.755  18.047  0.00  0.00    +0.000 C 
BRANCH  18  19
ATOM     19  C   UNL     1       7.555   7.066  17.895  0.00  0.00    +0.000 C 
ATOM     20  N   UNL     1       8.432   7.367  18.906  0.00  0.00    +0.000 N 
ATOM     21  O   UNL     1       7.457   7.885  16.984  0.00  0.00    +0.000 OA
ATOM     22  H   UNL     1       8.638   6.770  19.692  0.00  0.00    +0.000 HD
ATOM     23  H   UNL     1       9.005   8.193  18.778  0.00  0.00    +0.000 HD
ENDBRANCH  18  19
BRANCH  18  24
ATOM     24  C   UNL     1       7.394   4.585  17.295  0.00  0.00    +0.000 C 
BRANCH  24  25
ATOM     25  C   UNL     1       6.972   4.442  15.858  0.00  0.00    +0.000 A 
ATOM     26  C   UNL     1       5.890   3.630  15.511  0.00  0.00    +0.000 A 
ATOM     27  C   UNL     1       5.527   3.480  14.175  0.00  0.00    +0.000 A 
ATOM     28  C   UNL     1       6.240   4.139  13.173  0.00  0.00    +0.000 A 
ATOM     29  C   UNL     1       7.308   4.965  13.513  0.00  0.00    +0.000 A 
ATOM     30  C   UNL     1       7.664   5.123  14.848  0.00  0.00    +0.000 A 
ENDBRANCH  24  25
ENDBRANCH  18  24
ENDBRANCH   3  18
TORSDOF 8
ENDMDL
MODEL 2
REMARK VINA RESULT:      -8.3      0.083      1.287
REMARK  Name = 
REMARK  11 active torsions:
REMARK  status: ('A' for Active; 'I' for Inactive)
REMARK    1  A    between atoms: C_1  and  C_2
REMARK    2  A    between atoms: N_4  and  C_5
REMARK    3  A    between atoms: N_4  and  C_6
REMARK    4  A    between atoms: C_6  and  C_7
REMARK    5  A    between atoms: C_6  and  C_14
REMARK    6  A    between atoms: C_7  and  C_8
REMARK    7  A    between atoms: N_16  and  C_17
REMARK    8  A    between atoms: N_16  and  C_18
REMARK    9  A    between atoms: C_18  and  C_19
REMARK   10  A    between atoms: C_18  and  C_26
REMARK   11  A    between atoms: C_19  and  C_20
REMARK                            x       y       z     vdW  Elec       q    Type
REMARK                         _______ _______ _______ _____ _____    ______ ____
ROOT
ATOM      1  C   UNL     1       4.392   5.069  18.644  0.00  0.00    +0.000 C 
ATOM      2  O   UNL     1       4.870   4.160  19.331  0.00  0.00    +0.000 OA
ATOM      3  N   UNL     1       5.230   5.833  17.818  0.00  0.00    +0.000 N 
ATOM      4  C   UNL     1       4.727   6.776  16.827  0.00  0.00    +0.000 C 
ENDROOT
BRANCH   1   5
ATOM      5  C   UNL     1       2.876   5.469  18.833  0.00  0.00    +0.000 C 
BRANCH   5   9
ATOM      6  C   UNL     1       0.760   2.255  18.825  0.00  0.00    +0.000 C 
ATOM      7  C   UNL     1       1.341   3.569  18.340  0.00  0.00    +0.000 C 
ATOM      8  O   UNL     1       1.343   3.849  17.143  0.00  0.00    +0.000 OA
ATOM      9  N   UNL     1       1.959   4.366  19.301  0.00  0.00    +0.000 N 
ATOM     10  C   UNL     1       1.424   4.437  20.665  0.00  0.00    +0.000 C 
ENDBRANCH   5   9
BRANCH   5  11
ATOM     11  C   UNL     1       2.906   6.659  19.841  0.00  0.00    +0.000 C 
BRANCH  11  12
ATOM     12  C   UNL     1       2.013   7.863  19.539  0.00  0.00    +0.000 A 
ATOM     13  C   UNL     1       1.926   8.479  18.277  0.00  0.00    +0.000 A 
ATOM     14  C   UNL     1       1.136   9.601  18.046  0.00  0.00    +0.000 A 
ATOM     15  C   UNL     1       0.417  10.149  19.095  0.00  0.00    +0.000 A 
ATOM     16  C   UNL     1       0.491   9.570  20.360  0.00  0.00    +0.000 A 
ATOM     17  C   UNL     1       1.278   8.437  20.583  0.00  0.00    +0.000 A 
ENDBRANCH  11  12
ENDBRANCH   5  11
ENDBRANCH   1   5
BRANCH   3  18
ATOM     18  C   UNL     1       6.722   5.752  18.047  0.00  0.00    +0.000 C 
BRANCH  18  19
ATOM     19  C   UNL     1       7.589   7.062  17.905  0.00  0.00    +0.000 C 
ATOM     20  N   UNL     1       8.439   7.374  18.935  0.00  0.00    +0.000 N 
ATOM     21  O   UNL     1       7.515   7.871  16.983  0.00  0.00    +0.000 OA
ATOM     22  H   UNL     1       8.624   6.785  19.733  0.00  0.00    +0.000 HD
ATOM     23  H   UNL     1       9.015   8.199  18.814  0.00  0.00    +0.000 HD
ENDBRANCH  18  19
BRANCH  18  24
ATOM     24  C   UNL     1       7.428   4.583  17.296  0.00  0.00    +0.000 C 
BRANCH  24  25
ATOM     25  C   UNL     1       6.977   4.412  15.871  0.00  0.00    +0.000 A 
ATOM     26  C   UNL     1       7.632   5.076  14.832  0.00  0.00    +0.000 A 
ATOM     27  C   UNL     1       7.187   4.935  13.520  0.00  0.00    +0.000 A 
ATOM     28  C   UNL     1       6.083   4.132  13.234  0.00  0.00    +0.000 A 
ATOM     29  C   UNL     1       5.436   3.452  14.262  0.00  0.00    +0.000 A 
ATOM     30  C   UNL     1       5.887   3.584  15.571  0.00  0.00    +0.000 A 
ENDBRANCH  24  25
ENDBRANCH  18  24
ENDBRANCH   3  18
TORSDOF 8
ENDMDL
MODEL 3
REMARK VINA RESULT:      -8.0      0.889      1.338
REMARK  Name = 
REMARK  11 active torsions:
REMARK  status: ('A' for Active; 'I' for Inactive)
REMARK    1  A    between atoms: C_1  and  C_2
REMARK    2  A    between atoms: N_4  and  C_5
REMARK    3  A    between atoms: N_4  and  C_6
REMARK    4  A    between atoms: C_6  and  C_7
REMARK    5  A    between atoms: C_6  and  C_14
REMARK    6  A    between atoms: C_7  and  C_8
REMARK    7  A    between atoms: N_16  and  C_17
REMARK    8  A    between atoms: N_16  and  C_18
REMARK    9  A    between atoms: C_18  and  C_19
REMARK   10  A    between atoms: C_18  and  C_26
REMARK   11  A    between atoms: C_19  and  C_20
REMARK                            x       y       z     vdW  Elec       q    Type
REMARK                         _______ _______ _______ _____ _____    ______ ____
ROOT
ATOM      1  C   UNL     1       4.452   4.840  18.014  0.00  0.00    +0.000 C 
ATOM      2  O   UNL     1       4.962   3.819  18.490  0.00  0.00    +0.000 OA
ATOM      3  N   UNL     1       5.208   5.666  17.169  0.00  0.00    +0.000 N 
ATOM      4  C   UNL     1       4.629   6.764  16.405  0.00  0.00    +0.000 C 
ENDROOT
BRANCH   1   5
ATOM      5  C   UNL     1       3.018   5.289  18.498  0.00  0.00    +0.000 C 
BRANCH   5   9
ATOM      6  C   UNL     1       0.659   2.272  18.888  0.00  0.00    +0.000 C 
ATOM      7  C   UNL     1       1.205   3.585  18.358  0.00  0.00    +0.000 C 
ATOM      8  O   UNL     1       0.869   4.002  17.251  0.00  0.00    +0.000 OA
ATOM      9  N   UNL     1       2.173   4.213  19.137  0.00  0.00    +0.000 N 
ATOM     10  C   UNL     1       2.096   4.167  20.601  0.00  0.00    +0.000 C 
ENDBRANCH   5   9
BRANCH   5  11
ATOM     11  C   UNL     1       3.286   6.470  19.481  0.00  0.00    +0.000 C 
BRANCH  11  12
ATOM     12  C   UNL     1       2.338   7.668  19.420  0.00  0.00    +0.000 A 
ATOM     13  C   UNL     1       1.598   8.141  20.519  0.00  0.00    +0.000 A 
ATOM     14  C   UNL     1       0.712   9.209  20.420  0.00  0.00    +0.000 A 
ATOM     15  C   UNL     1       0.531   9.826  19.193  0.00  0.00    +0.000 A 
ATOM     16  C   UNL     1       1.240   9.374  18.082  0.00  0.00    +0.000 A 
ATOM     17  C   UNL     1       2.138   8.308  18.191  0.00  0.00    +0.000 A 
ENDBRANCH  11  12
ENDBRANCH   5  11
ENDBRANCH   1   5
BRANCH   3  18
ATOM     18  C   UNL     1       6.707   5.474  17.140  0.00  0.00    +0.000 C 
BRANCH  18  19
ATOM     19  C   UNL     1       7.564   5.969  18.369  0.00  0.00    +0.000 C 
ATOM     20  N   UNL     1       7.622   5.153  19.470  0.00  0.00    +0.000 N 
ATOM     21  O   UNL     1       8.125   7.059  18.457  0.00  0.00    +0.000 OA
ATOM     22  H   UNL     1       7.240   4.222  19.523  0.00  0.00    +0.000 HD
ATOM     23  H   UNL     1       8.204   5.468  20.237  0.00  0.00    +0.000 HD
ENDBRANCH  18  19
BRANCH  18  24
ATOM     24  C   UNL     1       7.391   5.933  15.817  0.00  0.00    +0.000 C 
BRANCH  24  25
ATOM     25  C   UNL     1       7.049   5.081  14.625  0.00  0.00    +0.000 A 
ATOM     26  C   UNL     1       7.693   5.277  13.402  0.00  0.00    +0.000 A 
ATOM     27  C   UNL     1       7.347   4.504  12.297  0.00  0.00    +0.000 A 
ATOM     28  C   UNL     1       6.355   3.529  12.403  0.00  0.00    +0.000 A 
ATOM     29  C   UNL     1       5.722   3.316  13.624  0.00  0.00    +0.000 A 
ATOM     30  C   UNL     1       6.074   4.081  14.730  0.00  0.00    +0.000 A 
ENDBRANCH  24  25
ENDBRANCH  18  24
ENDBRANCH   3  18
TORSDOF 8
ENDMDL
MODEL 4
REMARK VINA RESULT:      -7.9      1.339      1.754
REMARK  Name = 
REMARK  11 active torsions:
REMARK  status: ('A' for Active; 'I' for Inactive)
REMARK    1  A    between atoms: C_1  and  C_2
REMARK    2  A    between atoms: N_4  and  C_5
REMARK    3  A    between atoms: N_4  and  C_6
REMARK    4  A    between atoms: C_6  and  C_7
REMARK    5  A    between atoms: C_6  and  C_14
REMARK    6  A    between atoms: C_7  and  C_8
REMARK    7  A    between atoms: N_16  and  C_17
REMARK    8  A    between atoms: N_16  and  C_18
REMARK    9  A    between atoms: C_18  and  C_19
REMARK   10  A    between atoms: C_18  and  C_26
REMARK   11  A    between atoms: C_19  and  C_20
REMARK                            x       y       z     vdW  Elec       q    Type
REMARK                         _______ _______ _______ _____ _____    ______ ____
ROOT
ATOM      1  C   UNL     1       4.031   4.548  17.546  0.00  0.00    +0.000 C 
ATOM      2  O   UNL     1       4.225   3.328  17.576  0.00  0.00    +0.000 OA
ATOM      3  N   UNL     1       4.993   5.393  16.975  0.00  0.00    +0.000 N 
ATOM      4  C   UNL     1       4.755   6.806  16.712  0.00  0.00    +0.000 C 
ENDROOT
BRANCH   1   5
ATOM      5  C   UNL     1       2.784   5.153  18.303  0.00  0.00    +0.000 C 
BRANCH   5   9
ATOM      6  C   UNL     1       0.805   2.249  19.873  0.00  0.00    +0.000 C 
ATOM      7  C   UNL     1       1.141   3.385  18.926  0.00  0.00    +0.000 C 
ATOM      8  O   UNL     1       0.614   3.454  17.817  0.00  0.00    +0.000 OA
ATOM      9  N   UNL     1       2.145   4.258  19.337  0.00  0.00    +0.000 N 
ATOM     10  C   UNL     1       2.281   4.623  20.752  0.00  0.00    +0.000 C 
ENDBRANCH   5   9
BRANCH   5  11
ATOM     11  C   UNL     1       3.311   6.478  18.935  0.00  0.00    +0.000 C 
BRANCH  11  12
ATOM     12  C   UNL     1       2.339   7.654  19.023  0.00  0.00    +0.000 A 
ATOM     13  C   UNL     1       1.977   8.459  17.928  0.00  0.00    +0.000 A 
ATOM     14  C   UNL     1       1.123   9.549  18.051  0.00  0.00    +0.000 A 
ATOM     15  C   UNL     1       0.615   9.873  19.299  0.00  0.00    +0.000 A 
ATOM     16  C   UNL     1       0.964   9.104  20.406  0.00  0.00    +0.000 A 
ATOM     17  C   UNL     1       1.814   8.002  20.274  0.00  0.00    +0.000 A 
ENDBRANCH  11  12
ENDBRANCH   5  11
ENDBRANCH   1   5
BRANCH   3  18
ATOM     18  C   UNL     1       6.375   4.832  16.725  0.00  0.00    +0.000 C 
BRANCH  18  19
ATOM     19  C   UNL     1       7.370   4.686  17.940  0.00  0.00    +0.000 C 
ATOM     20  N   UNL     1       7.011   5.270  19.127  0.00  0.00    +0.000 N 
ATOM     21  O   UNL     1       8.479   4.156  17.896  0.00  0.00    +0.000 OA
ATOM     22  H   UNL     1       6.120   5.705  19.314  0.00  0.00    +0.000 HD
ATOM     23  H   UNL     1       7.643   5.138  19.908  0.00  0.00    +0.000 HD
ENDBRANCH  18  19
BRANCH  18  24
ATOM     24  C   UNL     1       7.125   5.475  15.520  0.00  0.00    +0.000 C 
BRANCH  24  25
ATOM     25  C   UNL     1       6.846   4.808  14.201  0.00  0.00    +0.000 A 
ATOM     26  C   UNL     1       5.754   3.951  14.053  0.00  0.00    +0.000 A 
ATOM     27  C   UNL     1       5.523   3.314  12.837  0.00  0.00    +0.000 A 
ATOM     28  C   UNL     1       6.380   3.527  11.757  0.00  0.00    +0.000 A 
ATOM     29  C   UNL     1       7.460   4.395  11.891  0.00  0.00    +0.000 A 
ATOM     30  C   UNL     1       7.685   5.039  13.103  0.00  0.00    +0.000 A 
ENDBRANCH  24  25
ENDBRANCH  18  24
ENDBRANCH   3  18
TORSDOF 8
ENDMDL
MODEL 5
REMARK VINA RESULT:      -7.9      1.294      2.051
REMARK  Name = 
REMARK  11 active torsions:
REMARK  status: ('A' for Active; 'I' for Inactive)
REMARK    1  A    between atoms: C_1  and  C_2
REMARK    2  A    between atoms: N_4  and  C_5
REMARK    3  A    between atoms: N_4  and  C_6
REMARK    4  A    between atoms: C_6  and  C_7
REMARK    5  A    between atoms: C_6  and  C_14
REMARK    6  A    between atoms: C_7  and  C_8
REMARK    7  A    between atoms: N_16  and  C_17
REMARK    8  A    between atoms: N_16  and  C_18
REMARK    9  A    between atoms: C_18  and  C_19
REMARK   10  A    between atoms: C_18  and  C_26
REMARK   11  A    between atoms: C_19  and  C_20
REMARK                            x       y       z     vdW  Elec       q    Type
REMARK                         _______ _______ _______ _____ _____    ______ ____
ROOT
ATOM      1  C   UNL     1       4.395   5.062  18.555  0.00  0.00    +0.000 C 
ATOM      2  O   UNL     1       5.166   5.878  19.070  0.00  0.00    +0.000 OA
ATOM      3  N   UNL     1       4.850   4.227  17.524  0.00  0.00    +0.000 N 
ATOM      4  C   UNL     1       4.076   3.104  17.009  0.00  0.00    +0.000 C 
ENDROOT
BRANCH   1   5
ATOM      5  C   UNL     1       2.865   5.088  18.945  0.00  0.00    +0.000 C 
BRANCH   5   9
ATOM      6  C   UNL     1       1.049   1.699  19.122  0.00  0.00    +0.000 C 
ATOM      7  C   UNL     1       1.306   3.152  18.769  0.00  0.00    +0.000 C 
ATOM      8  O   UNL     1       0.721   3.681  17.825  0.00  0.00    +0.000 OA
ATOM      9  N   UNL     1       2.304   3.799  19.493  0.00  0.00    +0.000 N 
ATOM     10  C   UNL     1       2.500   3.504  20.917  0.00  0.00    +0.000 C 
ENDBRANCH   5   9
BRANCH   5  11
ATOM     11  C   UNL     1       2.741   6.254  19.975  0.00  0.00    +0.000 C 
BRANCH  11  12
ATOM     12  C   UNL     1       2.124   7.565  19.488  0.00  0.00    +0.000 A 
ATOM     13  C   UNL     1       2.268   8.062  18.180  0.00  0.00    +0.000 A 
ATOM     14  C   UNL     1       1.730   9.281  17.780  0.00  0.00    +0.000 A 
ATOM     15  C   UNL     1       1.037  10.049  18.702  0.00  0.00    +0.000 A 
ATOM     16  C   UNL     1       0.888   9.591  20.008  0.00  0.00    +0.000 A 
ATOM     17  C   UNL     1       1.421   8.360  20.401  0.00  0.00    +0.000 A 
ENDBRANCH  11  12
ENDBRANCH   5  11
ENDBRANCH   1   5
BRANCH   3  18
ATOM     18  C   UNL     1       6.154   4.580  16.846  0.00  0.00    +0.000 C 
BRANCH  18  19
ATOM     19  C   UNL     1       7.377   5.034  17.733  0.00  0.00    +0.000 C 
ATOM     20  N   UNL     1       7.746   6.353  17.675  0.00  0.00    +0.000 N 
ATOM     21  O   UNL     1       8.079   4.292  18.417  0.00  0.00    +0.000 OA
ATOM     22  H   UNL     1       7.241   7.076  17.185  0.00  0.00    +0.000 HD
ATOM     23  H   UNL     1       8.511   6.637  18.276  0.00  0.00    +0.000 HD
ENDBRANCH  18  19
BRANCH  18  24
ATOM     24  C   UNL     1       6.011   5.548  15.633  0.00  0.00    +0.000 C 
BRANCH  24  25
ATOM     25  C   UNL     1       6.336   4.917  14.306  0.00  0.00    +0.000 A 
ATOM     26  C   UNL     1       7.484   5.289  13.603  0.00  0.00    +0.000 A 
ATOM     27  C   UNL     1       7.759   4.721  12.362  0.00  0.00    +0.000 A 
ATOM     28  C   UNL     1       6.892   3.779  11.811  0.00  0.00    +0.000 A 
ATOM     29  C   UNL     1       5.755   3.389  12.514  0.00  0.00    +0.000 A 
ATOM     30  C   UNL     1       5.485   3.948  13.759  0.00  0.00    +0.000 A 
ENDBRANCH  24  25
ENDBRANCH  18  24
ENDBRANCH   3  18
TORSDOF 8
ENDMDL
MODEL 6
REMARK VINA RESULT:      -7.7      3.099      7.549
REMARK  Name = 
REMARK  11 active torsions:
REMARK  status: ('A' for Active; 'I' for Inactive)
REMARK    1  A    between atoms: C_1  and  C_2
REMARK    2  A    between atoms: N_4  and  C_5
REMARK    3  A    between atoms: N_4  and  C_6
REMARK    4  A    between atoms: C_6  and  C_7
REMARK    5  A    between atoms: C_6  and  C_14
REMARK    6  A    between atoms: C_7  and  C_8
REMARK    7  A    between atoms: N_16  and  C_17
REMARK    8  A    between atoms: N_16  and  C_18
REMARK    9  A    between atoms: C_18  and  C_19
REMARK   10  A    between atoms: C_18  and  C_26
REMARK   11  A    between atoms: C_19  and  C_20
REMARK                            x       y       z     vdW  Elec       q    Type
REMARK                         _______ _______ _______ _____ _____    ______ ____
ROOT
ATOM      1  C   UNL     1       1.706   8.102  18.311  0.00  0.00    +0.000 C 
ATOM      2  O   UNL     1       1.508   8.348  17.116  0.00  0.00    +0.000 OA
ATOM      3  N   UNL     1       1.187   8.957  19.294  0.00  0.00    +0.000 N 
ATOM      4  C   UNL     1       1.195   8.633  20.715  0.00  0.00    +0.000 C 
ENDROOT
BRANCH   1   5
ATOM      5  C   UNL     1       2.684   6.927  18.708  0.00  0.00    +0.000 C 
BRANCH   5   9
ATOM      6  C   UNL     1       0.966   3.914  20.377  0.00  0.00    +0.000 C 
ATOM      7  C   UNL     1       1.943   5.058  20.180  0.00  0.00    +0.000 C 
ATOM      8  O   UNL     1       2.529   5.553  21.141  0.00  0.00    +0.000 OA
ATOM      9  N   UNL     1       2.043   5.573  18.890  0.00  0.00    +0.000 N 
ATOM     10  C   UNL     1       1.947   4.686  17.725  0.00  0.00    +0.000 C 
ENDBRANCH   5   9
BRANCH   5  11
ATOM     11  C   UNL     1       3.758   6.909  17.577  0.00  0.00    +0.000 C 
BRANCH  11  12
ATOM     12  C   UNL     1       5.202   6.609  17.979  0.00  0.00    +0.000 A 
ATOM     13  C   UNL     1       6.325   7.191  17.364  0.00  0.00    +0.000 A 
ATOM     14  C   UNL     1       7.628   6.864  17.725  0.00  0.00    +0.000 A 
ATOM     15  C   UNL     1       7.839   5.919  18.716  0.00  0.00    +0.000 A 
ATOM     16  C   UNL     1       6.748   5.315  19.336  0.00  0.00    +0.000 A 
ATOM     17  C   UNL     1       5.441   5.657  18.977  0.00  0.00    +0.000 A 
ENDBRANCH  11  12
ENDBRANCH   5  11
ENDBRANCH   1   5
BRANCH   3  18
ATOM     18  C   UNL     1       0.700  10.322  18.865  0.00  0.00    +0.000 C 
BRANCH  18  19
ATOM     19  C   UNL     1       1.662  11.562  19.026  0.00  0.00    +0.000 C 
ATOM     20  N   UNL     1       2.441  11.903  17.950  0.00  0.00    +0.000 N 
ATOM     21  O   UNL     1       1.832  12.205  20.060  0.00  0.00    +0.000 OA
ATOM     22  H   UNL     1       2.380  11.486  17.034  0.00  0.00    +0.000 HD
ATOM     23  H   UNL     1       3.028  12.722  18.057  0.00  0.00    +0.000 HD
ENDBRANCH  18  19
BRANCH  18  24
ATOM     24  C   UNL     1      -0.717  10.699  19.395  0.00  0.00    +0.000 C 
BRANCH  24  25
ATOM     25  C   UNL     1      -1.787  10.688  18.337  0.00  0.00    +0.000 A 
ATOM     26  C   UNL     1      -1.665   9.874  17.209  0.00  0.00    +0.000 A 
ATOM     27  C   UNL     1      -2.646   9.894  16.222  0.00  0.00    +0.000 A 
ATOM     28  C   UNL     1      -3.757  10.728  16.350  0.00  0.00    +0.000 A 
ATOM     29  C   UNL     1      -3.895  11.529  17.481  0.00  0.00    +0.000 A 
ATOM     30  C   UNL     1      -2.920  11.501  18.472  0.00  0.00    +0.000 A 
ENDBRANCH  24  25
ENDBRANCH  18  24
ENDBRANCH   3  18
TORSDOF 8
ENDMDL
MODEL 7
REMARK VINA RESULT:      -7.6      3.117      7.531
REMARK  Name = 
REMARK  11 active torsions:
REMARK  status: ('A' for Active; 'I' for Inactive)
REMARK    1  A    between atoms: C_1  and  C_2
REMARK    2  A    between atoms: N_4  and  C_5
REMARK    3  A    between atoms: N_4  and  C_6
REMARK    4  A    between atoms: C_6  and  C_7
REMARK    5  A    between atoms: C_6  and  C_14
REMARK    6  A    between atoms: C_7  and  C_8
REMARK    7  A    between atoms: N_16  and  C_17
REMARK    8  A    between atoms: N_16  and  C_18
REMARK    9  A    between atoms: C_18  and  C_19
REMARK   10  A    between atoms: C_18  and  C_26
REMARK   11  A    between atoms: C_19  and  C_20
REMARK                            x       y       z     vdW  Elec       q    Type
REMARK                         _______ _______ _______ _____ _____    ______ ____
ROOT
ATOM      1  C   UNL     1       1.724   8.183  18.341  0.00  0.00    +0.000 C 
ATOM      2  O   UNL     1       1.553   8.464  17.150  0.00  0.00    +0.000 OA
ATOM      3  N   UNL     1       1.180   9.008  19.337  0.00  0.00    +0.000 N 
ATOM      4  C   UNL     1       1.155   8.643  20.747  0.00  0.00    +0.000 C 
ENDROOT
BRANCH   1   5
ATOM      5  C   UNL     1       2.694   6.998  18.727  0.00  0.00    +0.000 C 
BRANCH   5   9
ATOM      6  C   UNL     1       0.961   3.965  20.344  0.00  0.00    +0.000 C 
ATOM      7  C   UNL     1       1.943   5.107  20.167  0.00  0.00    +0.000 C 
ATOM      8  O   UNL     1       2.533   5.582  21.135  0.00  0.00    +0.000 OA
ATOM      9  N   UNL     1       2.046   5.644  18.886  0.00  0.00    +0.000 N 
ATOM     10  C   UNL     1       1.944   4.778  17.706  0.00  0.00    +0.000 C 
ENDBRANCH   5   9
BRANCH   5  11
ATOM     11  C   UNL     1       3.774   6.990  17.602  0.00  0.00    +0.000 C 
BRANCH  11  12
ATOM     12  C   UNL     1       5.190   6.561  17.985  0.00  0.00    +0.000 A 
ATOM     13  C   UNL     1       5.482   5.639  19.007  0.00  0.00    +0.000 A 
ATOM     14  C   UNL     1       6.785   5.302  19.360  0.00  0.00    +0.000 A 
ATOM     15  C   UNL     1       7.842   5.903  18.696  0.00  0.00    +0.000 A 
ATOM     16  C   UNL     1       7.587   6.829  17.688  0.00  0.00    +0.000 A 
ATOM     17  C   UNL     1       6.276   7.155  17.330  0.00  0.00    +0.000 A 
ENDBRANCH  11  12
ENDBRANCH   5  11
ENDBRANCH   1   5
BRANCH   3  18
ATOM     18  C   UNL     1       0.701  10.385  18.936  0.00  0.00    +0.000 C 
BRANCH  18  19
ATOM     19  C   UNL     1       1.665  11.617  19.138  0.00  0.00    +0.000 C 
ATOM     20  N   UNL     1       1.564  12.315  20.314  0.00  0.00    +0.000 N 
ATOM     21  O   UNL     1       2.450  12.055  18.299  0.00  0.00    +0.000 OA
ATOM     22  H   UNL     1       0.989  12.049  21.099  0.00  0.00    +0.000 HD
ATOM     23  H   UNL     1       2.213  13.082  20.443  0.00  0.00    +0.000 HD
ENDBRANCH  18  19
BRANCH  18  24
ATOM     24  C   UNL     1      -0.720  10.752  19.460  0.00  0.00    +0.000 C 
BRANCH  24  25
ATOM     25  C   UNL     1      -1.781  10.760  18.394  0.00  0.00    +0.000 A 
ATOM     26  C   UNL     1      -2.915  11.564  18.523  0.00  0.00    +0.000 A 
ATOM     27  C   UNL     1      -3.906  11.540  17.545  0.00  0.00    +0.000 A 
ATOM     28  C   UNL     1      -3.775  10.713  16.430  0.00  0.00    +0.000 A 
ATOM     29  C   UNL     1      -2.638   9.922  16.285  0.00  0.00    +0.000 A 
ATOM     30  C   UNL     1      -1.644   9.953  17.257  0.00  0.00    +0.000 A 
ENDBRANCH  24  25
ENDBRANCH  18  24
ENDBRANCH   3  18
TORSDOF 8
ENDMDL
MODEL 8
REMARK VINA RESULT:      -7.6      1.253      1.617
REMARK  Name = 
REMARK  11 active torsions:
REMARK  status: ('A' for Active; 'I' for Inactive)
REMARK    1  A    between atoms: C_1  and  C_2
REMARK    2  A    between atoms: N_4  and  C_5
REMARK    3  A    between atoms: N_4  and  C_6
REMARK    4  A    between atoms: C_6  and  C_7
REMARK    5  A    between atoms: C_6  and  C_14
REMARK    6  A    between atoms: C_7  and  C_8
REMARK    7  A    between atoms: N_16  and  C_17
REMARK    8  A    between atoms: N_16  and  C_18
REMARK    9  A    between atoms: C_18  and  C_19
REMARK   10  A    between atoms: C_18  and  C_26
REMARK   11  A    between atoms: C_19  and  C_20
REMARK                            x       y       z     vdW  Elec       q    Type
REMARK                         _______ _______ _______ _____ _____    ______ ____
ROOT
ATOM      1  C   UNL     1       4.342   5.165  18.400  0.00  0.00    +0.000 C 
ATOM      2  O   UNL     1       5.124   6.034  18.802  0.00  0.00    +0.000 OA
ATOM      3  N   UNL     1       4.752   4.264  17.406  0.00  0.00    +0.000 N 
ATOM      4  C   UNL     1       3.977   3.091  17.026  0.00  0.00    +0.000 C 
ENDROOT
BRANCH   1   5
ATOM      5  C   UNL     1       2.840   5.189  18.886  0.00  0.00    +0.000 C 
BRANCH   5   9
ATOM      6  C   UNL     1       1.089   1.767  19.084  0.00  0.00    +0.000 C 
ATOM      7  C   UNL     1       1.315   3.224  18.728  0.00  0.00    +0.000 C 
ATOM      8  O   UNL     1       0.713   3.739  17.788  0.00  0.00    +0.000 OA
ATOM      9  N   UNL     1       2.308   3.890  19.441  0.00  0.00    +0.000 N 
ATOM     10  C   UNL     1       2.522   3.602  20.864  0.00  0.00    +0.000 C 
ENDBRANCH   5   9
BRANCH   5  11
ATOM     11  C   UNL     1       2.787   6.333  19.946  0.00  0.00    +0.000 C 
BRANCH  11  12
ATOM     12  C   UNL     1       2.106   7.640  19.541  0.00  0.00    +0.000 A 
ATOM     13  C   UNL     1       1.332   8.426  20.413  0.00  0.00    +0.000 A 
ATOM     14  C   UNL     1       0.690   9.589  20.001  0.00  0.00    +0.000 A 
ATOM     15  C   UNL     1       0.798   9.989  18.679  0.00  0.00    +0.000 A 
ATOM     16  C   UNL     1       1.546   9.226  17.786  0.00  0.00    +0.000 A 
ATOM     17  C   UNL     1       2.199   8.064  18.210  0.00  0.00    +0.000 A 
ENDBRANCH  11  12
ENDBRANCH   5  11
ENDBRANCH   1   5
BRANCH   3  18
ATOM     18  C   UNL     1       6.002   4.592  16.620  0.00  0.00    +0.000 C 
BRANCH  18  19
ATOM     19  C   UNL     1       7.269   5.129  17.391  0.00  0.00    +0.000 C 
ATOM     20  N   UNL     1       7.788   4.339  18.384  0.00  0.00    +0.000 N 
ATOM     21  O   UNL     1       7.789   6.232  17.231  0.00  0.00    +0.000 OA
ATOM     22  H   UNL     1       7.484   3.402  18.598  0.00  0.00    +0.000 HD
ATOM     23  H   UNL     1       8.623   4.681  18.846  0.00  0.00    +0.000 HD
ENDBRANCH  18  19
BRANCH  18  24
ATOM     24  C   UNL     1       5.758   5.470  15.356  0.00  0.00    +0.000 C 
BRANCH  24  25
ATOM     25  C   UNL     1       6.110   4.788  14.062  0.00  0.00    +0.000 A 
ATOM     26  C   UNL     1       5.258   3.831  13.507  0.00  0.00    +0.000 A 
ATOM     27  C   UNL     1       5.608   3.184  12.325  0.00  0.00    +0.000 A 
ATOM     28  C   UNL     1       6.811   3.485  11.687  0.00  0.00    +0.000 A 
ATOM     29  C   UNL     1       7.657   4.452  12.224  0.00  0.00    +0.000 A 
ATOM     30  C   UNL     1       7.303   5.106  13.399  0.00  0.00    +0.000 A 
ENDBRANCH  24  25
ENDBRANCH  18  24
ENDBRANCH   3  18
TORSDOF 8
ENDMDL
MODEL 9
REMARK VINA RESULT:      -7.6      3.155      7.669
REMARK  Name = 
REMARK  11 active torsions:
REMARK  status: ('A' for Active; 'I' for Inactive)
REMARK    1  A    between atoms: C_1  and  C_2
REMARK    2  A    between atoms: N_4  and  C_5
REMARK    3  A    between atoms: N_4  and  C_6
REMARK    4  A    between atoms: C_6  and  C_7
REMARK    5  A    between atoms: C_6  and  C_14
REMARK    6  A    between atoms: C_7  and  C_8
REMARK    7  A    between atoms: N_16  and  C_17
REMARK    8  A    between atoms: N_16  and  C_18
REMARK    9  A    between atoms: C_18  and  C_19
REMARK   10  A    between atoms: C_18  and  C_26
REMARK   11  A    between atoms: C_19  and  C_20
REMARK                            x       y       z     vdW  Elec       q    Type
REMARK                         _______ _______ _______ _____ _____    ______ ____
ROOT
ATOM      1  C   UNL     1       1.962   8.356  18.280  0.00  0.00    +0.000 C 
ATOM      2  O   UNL     1       1.725   8.826  17.163  0.00  0.00    +0.000 OA
ATOM      3  N   UNL     1       1.337   8.900  19.412  0.00  0.00    +0.000 N 
ATOM      4  C   UNL     1       1.397   8.279  20.729  0.00  0.00    +0.000 C 
ENDROOT
BRANCH   1   5
ATOM      5  C   UNL     1       3.092   7.264  18.438  0.00  0.00    +0.000 C 
BRANCH   5   9
ATOM      6  C   UNL     1       2.695   3.923  20.308  0.00  0.00    +0.000 C 
ATOM      7  C   UNL     1       3.380   5.123  19.681  0.00  0.00    +0.000 C 
ATOM      8  O   UNL     1       4.511   5.453  20.032  0.00  0.00    +0.000 OA
ATOM      9  N   UNL     1       2.619   5.875  18.788  0.00  0.00    +0.000 N 
ATOM     10  C   UNL     1       1.662   5.218  17.890  0.00  0.00    +0.000 C 
ENDBRANCH   5   9
BRANCH   5  11
ATOM     11  C   UNL     1       3.855   7.287  17.078  0.00  0.00    +0.000 C 
BRANCH  11  12
ATOM     12  C   UNL     1       5.065   6.364  16.930  0.00  0.00    +0.000 A 
ATOM     13  C   UNL     1       5.020   5.103  16.309  0.00  0.00    +0.000 A 
ATOM     14  C   UNL     1       6.130   4.269  16.229  0.00  0.00    +0.000 A 
ATOM     15  C   UNL     1       7.327   4.680  16.794  0.00  0.00    +0.000 A 
ATOM     16  C   UNL     1       7.401   5.918  17.427  0.00  0.00    +0.000 A 
ATOM     17  C   UNL     1       6.285   6.757  17.493  0.00  0.00    +0.000 A 
ENDBRANCH  11  12
ENDBRANCH   5  11
ENDBRANCH   1   5
BRANCH   3  18
ATOM     18  C   UNL     1       0.667  10.247  19.276  0.00  0.00    +0.000 C 
BRANCH  18  19
ATOM     19  C   UNL     1       1.371  11.516  19.895  0.00  0.00    +0.000 C 
ATOM     20  N   UNL     1       2.056  12.340  19.039  0.00  0.00    +0.000 N 
ATOM     21  O   UNL     1       1.423  11.793  21.091  0.00  0.00    +0.000 OA
ATOM     22  H   UNL     1       2.068  12.253  18.035  0.00  0.00    +0.000 HD
ATOM     23  H   UNL     1       2.474  13.170  19.445  0.00  0.00    +0.000 HD
ENDBRANCH  18  19
BRANCH  18  24
ATOM     24  C   UNL     1      -0.844  10.259  19.660  0.00  0.00    +0.000 C 
BRANCH  24  25
ATOM     25  C   UNL     1      -1.767  10.503  18.497  0.00  0.00    +0.000 A 
ATOM     26  C   UNL     1      -2.825  11.408  18.605  0.00  0.00    +0.000 A 
ATOM     27  C   UNL     1      -3.692  11.603  17.534  0.00  0.00    +0.000 A 
ATOM     28  C   UNL     1      -3.512  10.896  16.345  0.00  0.00    +0.000 A 
ATOM     29  C   UNL     1      -2.448  10.006  16.223  0.00  0.00    +0.000 A 
ATOM     30  C   UNL     1      -1.576   9.819  17.289  0.00  0.00    +0.000 A 
ENDBRANCH  24  25
ENDBRANCH  18  24
ENDBRANCH   3  18
TORSDOF 8
ENDMDL
