MODEL 1
REMARK VINA RESULT:      -8.0      0.000      0.000
REMARK  Name = 
REMARK  7 active torsions:
REMARK  status: ('A' for Active; 'I' for Inactive)
REMARK    1  A    between atoms: C_1  and  C_2
REMARK    2  A    between atoms: C_2  and  C_3
REMARK    3  A    between atoms: C_2  and  N_4
REMARK    4  A    between atoms: N_8  and  C_9
REMARK    5  A    between atoms: C_18  and  C_19
REMARK    6  A    between atoms: C_19  and  C_20
REMARK    7  A    between atoms: C_19  and  C_21
REMARK                            x       y       z     vdW  Elec       q    Type
REMARK                         _______ _______ _______ _____ _____    ______ ____
ROOT
ATOM      1  N   UNL     1       4.997   4.086  16.101  0.00  0.00    +0.000 N 
ATOM      2  C   UNL     1       4.167   4.631  17.071  0.00  0.00    +0.000 A 
ATOM      3  N   UNL     1       4.106   5.949  17.231  0.00  0.00    +0.000 NA
ATOM      4  C   UNL     1       3.231   6.381  18.127  0.00  0.00    +0.000 A 
ATOM      5  N   UNL     1       3.108   7.759  18.291  0.00  0.00    +0.000 N 
ATOM      6  N   UNL     1       2.490   5.579  18.879  0.00  0.00    +0.000 NA
ATOM      7  C   UNL     1       2.636   4.276  18.682  0.00  0.00    +0.000 A 
ATOM      8  N   UNL     1       3.462   3.754  17.780  0.00  0.00    +0.000 NA
ATOM      9  H   UNL     1       5.117   3.109  16.350  0.00  0.00    +0.000 HD
ATOM     10  H   UNL     1       3.777   8.262  17.725  0.00  0.00    +0.000 HD
ENDROOT
BRANCH   5  11
ATOM     11  C   UNL     1       1.983   8.467  18.732  0.00  0.00    +0.000 A 
ATOM     12  C   UNL     1       1.273   9.269  17.832  0.00  0.00    +0.000 A 
ATOM     13  C   UNL     1       0.219  10.074  18.275  0.00  0.00    +0.000 A 
ATOM     14  C   UNL     1      -0.150  10.076  19.623  0.00  0.00    +0.000 A 
ATOM     15 CL   UNL     1      -1.441  11.115  20.107  0.00  0.00    +0.000 Cl
ATOM     16  C   UNL     1       0.532   9.263  20.527  0.00  0.00    +0.000 A 
ATOM     17 CL   UNL     1       0.138   9.196  22.209  0.00  0.00    +0.000 Cl
ATOM     18  C   UNL     1       1.589   8.468  20.077  0.00  0.00    +0.000 A 
ENDBRANCH   5  11
BRANCH   1  20
ATOM     19  C   UNL     1       7.302   4.452  16.770  0.00  0.00    +0.000 C 
ATOM     20  C   UNL     1       6.208   4.825  15.767  0.00  0.00    +0.000 C 
ATOM     21  C   UNL     1       6.675   4.475  14.352  0.00  0.00    +0.000 C 
ENDBRANCH   1  20
BRANCH   7  22
ATOM     22  C   UNL     1       1.811   3.349  19.548  0.00  0.00    +0.000 C 
ATOM     23  C   UNL     1       0.985   4.153  20.556  0.00  0.00    +0.000 C 
ATOM     24  C   UNL     1       0.893   2.465  18.699  0.00  0.00    +0.000 C 
ENDBRANCH   7  22
TORSDOF 3
ENDMDL
MODEL 2
REMARK VINA RESULT:      -7.7      3.371      5.559
REMARK  Name = 
REMARK  7 active torsions:
REMARK  status: ('A' for Active; 'I' for Inactive)
REMARK    1  A    between atoms: C_1  and  C_2
REMARK    2  A    between atoms: C_2  and  C_3
REMARK    3  A    between atoms: C_2  and  N_4
REMARK    4  A    between atoms: N_8  and  C_9
REMARK    5  A    between atoms: C_18  and  C_19
REMARK    6  A    between atoms: C_19  and  C_20
REMARK    7  A    between atoms: C_19  and  C_21
REMARK                            x       y       z     vdW  Elec       q    Type
REMARK                         _______ _______ _______ _____ _____    ______ ____
ROOT
ATOM      1  N   UNL     1       7.367   4.234  13.568  0.00  0.00    +0.000 N 
ATOM      2  C   UNL     1       6.772   4.557  14.780  0.00  0.00    +0.000 A 
ATOM      3  N   UNL     1       5.519   4.189  15.025  0.00  0.00    +0.000 NA
ATOM      4  C   UNL     1       5.061   4.474  16.234  0.00  0.00    +0.000 A 
ATOM      5  N   UNL     1       3.765   4.063  16.543  0.00  0.00    +0.000 N 
ATOM      6  N   UNL     1       5.756   5.137  17.148  0.00  0.00    +0.000 NA
ATOM      7  C   UNL     1       6.986   5.499  16.812  0.00  0.00    +0.000 A 
ATOM      8  N   UNL     1       7.541   5.225  15.635  0.00  0.00    +0.000 NA
ATOM      9  H   UNL     1       8.170   4.849  13.476  0.00  0.00    +0.000 HD
ATOM     10  H   UNL     1       3.309   3.642  15.746  0.00  0.00    +0.000 HD
ENDROOT
BRANCH   5  11
ATOM     11  C   UNL     1       3.245   3.766  17.809  0.00  0.00    +0.000 A 
ATOM     12  C   UNL     1       3.140   2.433  18.218  0.00  0.00    +0.000 A 
ATOM     13  C   UNL     1       2.517   2.107  19.428  0.00  0.00    +0.000 A 
ATOM     14  C   UNL     1       2.005   3.112  20.252  0.00  0.00    +0.000 A 
ATOM     15 CL   UNL     1       1.224   2.638  21.717  0.00  0.00    +0.000 Cl
ATOM     16  C   UNL     1       2.125   4.447  19.868  0.00  0.00    +0.000 A 
ATOM     17 CL   UNL     1       1.529   5.755  20.829  0.00  0.00    +0.000 Cl
ATOM     18  C   UNL     1       2.741   4.763  18.655  0.00  0.00    +0.000 A 
ENDBRANCH   5  11
BRANCH   1  20
ATOM     19  C   UNL     1       7.136   4.882  11.240  0.00  0.00    +0.000 C 
ATOM     20  C   UNL     1       6.496   4.125  12.405  0.00  0.00    +0.000 C 
ATOM     21  C   UNL     1       6.308   2.656  12.014  0.00  0.00    +0.000 C 
ENDBRANCH   1  20
BRANCH   7  22
ATOM     22  C   UNL     1       7.783   6.275  17.838  0.00  0.00    +0.000 C 
ATOM     23  C   UNL     1       7.563   7.780  17.660  0.00  0.00    +0.000 C 
ATOM     24  C   UNL     1       7.415   5.853  19.263  0.00  0.00    +0.000 C 
ENDBRANCH   7  22
TORSDOF 3
ENDMDL
MODEL 3
REMARK VINA RESULT:      -7.5      4.056      5.803
REMARK  Name = 
REMARK  7 active torsions:
REMARK  status: ('A' for Active; 'I' for Inactive)
REMARK    1  A    between atoms: C_1  and  C_2
REMARK    2  A    between atoms: C_2  and  C_3
REMARK    3  A    between atoms: C_2  and  N_4
REMARK    4  A    between atoms: N_8  and  C_9
REMARK    5  A    between atoms: C_18  and  C_19
REMARK    6  A    between atoms: C_19  and  C_20
REMARK    7  A    between atoms: C_19  and  C_21
REMARK                            x       y       z     vdW  Elec       q    Type
REMARK                         _______ _______ _______ _____ _____    ______ ____
ROOT
ATOM      1  N   UNL     1       7.474   4.451  13.545  0.00  0.00    +0.000 N 
ATOM      2  C   UNL     1       6.841   4.685  14.758  0.00  0.00    +0.000 A 
ATOM      3  N   UNL     1       5.593   4.269  14.949  0.00  0.00    +0.000 NA
ATOM      4  C   UNL     1       5.099   4.469  16.161  0.00  0.00    +0.000 A 
ATOM      5  N   UNL     1       3.808   4.007  16.411  0.00  0.00    +0.000 N 
ATOM      6  N   UNL     1       5.753   5.095  17.130  0.00  0.00    +0.000 NA
ATOM      7  C   UNL     1       6.981   5.508  16.848  0.00  0.00    +0.000 A 
ATOM      8  N   UNL     1       7.571   5.320  15.671  0.00  0.00    +0.000 NA
ATOM      9  H   UNL     1       8.262   5.091  13.510  0.00  0.00    +0.000 HD
ATOM     10  H   UNL     1       3.383   3.623  15.580  0.00  0.00    +0.000 HD
ENDROOT
BRANCH   5  11
ATOM     11  C   UNL     1       3.266   3.621  17.644  0.00  0.00    +0.000 A 
ATOM     12  C   UNL     1       1.967   4.014  17.981  0.00  0.00    +0.000 A 
ATOM     13  C   UNL     1       1.447   3.741  19.250  0.00  0.00    +0.000 A 
ATOM     14  C   UNL     1       2.216   3.057  20.196  0.00  0.00    +0.000 A 
ATOM     15 CL   UNL     1       1.524   2.778  21.753  0.00  0.00    +0.000 Cl
ATOM     16  C   UNL     1       3.504   2.637  19.865  0.00  0.00    +0.000 A 
ATOM     17 CL   UNL     1       4.520   1.777  20.967  0.00  0.00    +0.000 Cl
ATOM     18  C   UNL     1       4.017   2.921  18.597  0.00  0.00    +0.000 A 
ENDBRANCH   5  11
BRANCH   1  20
ATOM     19  C   UNL     1       7.324   5.160  11.228  0.00  0.00    +0.000 C 
ATOM     20  C   UNL     1       6.635   4.388  12.355  0.00  0.00    +0.000 C 
ATOM     21  C   UNL     1       6.427   2.934  11.923  0.00  0.00    +0.000 C 
ENDBRANCH   1  20
BRANCH   7  22
ATOM     22  C   UNL     1       7.731   6.242  17.938  0.00  0.00    +0.000 C 
ATOM     23  C   UNL     1       7.565   7.755  17.777  0.00  0.00    +0.000 C 
ATOM     24  C   UNL     1       7.260   5.804  19.328  0.00  0.00    +0.000 C 
ENDBRANCH   7  22
TORSDOF 3
ENDMDL
MODEL 4
REMARK VINA RESULT:      -7.4      1.004      1.251
REMARK  Name = 
REMARK  7 active torsions:
REMARK  status: ('A' for Active; 'I' for Inactive)
REMARK    1  A    between atoms: C_1  and  C_2
REMARK    2  A    between atoms: C_2  and  C_3
REMARK    3  A    between atoms: C_2  and  N_4
REMARK    4  A    between atoms: N_8  and  C_9
REMARK    5  A    between atoms: C_18  and  C_19
REMARK    6  A    between atoms: C_19  and  C_20
REMARK    7  A    between atoms: C_19  and  C_21
REMARK                            x       y       z     vdW  Elec       q    Type
REMARK                         _______ _______ _______ _____ _____    ______ ____
ROOT
ATOM      1  N   UNL     1       4.936   4.467  17.238  0.00  0.00    +0.000 N 
ATOM      2  C   UNL     1       3.989   5.086  18.043  0.00  0.00    +0.000 A 
ATOM      3  N   UNL     1       3.840   6.406  17.999  0.00  0.00    +0.000 NA
ATOM      4  C   UNL     1       2.862   6.900  18.744  0.00  0.00    +0.000 A 
ATOM      5  N   UNL     1       2.647   8.275  18.690  0.00  0.00    +0.000 N 
ATOM      6  N   UNL     1       2.100   6.164  19.542  0.00  0.00    +0.000 NA
ATOM      7  C   UNL     1       2.336   4.860  19.553  0.00  0.00    +0.000 A 
ATOM      8  N   UNL     1       3.272   4.272  18.812  0.00  0.00    +0.000 NA
ATOM      9  H   UNL     1       5.087   3.546  17.639  0.00  0.00    +0.000 HD
ATOM     10  H   UNL     1       3.337   8.737  18.115  0.00  0.00    +0.000 HD
ENDROOT
BRANCH   5  11
ATOM     11  C   UNL     1       1.447   8.959  18.925  0.00  0.00    +0.000 A 
ATOM     12  C   UNL     1       0.706   9.446  17.843  0.00  0.00    +0.000 A 
ATOM     13  C   UNL     1      -0.432  10.231  18.056  0.00  0.00    +0.000 A 
ATOM     14  C   UNL     1      -0.852  10.527  19.355  0.00  0.00    +0.000 A 
ATOM     15 CL   UNL     1      -2.248  11.525  19.547  0.00  0.00    +0.000 Cl
ATOM     16  C   UNL     1      -0.138  10.027  20.443  0.00  0.00    +0.000 A 
ATOM     17 CL   UNL     1      -0.591  10.335  22.083  0.00  0.00    +0.000 Cl
ATOM     18  C   UNL     1       1.002   9.251  20.221  0.00  0.00    +0.000 A 
ENDBRANCH   5  11
BRANCH   1  20
ATOM     19  C   UNL     1       7.312   4.670  17.694  0.00  0.00    +0.000 C 
ATOM     20  C   UNL     1       6.130   5.233  16.902  0.00  0.00    +0.000 C 
ATOM     21  C   UNL     1       6.426   5.130  15.403  0.00  0.00    +0.000 C 
ENDBRANCH   1  20
BRANCH   7  22
ATOM     22  C   UNL     1       1.488   4.011  20.475  0.00  0.00    +0.000 C 
ATOM     23  C   UNL     1       0.748   2.933  19.678  0.00  0.00    +0.000 C 
ATOM     24  C   UNL     1       2.335   3.367  21.575  0.00  0.00    +0.000 C 
ENDBRANCH   7  22
TORSDOF 3
ENDMDL
MODEL 5
REMARK VINA RESULT:      -7.2      1.251      1.949
REMARK  Name = 
REMARK  7 active torsions:
REMARK  status: ('A' for Active; 'I' for Inactive)
REMARK    1  A    between atoms: C_1  and  C_2
REMARK    2  A    between atoms: C_2  and  C_3
REMARK    3  A    between atoms: C_2  and  N_4
REMARK    4  A    between atoms: N_8  and  C_9
REMARK    5  A    between atoms: C_18  and  C_19
REMARK    6  A    between atoms: C_19  and  C_20
REMARK    7  A    between atoms: C_19  and  C_21
REMARK                            x       y       z     vdW  Elec       q    Type
REMARK                         _______ _______ _______ _____ _____    ______ ____
ROOT
ATOM      1  N   UNL     1       4.577   4.377  16.743  0.00  0.00    +0.000 N 
ATOM      2  C   UNL     1       3.752   5.106  17.589  0.00  0.00    +0.000 A 
ATOM      3  N   UNL     1       3.696   6.430  17.485  0.00  0.00    +0.000 NA
ATOM      4  C   UNL     1       2.827   7.033  18.282  0.00  0.00    +0.000 A 
ATOM      5  N   UNL     1       2.709   8.417  18.170  0.00  0.00    +0.000 N 
ATOM      6  N   UNL     1       2.086   6.398  19.180  0.00  0.00    +0.000 NA
ATOM      7  C   UNL     1       2.227   5.082  19.243  0.00  0.00    +0.000 A 
ATOM      8  N   UNL     1       3.048   4.389  18.460  0.00  0.00    +0.000 NA
ATOM      9  H   UNL     1       4.695   3.467  17.179  0.00  0.00    +0.000 HD
ATOM     10  H   UNL     1       3.377   8.796  17.514  0.00  0.00    +0.000 HD
ENDROOT
BRANCH   5  11
ATOM     11  C   UNL     1       1.588   9.203  18.467  0.00  0.00    +0.000 A 
ATOM     12  C   UNL     1       1.509   9.857  19.701  0.00  0.00    +0.000 A 
ATOM     13  C   UNL     1       0.351  10.550  20.066  0.00  0.00    +0.000 A 
ATOM     14  C   UNL     1      -0.740  10.612  19.195  0.00  0.00    +0.000 A 
ATOM     15 CL   UNL     1      -2.149  11.460  19.721  0.00  0.00    +0.000 Cl
ATOM     16  C   UNL     1      -0.666   9.986  17.951  0.00  0.00    +0.000 A 
ATOM     17 CL   UNL     1      -1.962  10.019  16.808  0.00  0.00    +0.000 Cl
ATOM     18  C   UNL     1       0.492   9.289  17.598  0.00  0.00    +0.000 A 
ENDBRANCH   5  11
BRANCH   1  20
ATOM     19  C   UNL     1       6.962   4.587  17.142  0.00  0.00    +0.000 C 
ATOM     20  C   UNL     1       5.789   5.030  16.266  0.00  0.00    +0.000 C 
ATOM     21  C   UNL     1       6.067   4.644  14.810  0.00  0.00    +0.000 C 
ENDBRANCH   1  20
BRANCH   7  22
ATOM     22  C   UNL     1       1.403   4.348  20.278  0.00  0.00    +0.000 C 
ATOM     23  C   UNL     1       0.760   3.101  19.664  0.00  0.00    +0.000 C 
ATOM     24  C   UNL     1       2.252   3.960  21.492  0.00  0.00    +0.000 C 
ENDBRANCH   7  22
TORSDOF 3
ENDMDL
MODEL 6
REMARK VINA RESULT:      -6.9      0.737      1.268
REMARK  Name = 
REMARK  7 active torsions:
REMARK  status: ('A' for Active; 'I' for Inactive)
REMARK    1  A    between atoms: C_1  and  C_2
REMARK    2  A    between atoms: C_2  and  C_3
REMARK    3  A    between atoms: C_2  and  N_4
REMARK    4  A    between atoms: N_8  and  C_9
REMARK    5  A    between atoms: C_18  and  C_19
REMARK    6  A    between atoms: C_19  and  C_20
REMARK    7  A    between atoms: C_19  and  C_21
REMARK                            x       y       z     vdW  Elec       q    Type
REMARK                         _______ _______ _______ _____ _____    ______ ____
ROOT
ATOM      1  N   UNL     1       4.480   3.808  16.514  0.00  0.00    +0.000 N 
ATOM      2  C   UNL     1       3.654   4.438  17.436  0.00  0.00    +0.000 A 
ATOM      3  N   UNL     1       3.730   5.753  17.607  0.00  0.00    +0.000 NA
ATOM      4  C   UNL     1       2.853   6.275  18.451  0.00  0.00    +0.000 A 
ATOM      5  N   UNL     1       2.873   7.658  18.623  0.00  0.00    +0.000 N 
ATOM      6  N   UNL     1       1.980   5.557  19.144  0.00  0.00    +0.000 NA
ATOM      7  C   UNL     1       1.992   4.247  18.940  0.00  0.00    +0.000 A 
ATOM      8  N   UNL     1       2.812   3.641  18.087  0.00  0.00    +0.000 NA
ATOM      9  H   UNL     1       4.475   2.822  16.758  0.00  0.00    +0.000 HD
ATOM     10  H   UNL     1       3.629   8.085  18.108  0.00  0.00    +0.000 HD
ENDROOT
BRANCH   5  11
ATOM     11  C   UNL     1       1.807   8.484  19.001  0.00  0.00    +0.000 A 
ATOM     12  C   UNL     1       1.215   9.326  18.053  0.00  0.00    +0.000 A 
ATOM     13  C   UNL     1       0.229  10.243  18.432  0.00  0.00    +0.000 A 
ATOM     14  C   UNL     1      -0.189  10.319  19.763  0.00  0.00    +0.000 A 
ATOM     15 CL   UNL     1      -1.390  11.493  20.168  0.00  0.00    +0.000 Cl
ATOM     16  C   UNL     1       0.373   9.469  20.714  0.00  0.00    +0.000 A 
ATOM     17 CL   UNL     1      -0.091   9.488  22.379  0.00  0.00    +0.000 Cl
ATOM     18  C   UNL     1       1.363   8.562  20.327  0.00  0.00    +0.000 A 
ENDBRANCH   5  11
BRANCH   1  20
ATOM     19  C   UNL     1       5.588   5.696  15.465  0.00  0.00    +0.000 C 
ATOM     20  C   UNL     1       5.785   4.409  16.268  0.00  0.00    +0.000 C 
ATOM     21  C   UNL     1       6.481   4.736  17.592  0.00  0.00    +0.000 C 
ENDBRANCH   1  20
BRANCH   7  22
ATOM     22  C   UNL     1       1.015   3.414  19.740  0.00  0.00    +0.000 C 
ATOM     23  C   UNL     1       0.670   2.125  18.989  0.00  0.00    +0.000 C 
ATOM     24  C   UNL     1       1.572   3.082  21.128  0.00  0.00    +0.000 C 
ENDBRANCH   7  22
TORSDOF 3
ENDMDL
MODEL 7
REMARK VINA RESULT:      -6.9      2.259      4.191
REMARK  Name = 
REMARK  7 active torsions:
REMARK  status: ('A' for Active; 'I' for Inactive)
REMARK    1  A    between atoms: C_1  and  C_2
REMARK    2  A    between atoms: C_2  and  C_3
REMARK    3  A    between atoms: C_2  and  N_4
REMARK    4  A    between atoms: N_8  and  C_9
REMARK    5  A    between atoms: C_18  and  C_19
REMARK    6  A    between atoms: C_19  and  C_20
REMARK    7  A    between atoms: C_19  and  C_21
REMARK                            x       y       z     vdW  Elec       q    Type
REMARK                         _______ _______ _______ _____ _____    ______ ____
ROOT
ATOM      1  N   UNL     1       7.077   4.252  14.322  0.00  0.00    +0.000 N 
ATOM      2  C   UNL     1       6.667   5.064  15.371  0.00  0.00    +0.000 A 
ATOM      3  N   UNL     1       5.441   5.577  15.377  0.00  0.00    +0.000 NA
ATOM      4  C   UNL     1       5.114   6.275  16.454  0.00  0.00    +0.000 A 
ATOM      5  N   UNL     1       3.822   6.792  16.514  0.00  0.00    +0.000 N 
ATOM      6  N   UNL     1       5.949   6.519  17.455  0.00  0.00    +0.000 NA
ATOM      7  C   UNL     1       7.164   6.000  17.356  0.00  0.00    +0.000 A 
ATOM      8  N   UNL     1       7.568   5.257  16.330  0.00  0.00    +0.000 NA
ATOM      9  H   UNL     1       8.091   4.229  14.363  0.00  0.00    +0.000 HD
ATOM     10  H   UNL     1       3.309   6.611  15.664  0.00  0.00    +0.000 HD
ENDROOT
BRANCH   5  11
ATOM     11  C   UNL     1       3.075   7.085  17.663  0.00  0.00    +0.000 A 
ATOM     12  C   UNL     1       2.596   8.383  17.863  0.00  0.00    +0.000 A 
ATOM     13  C   UNL     1       1.949   8.727  19.055  0.00  0.00    +0.000 A 
ATOM     14  C   UNL     1       1.760   7.771  20.057  0.00  0.00    +0.000 A 
ATOM     15 CL   UNL     1       0.979   8.270  21.514  0.00  0.00    +0.000 Cl
ATOM     16  C   UNL     1       2.209   6.466  19.860  0.00  0.00    +0.000 A 
ATOM     17 CL   UNL     1       2.008   5.219  21.040  0.00  0.00    +0.000 Cl
ATOM     18  C   UNL     1       2.861   6.134  18.670  0.00  0.00    +0.000 A 
ENDBRANCH   5  11
BRANCH   1  20
ATOM     19  C   UNL     1       7.555   5.110  12.101  0.00  0.00    +0.000 C 
ATOM     20  C   UNL     1       6.486   4.505  13.013  0.00  0.00    +0.000 C 
ATOM     21  C   UNL     1       5.972   3.200  12.398  0.00  0.00    +0.000 C 
ENDBRANCH   1  20
BRANCH   7  22
ATOM     22  C   UNL     1       8.133   6.288  18.483  0.00  0.00    +0.000 C 
ATOM     23  C   UNL     1       8.335   7.797  18.641  0.00  0.00    +0.000 C 
ATOM     24  C   UNL     1       7.648   5.679  19.802  0.00  0.00    +0.000 C 
ENDBRANCH   7  22
TORSDOF 3
ENDMDL
MODEL 8
REMARK VINA RESULT:      -6.8      2.238      4.148
REMARK  Name = 
REMARK  7 active torsions:
REMARK  status: ('A' for Active; 'I' for Inactive)
REMARK    1  A    between atoms: C_1  and  C_2
REMARK    2  A    between atoms: C_2  and  C_3
REMARK    3  A    between atoms: C_2  and  N_4
REMARK    4  A    between atoms: N_8  and  C_9
REMARK    5  A    between atoms: C_18  and  C_19
REMARK    6  A    between atoms: C_19  and  C_20
REMARK    7  A    between atoms: C_19  and  C_21
REMARK                            x       y       z     vdW  Elec       q    Type
REMARK                         _______ _______ _______ _____ _____    ______ ____
ROOT
ATOM      1  N   UNL     1       6.905   4.105  14.463  0.00  0.00    +0.000 N 
ATOM      2  C   UNL     1       6.574   4.987  15.483  0.00  0.00    +0.000 A 
ATOM      3  N   UNL     1       5.396   5.603  15.474  0.00  0.00    +0.000 NA
ATOM      4  C   UNL     1       5.138   6.366  16.526  0.00  0.00    +0.000 A 
ATOM      5  N   UNL     1       3.895   6.994  16.572  0.00  0.00    +0.000 N 
ATOM      6  N   UNL     1       5.997   6.574  17.514  0.00  0.00    +0.000 NA
ATOM      7  C   UNL     1       7.163   5.949  17.430  0.00  0.00    +0.000 A 
ATOM      8  N   UNL     1       7.495   5.137  16.430  0.00  0.00    +0.000 NA
ATOM      9  H   UNL     1       7.914   3.996  14.501  0.00  0.00    +0.000 HD
ATOM     10  H   UNL     1       3.362   6.826  15.731  0.00  0.00    +0.000 HD
ENDROOT
BRANCH   5  11
ATOM     11  C   UNL     1       3.184   7.391  17.712  0.00  0.00    +0.000 A 
ATOM     12  C   UNL     1       3.087   6.523  18.804  0.00  0.00    +0.000 A 
ATOM     13  C   UNL     1       2.287   6.850  19.904  0.00  0.00    +0.000 A 
ATOM     14  C   UNL     1       1.585   8.058  19.933  0.00  0.00    +0.000 A 
ATOM     15 CL   UNL     1       0.594   8.386  21.309  0.00  0.00    +0.000 Cl
ATOM     16  C   UNL     1       1.694   8.945  18.863  0.00  0.00    +0.000 A 
ATOM     17 CL   UNL     1       0.870  10.464  18.819  0.00  0.00    +0.000 Cl
ATOM     18  C   UNL     1       2.488   8.606  17.765  0.00  0.00    +0.000 A 
ENDBRANCH   5  11
BRANCH   1  20
ATOM     19  C   UNL     1       7.398   4.998  12.259  0.00  0.00    +0.000 C 
ATOM     20  C   UNL     1       6.328   4.360  13.148  0.00  0.00    +0.000 C 
ATOM     21  C   UNL     1       5.852   3.051  12.511  0.00  0.00    +0.000 C 
ENDBRANCH   1  20
BRANCH   7  22
ATOM     22  C   UNL     1       8.161   6.194  18.541  0.00  0.00    +0.000 C 
ATOM     23  C   UNL     1       8.413   7.694  18.712  0.00  0.00    +0.000 C 
ATOM     24  C   UNL     1       7.682   5.586  19.862  0.00  0.00    +0.000 C 
ENDBRANCH   7  22
TORSDOF 3
ENDMDL
MODEL 9
REMARK VINA RESULT:      -6.6      4.261      8.128
REMARK  Name = 
REMARK  7 active torsions:
REMARK  status: ('A' for Active; 'I' for Inactive)
REMARK    1  A    between atoms: C_1  and  C_2
REMARK    2  A    between atoms: C_2  and  C_3
REMARK    3  A    between atoms: C_2  and  N_4
REMARK    4  A    between atoms: N_8  and  C_9
REMARK    5  A    between atoms: C_18  and  C_19
REMARK    6  A    between atoms: C_19  and  C_20
REMARK    7  A    between atoms: C_19  and  C_21
REMARK                            x       y       z     vdW  Elec       q    Type
REMARK                         _______ _______ _______ _____ _____    ______ ____
ROOT
ATOM      1  N   UNL     1      -1.095  13.947  18.973  0.00  0.00    +0.000 N 
ATOM      2  C   UNL     1      -0.833  12.632  18.614  0.00  0.00    +0.000 A 
ATOM      3  N   UNL     1       0.300  12.052  18.995  0.00  0.00    +0.000 NA
ATOM      4  C   UNL     1       0.430  10.774  18.671  0.00  0.00    +0.000 A 
ATOM      5  N   UNL     1       1.586  10.120  19.093  0.00  0.00    +0.000 N 
ATOM      6  N   UNL     1      -0.463  10.100  17.960  0.00  0.00    +0.000 NA
ATOM      7  C   UNL     1      -1.550  10.762  17.589  0.00  0.00    +0.000 A 
ATOM      8  N   UNL     1      -1.781  12.034  17.899  0.00  0.00    +0.000 NA
ATOM      9  H   UNL     1      -1.828  14.270  18.348  0.00  0.00    +0.000 HD
ATOM     10  H   UNL     1       2.224  10.753  19.553  0.00  0.00    +0.000 HD
ENDROOT
BRANCH   5  11
ATOM     11  C   UNL     1       1.745   8.752  19.349  0.00  0.00    +0.000 A 
ATOM     12  C   UNL     1       1.336   8.227  20.579  0.00  0.00    +0.000 A 
ATOM     13  C   UNL     1       1.590   6.890  20.902  0.00  0.00    +0.000 A 
ATOM     14  C   UNL     1       2.243   6.056  19.991  0.00  0.00    +0.000 A 
ATOM     15 CL   UNL     1       2.551   4.424  20.465  0.00  0.00    +0.000 Cl
ATOM     16  C   UNL     1       2.634   6.559  18.751  0.00  0.00    +0.000 A 
ATOM     17 CL   UNL     1       3.438   5.596  17.561  0.00  0.00    +0.000 Cl
ATOM     18  C   UNL     1       2.383   7.897  18.441  0.00  0.00    +0.000 A 
ENDBRANCH   5  11
BRANCH   1  20
ATOM     19  C   UNL     1      -0.259  16.169  18.464  0.00  0.00    +0.000 C 
ATOM     20  C   UNL     1       0.049  14.834  19.144  0.00  0.00    +0.000 C 
ATOM     21  C   UNL     1       0.323  15.072  20.631  0.00  0.00    +0.000 C 
ENDBRANCH   1  20
BRANCH   7  22
ATOM     22  C   UNL     1      -2.568  10.010  16.759  0.00  0.00    +0.000 C 
ATOM     23  C   UNL     1      -3.770   9.612  17.620  0.00  0.00    +0.000 C 
ATOM     24  C   UNL     1      -3.030  10.841  15.559  0.00  0.00    +0.000 C 
ENDBRANCH   7  22
TORSDOF 3
ENDMDL
