MODEL 1
REMARK VINA RESULT:      -8.5      0.000      0.000
REMARK  Name = 
REMARK  4 active torsions:
REMARK  status: ('A' for Active; 'I' for Inactive)
REMARK    1  A    between atoms: C_2  and  C_11
REMARK    2  A    between atoms: C_13  and  O_14
REMARK    3  A    between atoms: O_14  and  C_15
REMARK    4  A    between atoms: C_22  and  C_23
REMARK                            x       y       z     vdW  Elec       q    Type
REMARK                         _______ _______ _______ _____ _____    ______ ____
ROOT
ATOM      1  C   UNL     1       2.901   5.821  19.757  0.00  0.00    +0.000 A 
ATOM      2  C   UNL     1       4.154   5.724  19.172  0.00  0.00    +0.000 A 
ATOM      3  C   UNL     1       4.769   4.478  19.139  0.00  0.00    +0.000 A 
ATOM      4  C   UNL     1       4.068   3.366  19.590  0.00  0.00    +0.000 A 
ATOM      5  C   UNL     1       2.797   3.539  20.142  0.00  0.00    +0.000 A 
ATOM      6  N   UNL     1       2.220   4.767  20.274  0.00  0.00    +0.000 NA
ENDROOT
BRANCH   1   8
ATOM      7  O   UNL     1       2.507   7.960  18.893  0.00  0.00    +0.000 OA
ATOM      8  C   UNL     1       2.242   7.155  19.778  0.00  0.00    +0.000 C 
ATOM      9  N   UNL     1       1.420   7.405  20.861  0.00  0.00    +0.000 N 
ATOM     10  C   UNL     1       0.800   8.641  21.052  0.00  0.00    +0.000 A 
ATOM     11  C   UNL     1       0.260   9.349  19.977  0.00  0.00    +0.000 A 
ATOM     12  C   UNL     1      -0.265  10.619  20.194  0.00  0.00    +0.000 A 
ATOM     13  C   UNL     1      -0.216  11.143  21.473  0.00  0.00    +0.000 A 
ATOM     14  F   UNL     1      -0.660  12.382  21.712  0.00  0.00    +0.000 F 
ATOM     15  C   UNL     1       0.307  10.364  22.493  0.00  0.00    +0.000 A 
ATOM     16  N   UNL     1       0.781   9.104  22.319  0.00  0.00    +0.000 NA
ATOM     17  H   UNL     1       1.559   6.847  21.694  0.00  0.00    +0.000 HD
ENDBRANCH   1   8
BRANCH   5  18
ATOM     18  C   UNL     1       2.005   2.314  20.550  0.00  0.00    +0.000 C 
ATOM     19  F   UNL     1       0.871   2.637  21.236  0.00  0.00    +0.000 F 
ATOM     20  F   UNL     1       1.588   1.578  19.480  0.00  0.00    +0.000 F 
ENDBRANCH   5  18
BRANCH   3  21
ATOM     21  O   UNL     1       6.020   4.247  18.606  0.00  0.00    +0.000 OA
BRANCH  21  22
ATOM     22  C   UNL     1       6.223   4.438  17.268  0.00  0.00    +0.000 A 
ATOM     23  C   UNL     1       5.506   3.852  16.244  0.00  0.00    +0.000 A 
ATOM     24  N   UNL     1       5.760   4.057  14.934  0.00  0.00    +0.000 NA
ATOM     25  C   UNL     1       6.752   4.919  14.662  0.00  0.00    +0.000 A 
ATOM     26  N   UNL     1       7.478   5.594  15.567  0.00  0.00    +0.000 NA
ATOM     27  C   UNL     1       7.184   5.339  16.861  0.00  0.00    +0.000 A 
ENDBRANCH  21  22
ENDBRANCH   3  21
TORSDOF 4
ENDMDL
MODEL 2
REMARK VINA RESULT:      -8.5      0.930      1.371
REMARK  Name = 
REMARK  4 active torsions:
REMARK  status: ('A' for Active; 'I' for Inactive)
REMARK    1  A    between atoms: C_2  and  C_11
REMARK    2  A    between atoms: C_13  and  O_14
REMARK    3  A    between atoms: O_14  and  C_15
REMARK    4  A    between atoms: C_22  and  C_23
REMARK                            x       y       z     vdW  Elec       q    Type
REMARK                         _______ _______ _______ _____ _____    ______ ____
ROOT
ATOM      1  C   UNL     1       2.915   6.188  19.345  0.00  0.00    +0.000 A 
ATOM      2  C   UNL     1       4.162   5.905  18.809  0.00  0.00    +0.000 A 
ATOM      3  C   UNL     1       4.693   4.638  19.014  0.00  0.00    +0.000 A 
ATOM      4  C   UNL     1       3.917   3.674  19.647  0.00  0.00    +0.000 A 
ATOM      5  C   UNL     1       2.657   4.026  20.136  0.00  0.00    +0.000 A 
ATOM      6  N   UNL     1       2.162   5.292  20.032  0.00  0.00    +0.000 NA
ENDROOT
BRANCH   1   8
ATOM      7  O   UNL     1       2.683   8.162  18.109  0.00  0.00    +0.000 OA
ATOM      8  C   UNL     1       2.346   7.543  19.111  0.00  0.00    +0.000 C 
ATOM      9  N   UNL     1       1.518   8.029  20.106  0.00  0.00    +0.000 N 
ATOM     10  C   UNL     1       0.978   9.316  20.057  0.00  0.00    +0.000 A 
ATOM     11  C   UNL     1       0.510   9.856  18.859  0.00  0.00    +0.000 A 
ATOM     12  C   UNL     1       0.066  11.174  18.833  0.00  0.00    +0.000 A 
ATOM     13  C   UNL     1       0.122  11.911  20.002  0.00  0.00    +0.000 A 
ATOM     14  F   UNL     1      -0.244  13.197  20.007  0.00  0.00    +0.000 F 
ATOM     15  C   UNL     1       0.568  11.293  21.159  0.00  0.00    +0.000 A 
ATOM     16  N   UNL     1       0.962   9.995  21.223  0.00  0.00    +0.000 NA
ATOM     17  H   UNL     1       1.601   7.620  21.027  0.00  0.00    +0.000 HD
ENDBRANCH   1   8
BRANCH   5  18
ATOM     18  C   UNL     1       1.783   2.950  20.746  0.00  0.00    +0.000 C 
ATOM     19  F   UNL     1       1.773   3.004  22.109  0.00  0.00    +0.000 F 
ATOM     20  F   UNL     1       0.478   3.055  20.366  0.00  0.00    +0.000 F 
ENDBRANCH   5  18
BRANCH   3  21
ATOM     21  O   UNL     1       5.929   4.233  18.554  0.00  0.00    +0.000 OA
BRANCH  21  22
ATOM     22  C   UNL     1       6.273   4.479  17.255  0.00  0.00    +0.000 A 
ATOM     23  C   UNL     1       7.209   5.397  16.821  0.00  0.00    +0.000 A 
ATOM     24  N   UNL     1       7.499   5.619  15.521  0.00  0.00    +0.000 NA
ATOM     25  C   UNL     1       6.841   4.851  14.639  0.00  0.00    +0.000 A 
ATOM     26  N   UNL     1       5.956   3.887  14.941  0.00  0.00    +0.000 NA
ATOM     27  C   UNL     1       5.700   3.720  16.257  0.00  0.00    +0.000 A 
ENDBRANCH  21  22
ENDBRANCH   3  21
TORSDOF 4
ENDMDL
MODEL 3
REMARK VINA RESULT:      -8.1      2.965      4.769
REMARK  Name = 
REMARK  4 active torsions:
REMARK  status: ('A' for Active; 'I' for Inactive)
REMARK    1  A    between atoms: C_2  and  C_11
REMARK    2  A    between atoms: C_13  and  O_14
REMARK    3  A    between atoms: O_14  and  C_15
REMARK    4  A    between atoms: C_22  and  C_23
REMARK                            x       y       z     vdW  Elec       q    Type
REMARK                         _______ _______ _______ _____ _____    ______ ____
ROOT
ATOM      1  C   UNL     1       3.478   7.078  17.848  0.00  0.00    +0.000 A 
ATOM      2  C   UNL     1       2.982   5.819  18.146  0.00  0.00    +0.000 A 
ATOM      3  C   UNL     1       3.839   4.731  18.030  0.00  0.00    +0.000 A 
ATOM      4  C   UNL     1       5.177   4.953  17.731  0.00  0.00    +0.000 A 
ATOM      5  C   UNL     1       5.611   6.256  17.471  0.00  0.00    +0.000 A 
ATOM      6  N   UNL     1       4.762   7.322  17.482  0.00  0.00    +0.000 NA
ENDROOT
BRANCH   1   8
ATOM      7  O   UNL     1       2.546   9.092  17.104  0.00  0.00    +0.000 OA
ATOM      8  C   UNL     1       2.560   8.241  17.986  0.00  0.00    +0.000 C 
ATOM      9  N   UNL     1       1.834   8.301  19.160  0.00  0.00    +0.000 N 
ATOM     10  C   UNL     1       0.994   9.376  19.458  0.00  0.00    +0.000 A 
ATOM     11  C   UNL     1       0.197   9.961  18.474  0.00  0.00    +0.000 A 
ATOM     12  C   UNL     1      -0.555  11.088  18.789  0.00  0.00    +0.000 A 
ATOM     13  C   UNL     1      -0.471  11.600  20.071  0.00  0.00    +0.000 A 
ATOM     14  F   UNL     1      -1.135  12.714  20.398  0.00  0.00    +0.000 F 
ATOM     15  C   UNL     1       0.317  10.941  21.001  0.00  0.00    +0.000 A 
ATOM     16  N   UNL     1       1.023   9.813  20.735  0.00  0.00    +0.000 NA
ATOM     17  H   UNL     1       2.181   7.778  19.954  0.00  0.00    +0.000 HD
ENDBRANCH   1   8
BRANCH   5  18
ATOM     18  C   UNL     1       7.086   6.500  17.233  0.00  0.00    +0.000 C 
ATOM     19  F   UNL     1       7.385   7.830  17.167  0.00  0.00    +0.000 F 
ATOM     20  F   UNL     1       7.869   5.999  18.230  0.00  0.00    +0.000 F 
ENDBRANCH   5  18
BRANCH   3  21
ATOM     21  O   UNL     1       3.468   3.425  18.275  0.00  0.00    +0.000 OA
BRANCH  21  22
ATOM     22  C   UNL     1       2.776   3.128  19.415  0.00  0.00    +0.000 A 
ATOM     23  C   UNL     1       1.402   3.054  19.537  0.00  0.00    +0.000 A 
ATOM     24  N   UNL     1       0.763   2.777  20.694  0.00  0.00    +0.000 NA
ATOM     25  C   UNL     1       1.554   2.529  21.750  0.00  0.00    +0.000 A 
ATOM     26  N   UNL     1       2.896   2.512  21.741  0.00  0.00    +0.000 NA
ATOM     27  C   UNL     1       3.477   2.806  20.558  0.00  0.00    +0.000 A 
ENDBRANCH  21  22
ENDBRANCH   3  21
TORSDOF 4
ENDMDL
MODEL 4
REMARK VINA RESULT:      -8.0      1.363      1.684
REMARK  Name = 
REMARK  4 active torsions:
REMARK  status: ('A' for Active; 'I' for Inactive)
REMARK    1  A    between atoms: C_2  and  C_11
REMARK    2  A    between atoms: C_13  and  O_14
REMARK    3  A    between atoms: O_14  and  C_15
REMARK    4  A    between atoms: C_22  and  C_23
REMARK                            x       y       z     vdW  Elec       q    Type
REMARK                         _______ _______ _______ _____ _____    ______ ____
ROOT
ATOM      1  C   UNL     1       2.632   6.264  19.070  0.00  0.00    +0.000 A 
ATOM      2  C   UNL     1       3.225   5.623  17.993  0.00  0.00    +0.000 A 
ATOM      3  C   UNL     1       3.565   4.283  18.133  0.00  0.00    +0.000 A 
ATOM      4  C   UNL     1       3.204   3.611  19.294  0.00  0.00    +0.000 A 
ATOM      5  C   UNL     1       2.583   4.319  20.326  0.00  0.00    +0.000 A 
ATOM      6  N   UNL     1       2.332   5.657  20.245  0.00  0.00    +0.000 NA
ENDROOT
BRANCH   1   8
ATOM      7  O   UNL     1       2.777   8.347  18.011  0.00  0.00    +0.000 OA
ATOM      8  C   UNL     1       2.258   7.695  18.910  0.00  0.00    +0.000 C 
ATOM      9  N   UNL     1       1.388   8.201  19.858  0.00  0.00    +0.000 N 
ATOM     10  C   UNL     1       1.014   9.546  19.878  0.00  0.00    +0.000 A 
ATOM     11  C   UNL     1       0.751  10.238  18.695  0.00  0.00    +0.000 A 
ATOM     12  C   UNL     1       0.473  11.600  18.751  0.00  0.00    +0.000 A 
ATOM     13  C   UNL     1       0.484  12.225  19.984  0.00  0.00    +0.000 A 
ATOM     14  F   UNL     1       0.276  13.543  20.075  0.00  0.00    +0.000 F 
ATOM     15  C   UNL     1       0.721  11.462  21.116  0.00  0.00    +0.000 A 
ATOM     16  N   UNL     1       0.948  10.123  21.095  0.00  0.00    +0.000 NA
ATOM     17  H   UNL     1       1.317   7.710  20.739  0.00  0.00    +0.000 HD
ENDBRANCH   1   8
BRANCH   5  18
ATOM     18  C   UNL     1       2.114   3.562  21.551  0.00  0.00    +0.000 C 
ATOM     19  F   UNL     1       0.876   3.014  21.377  0.00  0.00    +0.000 F 
ATOM     20  F   UNL     1       2.934   2.520  21.870  0.00  0.00    +0.000 F 
ENDBRANCH   5  18
BRANCH   3  21
ATOM     21  O   UNL     1       4.177   3.533  17.150  0.00  0.00    +0.000 OA
BRANCH  21  22
ATOM     22  C   UNL     1       5.276   4.036  16.511  0.00  0.00    +0.000 A 
ATOM     23  C   UNL     1       6.485   4.352  17.098  0.00  0.00    +0.000 A 
ATOM     24  N   UNL     1       7.536   4.867  16.425  0.00  0.00    +0.000 NA
ATOM     25  C   UNL     1       7.360   5.028  15.104  0.00  0.00    +0.000 A 
ATOM     26  N   UNL     1       6.256   4.703  14.413  0.00  0.00    +0.000 NA
ATOM     27  C   UNL     1       5.235   4.201  15.142  0.00  0.00    +0.000 A 
ENDBRANCH  21  22
ENDBRANCH   3  21
TORSDOF 4
ENDMDL
MODEL 5
REMARK VINA RESULT:      -8.0      1.568      1.865
REMARK  Name = 
REMARK  4 active torsions:
REMARK  status: ('A' for Active; 'I' for Inactive)
REMARK    1  A    between atoms: C_2  and  C_11
REMARK    2  A    between atoms: C_13  and  O_14
REMARK    3  A    between atoms: O_14  and  C_15
REMARK    4  A    between atoms: C_22  and  C_23
REMARK                            x       y       z     vdW  Elec       q    Type
REMARK                         _______ _______ _______ _____ _____    ______ ____
ROOT
ATOM      1  C   UNL     1       2.199   6.302  19.987  0.00  0.00    +0.000 A 
ATOM      2  C   UNL     1       3.269   6.185  19.114  0.00  0.00    +0.000 A 
ATOM      3  C   UNL     1       3.826   4.927  18.921  0.00  0.00    +0.000 A 
ATOM      4  C   UNL     1       3.228   3.824  19.518  0.00  0.00    +0.000 A 
ATOM      5  C   UNL     1       2.133   4.017  20.364  0.00  0.00    +0.000 A 
ATOM      6  N   UNL     1       1.637   5.256  20.644  0.00  0.00    +0.000 NA
ENDROOT
BRANCH   1   8
ATOM      7  O   UNL     1       2.034   8.590  19.528  0.00  0.00    +0.000 OA
ATOM      8  C   UNL     1       1.599   7.649  20.181  0.00  0.00    +0.000 C 
ATOM      9  N   UNL     1       0.624   7.741  21.157  0.00  0.00    +0.000 N 
ATOM     10  C   UNL     1       0.032   8.958  21.501  0.00  0.00    +0.000 A 
ATOM     11  C   UNL     1      -0.301   9.898  20.525  0.00  0.00    +0.000 A 
ATOM     12  C   UNL     1      -0.803  11.135  20.915  0.00  0.00    +0.000 A 
ATOM     13  C   UNL     1      -0.938  11.395  22.266  0.00  0.00    +0.000 A 
ATOM     14  F   UNL     1      -1.365  12.593  22.683  0.00  0.00    +0.000 F 
ATOM     15  C   UNL     1      -0.617  10.398  23.172  0.00  0.00    +0.000 A 
ATOM     16  N   UNL     1      -0.172   9.165  22.818  0.00  0.00    +0.000 NA
ATOM     17  H   UNL     1       0.605   7.024  21.870  0.00  0.00    +0.000 HD
ENDBRANCH   1   8
BRANCH   5  18
ATOM     18  C   UNL     1       1.434   2.803  20.941  0.00  0.00    +0.000 C 
ATOM     19  F   UNL     1       1.318   1.793  20.030  0.00  0.00    +0.000 F 
ATOM     20  F   UNL     1       2.103   2.266  22.000  0.00  0.00    +0.000 F 
ENDBRANCH   5  18
BRANCH   3  21
ATOM     21  O   UNL     1       4.903   4.676  18.097  0.00  0.00    +0.000 OA
BRANCH  21  22
ATOM     22  C   UNL     1       5.895   5.610  17.989  0.00  0.00    +0.000 A 
ATOM     23  C   UNL     1       5.954   6.632  17.062  0.00  0.00    +0.000 A 
ATOM     24  N   UNL     1       6.968   7.519  16.983  0.00  0.00    +0.000 NA
ATOM     25  C   UNL     1       7.935   7.381  17.905  0.00  0.00    +0.000 A 
ATOM     26  N   UNL     1       7.959   6.468  18.889  0.00  0.00    +0.000 NA
ATOM     27  C   UNL     1       6.921   5.603  18.910  0.00  0.00    +0.000 A 
ENDBRANCH  21  22
ENDBRANCH   3  21
TORSDOF 4
ENDMDL
MODEL 6
REMARK VINA RESULT:      -8.0      1.975      2.521
REMARK  Name = 
REMARK  4 active torsions:
REMARK  status: ('A' for Active; 'I' for Inactive)
REMARK    1  A    between atoms: C_2  and  C_11
REMARK    2  A    between atoms: C_13  and  O_14
REMARK    3  A    between atoms: O_14  and  C_15
REMARK    4  A    between atoms: C_22  and  C_23
REMARK                            x       y       z     vdW  Elec       q    Type
REMARK                         _______ _______ _______ _____ _____    ______ ____
ROOT
ATOM      1  C   UNL     1       2.077   6.689  20.176  0.00  0.00    +0.000 A 
ATOM      2  C   UNL     1       3.025   6.608  19.169  0.00  0.00    +0.000 A 
ATOM      3  C   UNL     1       3.585   5.367  18.891  0.00  0.00    +0.000 A 
ATOM      4  C   UNL     1       3.101   4.244  19.549  0.00  0.00    +0.000 A 
ATOM      5  C   UNL     1       2.122   4.400  20.534  0.00  0.00    +0.000 A 
ATOM      6  N   UNL     1       1.634   5.623  20.890  0.00  0.00    +0.000 NA
ENDROOT
BRANCH   1   8
ATOM      7  O   UNL     1       1.070   8.255  21.595  0.00  0.00    +0.000 OA
ATOM      8  C   UNL     1       1.471   8.017  20.461  0.00  0.00    +0.000 C 
ATOM      9  N   UNL     1       1.345   8.868  19.379  0.00  0.00    +0.000 N 
ATOM     10  C   UNL     1       0.723  10.114  19.484  0.00  0.00    +0.000 A 
ATOM     11  C   UNL     1       0.924  10.927  20.600  0.00  0.00    +0.000 A 
ATOM     12  C   UNL     1       0.214  12.118  20.710  0.00  0.00    +0.000 A 
ATOM     13  C   UNL     1      -0.683  12.446  19.709  0.00  0.00    +0.000 A 
ATOM     14  F   UNL     1      -1.425  13.555  19.805  0.00  0.00    +0.000 F 
ATOM     15  C   UNL     1      -0.800  11.602  18.617  0.00  0.00    +0.000 A 
ATOM     16  N   UNL     1      -0.086  10.459  18.460  0.00  0.00    +0.000 NA
ATOM     17  H   UNL     1       1.356   8.456  18.455  0.00  0.00    +0.000 HD
ENDBRANCH   1   8
BRANCH   5  18
ATOM     18  C   UNL     1       1.537   3.164  21.184  0.00  0.00    +0.000 C 
ATOM     19  F   UNL     1       1.156   2.229  20.266  0.00  0.00    +0.000 F 
ATOM     20  F   UNL     1       2.425   2.531  22.004  0.00  0.00    +0.000 F 
ENDBRANCH   5  18
BRANCH   3  21
ATOM     21  O   UNL     1       4.552   5.152  17.930  0.00  0.00    +0.000 OA
BRANCH  21  22
ATOM     22  C   UNL     1       5.731   5.839  18.002  0.00  0.00    +0.000 A 
ATOM     23  C   UNL     1       6.762   5.597  18.888  0.00  0.00    +0.000 A 
ATOM     24  N   UNL     1       7.902   6.320  18.932  0.00  0.00    +0.000 NA
ATOM     25  C   UNL     1       8.008   7.296  18.016  0.00  0.00    +0.000 A 
ATOM     26  N   UNL     1       7.103   7.587  17.068  0.00  0.00    +0.000 NA
ATOM     27  C   UNL     1       5.980   6.836  17.081  0.00  0.00    +0.000 A 
ENDBRANCH  21  22
ENDBRANCH   3  21
TORSDOF 4
ENDMDL
MODEL 7
REMARK VINA RESULT:      -8.0      1.396      1.768
REMARK  Name = 
REMARK  4 active torsions:
REMARK  status: ('A' for Active; 'I' for Inactive)
REMARK    1  A    between atoms: C_2  and  C_11
REMARK    2  A    between atoms: C_13  and  O_14
REMARK    3  A    between atoms: O_14  and  C_15
REMARK    4  A    between atoms: C_22  and  C_23
REMARK                            x       y       z     vdW  Elec       q    Type
REMARK                         _______ _______ _______ _____ _____    ______ ____
ROOT
ATOM      1  C   UNL     1       2.442   6.094  19.947  0.00  0.00    +0.000 A 
ATOM      2  C   UNL     1       3.659   5.990  19.292  0.00  0.00    +0.000 A 
ATOM      3  C   UNL     1       4.242   4.734  19.184  0.00  0.00    +0.000 A 
ATOM      4  C   UNL     1       3.540   3.622  19.632  0.00  0.00    +0.000 A 
ATOM      5  C   UNL     1       2.303   3.803  20.257  0.00  0.00    +0.000 A 
ATOM      6  N   UNL     1       1.764   5.038  20.462  0.00  0.00    +0.000 NA
ENDROOT
BRANCH   1   8
ATOM      7  O   UNL     1       2.198   8.329  19.297  0.00  0.00    +0.000 OA
ATOM      8  C   UNL     1       1.817   7.440  20.050  0.00  0.00    +0.000 C 
ATOM      9  N   UNL     1       0.885   7.598  21.059  0.00  0.00    +0.000 N 
ATOM     10  C   UNL     1       0.278   8.827  21.321  0.00  0.00    +0.000 A 
ATOM     11  C   UNL     1      -0.122   9.670  20.283  0.00  0.00    +0.000 A 
ATOM     12  C   UNL     1      -0.637  10.926  20.587  0.00  0.00    +0.000 A 
ATOM     13  C   UNL     1      -0.719  11.301  21.915  0.00  0.00    +0.000 A 
ATOM     14  F   UNL     1      -1.157  12.521  22.246  0.00  0.00    +0.000 F 
ATOM     15  C   UNL     1      -0.333  10.395  22.889  0.00  0.00    +0.000 A 
ATOM     16  N   UNL     1       0.128   9.146  22.624  0.00  0.00    +0.000 NA
ATOM     17  H   UNL     1       0.916   6.946  21.832  0.00  0.00    +0.000 HD
ENDBRANCH   1   8
BRANCH   5  18
ATOM     18  C   UNL     1       1.505   2.581  20.663  0.00  0.00    +0.000 C 
ATOM     19  F   UNL     1       1.214   2.575  21.997  0.00  0.00    +0.000 F 
ATOM     20  F   UNL     1       0.302   2.504  20.026  0.00  0.00    +0.000 F 
ENDBRANCH   5  18
BRANCH   3  21
ATOM     21  O   UNL     1       5.457   4.494  18.577  0.00  0.00    +0.000 OA
BRANCH  21  22
ATOM     22  C   UNL     1       6.280   5.546  18.288  0.00  0.00    +0.000 A 
ATOM     23  C   UNL     1       7.389   5.936  19.013  0.00  0.00    +0.000 A 
ATOM     24  N   UNL     1       8.159   6.998  18.697  0.00  0.00    +0.000 NA
ATOM     25  C   UNL     1       7.810   7.660  17.583  0.00  0.00    +0.000 A 
ATOM     26  N   UNL     1       6.793   7.342  16.765  0.00  0.00    +0.000 NA
ATOM     27  C   UNL     1       6.053   6.276  17.140  0.00  0.00    +0.000 A 
ENDBRANCH  21  22
ENDBRANCH   3  21
TORSDOF 4
ENDMDL
MODEL 8
REMARK VINA RESULT:      -7.9      3.051      4.877
REMARK  Name = 
REMARK  4 active torsions:
REMARK  status: ('A' for Active; 'I' for Inactive)
REMARK    1  A    between atoms: C_2  and  C_11
REMARK    2  A    between atoms: C_13  and  O_14
REMARK    3  A    between atoms: O_14  and  C_15
REMARK    4  A    between atoms: C_22  and  C_23
REMARK                            x       y       z     vdW  Elec       q    Type
REMARK                         _______ _______ _______ _____ _____    ______ ____
ROOT
ATOM      1  C   UNL     1       3.405   7.018  17.827  0.00  0.00    +0.000 A 
ATOM      2  C   UNL     1       2.866   5.780  18.140  0.00  0.00    +0.000 A 
ATOM      3  C   UNL     1       3.676   4.658  18.008  0.00  0.00    +0.000 A 
ATOM      4  C   UNL     1       5.014   4.826  17.677  0.00  0.00    +0.000 A 
ATOM      5  C   UNL     1       5.493   6.110  17.402  0.00  0.00    +0.000 A 
ATOM      6  N   UNL     1       4.688   7.209  17.429  0.00  0.00    +0.000 NA
ENDROOT
BRANCH   1   8
ATOM      7  O   UNL     1       2.569   9.086  17.118  0.00  0.00    +0.000 OA
ATOM      8  C   UNL     1       2.537   8.216  17.982  0.00  0.00    +0.000 C 
ATOM      9  N   UNL     1       1.804   8.283  19.151  0.00  0.00    +0.000 N 
ATOM     10  C   UNL     1       1.009   9.387  19.465  0.00  0.00    +0.000 A 
ATOM     11  C   UNL     1       0.247  10.028  18.487  0.00  0.00    +0.000 A 
ATOM     12  C   UNL     1      -0.458  11.180  18.820  0.00  0.00    +0.000 A 
ATOM     13  C   UNL     1      -0.363  11.660  20.114  0.00  0.00    +0.000 A 
ATOM     14  F   UNL     1      -0.980  12.795  20.460  0.00  0.00    +0.000 F 
ATOM     15  C   UNL     1       0.387  10.948  21.036  0.00  0.00    +0.000 A 
ATOM     16  N   UNL     1       1.046   9.796  20.751  0.00  0.00    +0.000 NA
ATOM     17  H   UNL     1       2.120   7.729  19.936  0.00  0.00    +0.000 HD
ENDBRANCH   1   8
BRANCH   5  18
ATOM     18  C   UNL     1       6.972   6.294  17.128  0.00  0.00    +0.000 C 
ATOM     19  F   UNL     1       7.327   5.844  15.889  0.00  0.00    +0.000 F 
ATOM     20  F   UNL     1       7.353   7.603  17.164  0.00  0.00    +0.000 F 
ENDBRANCH   5  18
BRANCH   3  21
ATOM     21  O   UNL     1       3.260   3.369  18.267  0.00  0.00    +0.000 OA
BRANCH  21  22
ATOM     22  C   UNL     1       2.740   3.067  19.494  0.00  0.00    +0.000 A 
ATOM     23  C   UNL     1       3.461   2.722  20.621  0.00  0.00    +0.000 A 
ATOM     24  N   UNL     1       2.898   2.411  21.808  0.00  0.00    +0.000 NA
ATOM     25  C   UNL     1       1.558   2.492  21.856  0.00  0.00    +0.000 A 
ATOM     26  N   UNL     1       0.757   2.872  20.848  0.00  0.00    +0.000 NA
ATOM     27  C   UNL     1       1.378   3.161  19.683  0.00  0.00    +0.000 A 
ENDBRANCH  21  22
ENDBRANCH   3  21
TORSDOF 4
ENDMDL
MODEL 9
REMARK VINA RESULT:      -7.9      1.874      2.427
REMARK  Name = 
REMARK  4 active torsions:
REMARK  status: ('A' for Active; 'I' for Inactive)
REMARK    1  A    between atoms: C_2  and  C_11
REMARK    2  A    between atoms: C_13  and  O_14
REMARK    3  A    between atoms: O_14  and  C_15
REMARK    4  A    between atoms: C_22  and  C_23
REMARK                            x       y       z     vdW  Elec       q    Type
REMARK                         _______ _______ _______ _____ _____    ______ ____
ROOT
ATOM      1  C   UNL     1       1.862   6.946  20.024  0.00  0.00    +0.000 A 
ATOM      2  C   UNL     1       2.640   6.860  18.879  0.00  0.00    +0.000 A 
ATOM      3  C   UNL     1       3.062   5.603  18.465  0.00  0.00    +0.000 A 
ATOM      4  C   UNL     1       2.605   4.479  19.141  0.00  0.00    +0.000 A 
ATOM      5  C   UNL     1       1.800   4.643  20.271  0.00  0.00    +0.000 A 
ATOM      6  N   UNL     1       1.459   5.873  20.750  0.00  0.00    +0.000 NA
ENDROOT
BRANCH   1   8
ATOM      7  O   UNL     1       1.220   8.502  21.650  0.00  0.00    +0.000 OA
ATOM      8  C   UNL     1       1.402   8.293  20.456  0.00  0.00    +0.000 C 
ATOM      9  N   UNL     1       1.144   9.197  19.443  0.00  0.00    +0.000 N 
ATOM     10  C   UNL     1       0.631  10.470  19.698  0.00  0.00    +0.000 A 
ATOM     11  C   UNL     1       1.074  11.220  20.788  0.00  0.00    +0.000 A 
ATOM     12  C   UNL     1       0.472  12.443  21.063  0.00  0.00    +0.000 A 
ATOM     13  C   UNL     1      -0.562  12.867  20.247  0.00  0.00    +0.000 A 
ATOM     14  F   UNL     1      -1.203  14.011  20.510  0.00  0.00    +0.000 F 
ATOM     15  C   UNL     1      -0.921  12.081  19.164  0.00  0.00    +0.000 A 
ATOM     16  N   UNL     1      -0.319  10.906  18.846  0.00  0.00    +0.000 NA
ATOM     17  H   UNL     1       0.968   8.827  18.518  0.00  0.00    +0.000 HD
ENDBRANCH   1   8
BRANCH   5  18
ATOM     18  C   UNL     1       1.234   3.413  20.950  0.00  0.00    +0.000 C 
ATOM     19  F   UNL     1       1.328   2.301  20.164  0.00  0.00    +0.000 F 
ATOM     20  F   UNL     1       1.890   3.102  22.104  0.00  0.00    +0.000 F 
ENDBRANCH   5  18
BRANCH   3  21
ATOM     21  O   UNL     1       3.855   5.380  17.358  0.00  0.00    +0.000 OA
BRANCH  21  22
ATOM     22  C   UNL     1       5.186   5.120  17.529  0.00  0.00    +0.000 A 
ATOM     23  C   UNL     1       5.845   5.012  18.737  0.00  0.00    +0.000 A 
ATOM     24  N   UNL     1       7.169   4.775  18.854  0.00  0.00    +0.000 NA
ATOM     25  C   UNL     1       7.833   4.604  17.699  0.00  0.00    +0.000 A 
ATOM     26  N   UNL     1       7.293   4.627  16.470  0.00  0.00    +0.000 NA
ATOM     27  C   UNL     1       5.967   4.879  16.419  0.00  0.00    +0.000 A 
ENDBRANCH  21  22
ENDBRANCH   3  21
TORSDOF 4
ENDMDL
