MODEL 1
REMARK VINA RESULT:      -7.1      0.000      0.000
REMARK  Name = 
REMARK  10 active torsions:
REMARK  status: ('A' for Active; 'I' for Inactive)
REMARK    1  A    between atoms: C_1  and  O_2
REMARK    2  A    between atoms: O_2  and  C_3
REMARK    3  A    between atoms: C_5  and  N_6
REMARK    4  A    between atoms: C_10  and  C_11
REMARK    5  A    between atoms: N_13  and  C_14
REMARK    6  A    between atoms: N_17  and  C_18
REMARK    7  A    between atoms: C_18  and  C_19
REMARK    8  A    between atoms: N_22  and  C_23
REMARK    9  A    between atoms: C_23  and  C_24
REMARK   10  A    between atoms: C_24  and  N_25
REMARK                            x       y       z     vdW  Elec       q    Type
REMARK                         _______ _______ _______ _____ _____    ______ ____
ROOT
ATOM      1  C   UNL     1       0.849  11.144  18.962  0.00  0.00    +0.000 C 
ATOM      2  C   UNL     1       1.738  10.408  17.937  0.00  0.00    +0.000 C 
ATOM      3  C   UNL     1       1.821   8.872  18.118  0.00  0.00    +0.000 C 
ATOM      4  N   UNL     1       1.975   8.485  19.538  0.00  0.00    +0.000 NA
ATOM      5  C   UNL     1       0.836   9.033  20.277  0.00  0.00    +0.000 C 
ATOM      6  C   UNL     1       1.065  10.536  20.346  0.00  0.00    +0.000 C 
ENDROOT
BRANCH   1   9
ATOM      7  C   UNL     1      -1.479  12.103  18.963  0.00  0.00    +0.000 C 
ATOM      8  O   UNL     1      -1.144  13.157  19.515  0.00  0.00    +0.000 OA
ATOM      9  N   UNL     1      -0.586  11.116  18.657  0.00  0.00    +0.000 N 
ATOM     10  H   UNL     1      -0.997  10.211  18.441  0.00  0.00    +0.000 HD
BRANCH   7  17
ATOM     11  C   UNL     1      -3.341  11.403  17.302  0.00  0.00    +0.000 A 
ATOM     12  C   UNL     1      -4.715  11.336  17.015  0.00  0.00    +0.000 A 
ATOM     13  C   UNL     1      -5.681  11.703  17.958  0.00  0.00    +0.000 A 
ATOM     14  C   UNL     1      -5.246  12.175  19.203  0.00  0.00    +0.000 A 
ATOM     15 CL   UNL     1      -6.388  12.669  20.404  0.00  0.00    +0.000 Cl
ATOM     16  C   UNL     1      -3.885  12.244  19.511  0.00  0.00    +0.000 A 
ATOM     17  C   UNL     1      -2.915  11.877  18.565  0.00  0.00    +0.000 A 
BRANCH  13  18
ATOM     18  N   UNL     1      -7.020  11.816  17.540  0.00  0.00    +0.000 N 
ATOM     19  H   UNL     1      -7.523  10.941  17.448  0.00  0.00    +0.000 HD
ATOM     20  H   UNL     1      -7.543  12.527  18.057  0.00  0.00    +0.000 HD
ENDBRANCH  13  18
BRANCH  11  22
ATOM     21  C   UNL     1      -2.864  10.465  15.164  0.00  0.00    +0.000 C 
ATOM     22  O   UNL     1      -2.386  10.997  16.400  0.00  0.00    +0.000 OA
ENDBRANCH  11  22
ENDBRANCH   7  17
ENDBRANCH   1   9
BRANCH   4  23
ATOM     23  C   UNL     1       2.182   7.037  19.741  0.00  0.00    +0.000 C 
BRANCH  23  24
ATOM     24  C   UNL     1       2.737   6.272  18.496  0.00  0.00    +0.000 C 
ATOM     25  C   UNL     1       1.789   5.232  17.883  0.00  0.00    +0.000 C 
ATOM     26  C   UNL     1       1.783   3.870  18.588  0.00  0.00    +0.000 C 
ATOM     27  N   UNL     1       3.106   3.328  18.939  0.00  0.00    +0.000 NA
ATOM     28  C   UNL     1       3.971   4.332  19.578  0.00  0.00    +0.000 C 
ATOM     29  C   UNL     1       4.090   5.607  18.753  0.00  0.00    +0.000 C 
BRANCH  27  30
ATOM     30  C   UNL     1       2.971   2.167  19.857  0.00  0.00    +0.000 C 
BRANCH  30  31
ATOM     31  C   UNL     1       2.975   2.514  21.362  0.00  0.00    +0.000 C 
BRANCH  31  32
ATOM     32  N   UNL     1       1.616   2.532  21.914  0.00  0.00    +0.000 NA
ATOM     33  H   UNL     1       1.337   3.493  22.104  0.00  0.00    +0.000 HD
ATOM     34  H   UNL     1       1.618   2.053  22.814  0.00  0.00    +0.000 HD
ENDBRANCH  31  32
ENDBRANCH  30  31
ENDBRANCH  27  30
ENDBRANCH  23  24
ENDBRANCH   4  23
TORSDOF 9
ENDMDL
MODEL 2
REMARK VINA RESULT:      -7.1      1.024      1.024
REMARK  Name = 
REMARK  10 active torsions:
REMARK  status: ('A' for Active; 'I' for Inactive)
REMARK    1  A    between atoms: C_1  and  O_2
REMARK    2  A    between atoms: O_2  and  C_3
REMARK    3  A    between atoms: C_5  and  N_6
REMARK    4  A    between atoms: C_10  and  C_11
REMARK    5  A    between atoms: N_13  and  C_14
REMARK    6  A    between atoms: N_17  and  C_18
REMARK    7  A    between atoms: C_18  and  C_19
REMARK    8  A    between atoms: N_22  and  C_23
REMARK    9  A    between atoms: C_23  and  C_24
REMARK   10  A    between atoms: C_24  and  N_25
REMARK                            x       y       z     vdW  Elec       q    Type
REMARK                         _______ _______ _______ _____ _____    ______ ____
ROOT
ATOM      1  C   UNL     1       0.803  10.847  19.668  0.00  0.00    +0.000 C 
ATOM      2  C   UNL     1       1.630  10.311  18.478  0.00  0.00    +0.000 C 
ATOM      3  C   UNL     1       1.746   8.769  18.399  0.00  0.00    +0.000 C 
ATOM      4  N   UNL     1       2.004   8.159  19.722  0.00  0.00    +0.000 NA
ATOM      5  C   UNL     1       0.912   8.550  20.615  0.00  0.00    +0.000 C 
ATOM      6  C   UNL     1       1.123  10.027  20.915  0.00  0.00    +0.000 C 
ENDROOT
BRANCH   1   9
ATOM      7  C   UNL     1      -1.360  11.789  18.789  0.00  0.00    +0.000 C 
ATOM      8  O   UNL     1      -0.825  12.767  18.258  0.00  0.00    +0.000 OA
ATOM      9  N   UNL     1      -0.648  10.833  19.457  0.00  0.00    +0.000 N 
ATOM     10  H   UNL     1      -1.199  10.223  20.057  0.00  0.00    +0.000 HD
BRANCH   7  17
ATOM     11  C   UNL     1      -3.499  10.822  17.692  0.00  0.00    +0.000 A 
ATOM     12  C   UNL     1      -4.904  10.801  17.640  0.00  0.00    +0.000 A 
ATOM     13  C   UNL     1      -5.684  11.501  18.567  0.00  0.00    +0.000 A 
ATOM     14  C   UNL     1      -5.029  12.261  19.545  0.00  0.00    +0.000 A 
ATOM     15 CL   UNL     1      -5.934  13.170  20.704  0.00  0.00    +0.000 Cl
ATOM     16  C   UNL     1      -3.634  12.291  19.618  0.00  0.00    +0.000 A 
ATOM     17  C   UNL     1      -2.850  11.590  18.688  0.00  0.00    +0.000 A 
BRANCH  13  18
ATOM     18  N   UNL     1      -7.068  11.612  18.334  0.00  0.00    +0.000 N 
ATOM     19  H   UNL     1      -7.511  12.432  18.731  0.00  0.00    +0.000 HD
ATOM     20  H   UNL     1      -7.324  11.450  17.358  0.00  0.00    +0.000 HD
ENDBRANCH  13  18
BRANCH  11  22
ATOM     21  C   UNL     1      -2.706  10.549  15.462  0.00  0.00    +0.000 C 
ATOM     22  O   UNL     1      -2.725  10.097  16.817  0.00  0.00    +0.000 OA
ENDBRANCH  11  22
ENDBRANCH   7  17
ENDBRANCH   1   9
BRANCH   4  23
ATOM     23  C   UNL     1       2.244   6.703  19.670  0.00  0.00    +0.000 C 
BRANCH  23  24
ATOM     24  C   UNL     1       2.512   6.132  18.239  0.00  0.00    +0.000 C 
ATOM     25  C   UNL     1       1.622   4.954  17.820  0.00  0.00    +0.000 C 
ATOM     26  C   UNL     1       2.076   3.586  18.339  0.00  0.00    +0.000 C 
ATOM     27  N   UNL     1       3.518   3.306  18.223  0.00  0.00    +0.000 NA
ATOM     28  C   UNL     1       4.345   4.430  18.686  0.00  0.00    +0.000 C 
ATOM     29  C   UNL     1       3.974   5.744  18.011  0.00  0.00    +0.000 C 
BRANCH  27  30
ATOM     30  C   UNL     1       3.883   2.096  19.004  0.00  0.00    +0.000 C 
BRANCH  30  31
ATOM     31  C   UNL     1       4.081   2.325  20.519  0.00  0.00    +0.000 C 
BRANCH  31  32
ATOM     32  N   UNL     1       5.247   1.596  21.026  0.00  0.00    +0.000 NA
ATOM     33  H   UNL     1       5.078   0.593  20.963  0.00  0.00    +0.000 HD
ATOM     34  H   UNL     1       5.362   1.803  22.017  0.00  0.00    +0.000 HD
ENDBRANCH  31  32
ENDBRANCH  30  31
ENDBRANCH  27  30
ENDBRANCH  23  24
ENDBRANCH   4  23
TORSDOF 9
ENDMDL
MODEL 3
REMARK VINA RESULT:      -6.8      1.574      2.154
REMARK  Name = 
REMARK  10 active torsions:
REMARK  status: ('A' for Active; 'I' for Inactive)
REMARK    1  A    between atoms: C_1  and  O_2
REMARK    2  A    between atoms: O_2  and  C_3
REMARK    3  A    between atoms: C_5  and  N_6
REMARK    4  A    between atoms: C_10  and  C_11
REMARK    5  A    between atoms: N_13  and  C_14
REMARK    6  A    between atoms: N_17  and  C_18
REMARK    7  A    between atoms: C_18  and  C_19
REMARK    8  A    between atoms: N_22  and  C_23
REMARK    9  A    between atoms: C_23  and  C_24
REMARK   10  A    between atoms: C_24  and  N_25
REMARK                            x       y       z     vdW  Elec       q    Type
REMARK                         _______ _______ _______ _____ _____    ______ ____
ROOT
ATOM      1  C   UNL     1       0.734  11.170  19.357  0.00  0.00    +0.000 C 
ATOM      2  C   UNL     1       1.682  10.658  18.250  0.00  0.00    +0.000 C 
ATOM      3  C   UNL     1       1.840   9.119  18.179  0.00  0.00    +0.000 C 
ATOM      4  N   UNL     1       1.985   8.510  19.520  0.00  0.00    +0.000 NA
ATOM      5  C   UNL     1       0.804   8.872  20.305  0.00  0.00    +0.000 C 
ATOM      6  C   UNL     1       0.952  10.352  20.627  0.00  0.00    +0.000 C 
ENDROOT
BRANCH   1   9
ATOM      7  C   UNL     1      -1.554  12.182  19.072  0.00  0.00    +0.000 C 
ATOM      8  O   UNL     1      -1.195  13.316  19.407  0.00  0.00    +0.000 OA
ATOM      9  N   UNL     1      -0.690  11.125  19.009  0.00  0.00    +0.000 N 
ATOM     10  H   UNL     1      -1.130  10.209  18.969  0.00  0.00    +0.000 HD
BRANCH   7  17
ATOM     11  C   UNL     1      -3.400  11.439  17.412  0.00  0.00    +0.000 A 
ATOM     12  C   UNL     1      -4.773  11.341  17.126  0.00  0.00    +0.000 A 
ATOM     13  C   UNL     1      -5.746  11.688  18.068  0.00  0.00    +0.000 A 
ATOM     14  C   UNL     1      -5.321  12.171  19.313  0.00  0.00    +0.000 A 
ATOM     15 CL   UNL     1      -6.474  12.640  20.514  0.00  0.00    +0.000 Cl
ATOM     16  C   UNL     1      -3.963  12.270  19.621  0.00  0.00    +0.000 A 
ATOM     17  C   UNL     1      -2.984  11.924  18.675  0.00  0.00    +0.000 A 
BRANCH  13  18
ATOM     18  N   UNL     1      -7.088  11.771  17.651  0.00  0.00    +0.000 N 
ATOM     19  H   UNL     1      -7.545  10.883  17.474  0.00  0.00    +0.000 HD
ATOM     20  H   UNL     1      -7.648  12.403  18.228  0.00  0.00    +0.000 HD
ENDBRANCH  13  18
BRANCH  11  22
ATOM     21  C   UNL     1      -2.749   9.926  15.690  0.00  0.00    +0.000 C 
ATOM     22  O   UNL     1      -2.437  11.054  16.510  0.00  0.00    +0.000 OA
ENDBRANCH  11  22
ENDBRANCH   7  17
ENDBRANCH   1   9
BRANCH   4  23
ATOM     23  C   UNL     1       2.262   7.060  19.487  0.00  0.00    +0.000 C 
BRANCH  23  24
ATOM     24  C   UNL     1       2.559   6.479  18.066  0.00  0.00    +0.000 C 
ATOM     25  C   UNL     1       2.616   4.948  17.977  0.00  0.00    +0.000 C 
ATOM     26  C   UNL     1       3.953   4.326  18.397  0.00  0.00    +0.000 C 
ATOM     27  N   UNL     1       5.158   4.993  17.876  0.00  0.00    +0.000 NA
ATOM     28  C   UNL     1       5.100   6.454  18.029  0.00  0.00    +0.000 C 
ATOM     29  C   UNL     1       3.830   7.053  17.437  0.00  0.00    +0.000 C 
BRANCH  27  30
ATOM     30  C   UNL     1       6.375   4.493  18.567  0.00  0.00    +0.000 C 
BRANCH  30  31
ATOM     31  C   UNL     1       7.469   5.552  18.824  0.00  0.00    +0.000 C 
BRANCH  31  32
ATOM     32  N   UNL     1       8.002   5.457  20.187  0.00  0.00    +0.000 NA
ATOM     33  H   UNL     1       8.740   4.755  20.217  0.00  0.00    +0.000 HD
ATOM     34  H   UNL     1       7.266   5.123  20.808  0.00  0.00    +0.000 HD
ENDBRANCH  31  32
ENDBRANCH  30  31
ENDBRANCH  27  30
ENDBRANCH  23  24
ENDBRANCH   4  23
TORSDOF 9
ENDMDL
MODEL 4
REMARK VINA RESULT:      -6.6      1.522      2.382
REMARK  Name = 
REMARK  10 active torsions:
REMARK  status: ('A' for Active; 'I' for Inactive)
REMARK    1  A    between atoms: C_1  and  O_2
REMARK    2  A    between atoms: O_2  and  C_3
REMARK    3  A    between atoms: C_5  and  N_6
REMARK    4  A    between atoms: C_10  and  C_11
REMARK    5  A    between atoms: N_13  and  C_14
REMARK    6  A    between atoms: N_17  and  C_18
REMARK    7  A    between atoms: C_18  and  C_19
REMARK    8  A    between atoms: N_22  and  C_23
REMARK    9  A    between atoms: C_23  and  C_24
REMARK   10  A    between atoms: C_24  and  N_25
REMARK                            x       y       z     vdW  Elec       q    Type
REMARK                         _______ _______ _______ _____ _____    ______ ____
ROOT
ATOM      1  C   UNL     1       0.572  10.936  19.888  0.00  0.00    +0.000 C 
ATOM      2  C   UNL     1       1.607  11.140  18.760  0.00  0.00    +0.000 C 
ATOM      3  C   UNL     1       1.943   9.873  17.936  0.00  0.00    +0.000 C 
ATOM      4  N   UNL     1       2.113   8.678  18.793  0.00  0.00    +0.000 NA
ATOM      5  C   UNL     1       0.873   8.491  19.549  0.00  0.00    +0.000 C 
ATOM      6  C   UNL     1       0.841   9.605  20.585  0.00  0.00    +0.000 C 
ENDROOT
BRANCH   1   9
ATOM      7  C   UNL     1      -1.564  12.084  19.213  0.00  0.00    +0.000 C 
ATOM      8  O   UNL     1      -1.098  13.222  19.330  0.00  0.00    +0.000 OA
ATOM      9  N   UNL     1      -0.826  10.958  19.444  0.00  0.00    +0.000 N 
ATOM     10  H   UNL     1      -1.365  10.104  19.562  0.00  0.00    +0.000 HD
BRANCH   7  17
ATOM     11  C   UNL     1      -3.383  11.458  17.476  0.00  0.00    +0.000 A 
ATOM     12  C   UNL     1      -4.749  11.419  17.145  0.00  0.00    +0.000 A 
ATOM     13  C   UNL     1      -5.738  11.772  18.069  0.00  0.00    +0.000 A 
ATOM     14  C   UNL     1      -5.336  12.202  19.340  0.00  0.00    +0.000 A 
ATOM     15 CL   UNL     1      -6.508  12.677  20.519  0.00  0.00    +0.000 Cl
ATOM     16  C   UNL     1      -3.985  12.243  19.692  0.00  0.00    +0.000 A 
ATOM     17  C   UNL     1      -2.990  11.890  18.765  0.00  0.00    +0.000 A 
BRANCH  13  18
ATOM     18  N   UNL     1      -7.063  11.916  17.614  0.00  0.00    +0.000 N 
ATOM     19  H   UNL     1      -7.654  11.101  17.729  0.00  0.00    +0.000 HD
ATOM     20  H   UNL     1      -7.504  12.781  17.934  0.00  0.00    +0.000 HD
ENDBRANCH  13  18
BRANCH  11  22
ATOM     21  C   UNL     1      -2.614   9.818  15.928  0.00  0.00    +0.000 C 
ATOM     22  O   UNL     1      -2.406  11.065  16.592  0.00  0.00    +0.000 OA
ENDBRANCH  11  22
ENDBRANCH   7  17
ENDBRANCH   1   9
BRANCH   4  23
ATOM     23  C   UNL     1       2.554   7.476  18.057  0.00  0.00    +0.000 C 
BRANCH  23  24
ATOM     24  C   UNL     1       2.478   6.143  18.871  0.00  0.00    +0.000 C 
ATOM     25  C   UNL     1       3.730   5.795  19.687  0.00  0.00    +0.000 C 
ATOM     26  C   UNL     1       4.854   5.123  18.890  0.00  0.00    +0.000 C 
ATOM     27  N   UNL     1       4.432   4.052  17.971  0.00  0.00    +0.000 NA
ATOM     28  C   UNL     1       3.266   4.437  17.160  0.00  0.00    +0.000 C 
ATOM     29  C   UNL     1       2.104   4.935  18.010  0.00  0.00    +0.000 C 
BRANCH  27  30
ATOM     30  C   UNL     1       5.541   3.678  17.056  0.00  0.00    +0.000 C 
BRANCH  30  31
ATOM     31  C   UNL     1       6.649   4.742  16.894  0.00  0.00    +0.000 C 
BRANCH  31  32
ATOM     32  N   UNL     1       7.971   4.198  17.223  0.00  0.00    +0.000 NA
ATOM     33  H   UNL     1       8.668   4.939  17.167  0.00  0.00    +0.000 HD
ATOM     34  H   UNL     1       8.230   3.509  16.518  0.00  0.00    +0.000 HD
ENDBRANCH  31  32
ENDBRANCH  30  31
ENDBRANCH  27  30
ENDBRANCH  23  24
ENDBRANCH   4  23
TORSDOF 9
ENDMDL
MODEL 5
REMARK VINA RESULT:      -6.6      1.144      1.310
REMARK  Name = 
REMARK  10 active torsions:
REMARK  status: ('A' for Active; 'I' for Inactive)
REMARK    1  A    between atoms: C_1  and  O_2
REMARK    2  A    between atoms: O_2  and  C_3
REMARK    3  A    between atoms: C_5  and  N_6
REMARK    4  A    between atoms: C_10  and  C_11
REMARK    5  A    between atoms: N_13  and  C_14
REMARK    6  A    between atoms: N_17  and  C_18
REMARK    7  A    between atoms: C_18  and  C_19
REMARK    8  A    between atoms: N_22  and  C_23
REMARK    9  A    between atoms: C_23  and  C_24
REMARK   10  A    between atoms: C_24  and  N_25
REMARK                            x       y       z     vdW  Elec       q    Type
REMARK                         _______ _______ _______ _____ _____    ______ ____
ROOT
ATOM      1  C   UNL     1       0.754  10.825  19.397  0.00  0.00    +0.000 C 
ATOM      2  C   UNL     1       1.714  10.687  18.194  0.00  0.00    +0.000 C 
ATOM      3  C   UNL     1       1.890   9.247  17.654  0.00  0.00    +0.000 C 
ATOM      4  N   UNL     1       2.034   8.255  18.743  0.00  0.00    +0.000 NA
ATOM      5  C   UNL     1       0.844   8.348  19.591  0.00  0.00    +0.000 C 
ATOM      6  C   UNL     1       0.974   9.658  20.355  0.00  0.00    +0.000 C 
ENDROOT
BRANCH   1   9
ATOM      7  C   UNL     1      -1.477  11.969  19.171  0.00  0.00    +0.000 C 
ATOM      8  O   UNL     1      -1.065  13.057  19.587  0.00  0.00    +0.000 OA
ATOM      9  N   UNL     1      -0.668  10.877  19.039  0.00  0.00    +0.000 N 
ATOM     10  H   UNL     1      -1.152   9.989  18.932  0.00  0.00    +0.000 HD
BRANCH   7  17
ATOM     11  C   UNL     1      -3.344  11.248  17.524  0.00  0.00    +0.000 A 
ATOM     12  C   UNL     1      -4.711  11.256  17.198  0.00  0.00    +0.000 A 
ATOM     13  C   UNL     1      -5.670  11.786  18.069  0.00  0.00    +0.000 A 
ATOM     14  C   UNL     1      -5.232  12.345  19.276  0.00  0.00    +0.000 A 
ATOM     15 CL   UNL     1      -6.364  13.039  20.385  0.00  0.00    +0.000 Cl
ATOM     16  C   UNL     1      -3.879  12.342  19.622  0.00  0.00    +0.000 A 
ATOM     17  C   UNL     1      -2.915  11.812  18.749  0.00  0.00    +0.000 A 
BRANCH  13  18
ATOM     18  N   UNL     1      -6.985  11.956  17.597  0.00  0.00    +0.000 N 
ATOM     19  H   UNL     1      -7.117  12.715  16.938  0.00  0.00    +0.000 HD
ATOM     20  H   UNL     1      -7.419  11.081  17.294  0.00  0.00    +0.000 HD
ENDBRANCH  13  18
BRANCH  11  22
ATOM     21  C   UNL     1      -2.772  10.520  15.328  0.00  0.00    +0.000 C 
ATOM     22  O   UNL     1      -2.400  10.685  16.697  0.00  0.00    +0.000 OA
ENDBRANCH  11  22
ENDBRANCH   7  17
ENDBRANCH   1   9
BRANCH   4  23
ATOM     23  C   UNL     1       2.327   6.888  18.268  0.00  0.00    +0.000 C 
BRANCH  23  24
ATOM     24  C   UNL     1       3.831   6.470  18.358  0.00  0.00    +0.000 C 
ATOM     25  C   UNL     1       4.400   5.777  17.112  0.00  0.00    +0.000 C 
ATOM     26  C   UNL     1       4.096   4.278  17.013  0.00  0.00    +0.000 C 
ATOM     27  N   UNL     1       4.280   3.506  18.253  0.00  0.00    +0.000 NA
ATOM     28  C   UNL     1       3.674   4.166  19.419  0.00  0.00    +0.000 C 
ATOM     29  C   UNL     1       4.142   5.607  19.582  0.00  0.00    +0.000 C 
BRANCH  27  30
ATOM     30  C   UNL     1       3.691   2.148  18.119  0.00  0.00    +0.000 C 
BRANCH  30  31
ATOM     31  C   UNL     1       2.464   1.871  19.015  0.00  0.00    +0.000 C 
BRANCH  31  32
ATOM     32  N   UNL     1       1.218   1.882  18.241  0.00  0.00    +0.000 NA
ATOM     33  H   UNL     1       0.470   2.281  18.805  0.00  0.00    +0.000 HD
ATOM     34  H   UNL     1       0.944   0.921  18.042  0.00  0.00    +0.000 HD
ENDBRANCH  31  32
ENDBRANCH  30  31
ENDBRANCH  27  30
ENDBRANCH  23  24
ENDBRANCH   4  23
TORSDOF 9
ENDMDL
MODEL 6
REMARK VINA RESULT:      -6.6      2.255      4.060
REMARK  Name = 
REMARK  10 active torsions:
REMARK  status: ('A' for Active; 'I' for Inactive)
REMARK    1  A    between atoms: C_1  and  O_2
REMARK    2  A    between atoms: O_2  and  C_3
REMARK    3  A    between atoms: C_5  and  N_6
REMARK    4  A    between atoms: C_10  and  C_11
REMARK    5  A    between atoms: N_13  and  C_14
REMARK    6  A    between atoms: N_17  and  C_18
REMARK    7  A    between atoms: C_18  and  C_19
REMARK    8  A    between atoms: N_22  and  C_23
REMARK    9  A    between atoms: C_23  and  C_24
REMARK   10  A    between atoms: C_24  and  N_25
REMARK                            x       y       z     vdW  Elec       q    Type
REMARK                         _______ _______ _______ _____ _____    ______ ____
ROOT
ATOM      1  C   UNL     1       2.300   7.905  19.597  0.00  0.00    +0.000 C 
ATOM      2  C   UNL     1       2.633   6.964  18.418  0.00  0.00    +0.000 C 
ATOM      3  C   UNL     1       1.829   5.640  18.384  0.00  0.00    +0.000 C 
ATOM      4  N   UNL     1       1.715   5.021  19.724  0.00  0.00    +0.000 NA
ATOM      5  C   UNL     1       1.074   5.993  20.612  0.00  0.00    +0.000 C 
ATOM      6  C   UNL     1       2.112   7.077  20.866  0.00  0.00    +0.000 C 
ENDROOT
BRANCH   1   9
ATOM      7  C   UNL     1       0.941   9.654  18.402  0.00  0.00    +0.000 C 
ATOM      8  O   UNL     1       1.795   9.856  17.533  0.00  0.00    +0.000 OA
ATOM      9  N   UNL     1       1.106   8.734  19.397  0.00  0.00    +0.000 N 
ATOM     10  H   UNL     1       0.468   8.827  20.184  0.00  0.00    +0.000 HD
BRANCH   7  17
ATOM     11  C   UNL     1      -0.793  11.321  19.368  0.00  0.00    +0.000 A 
ATOM     12  C   UNL     1      -2.079  11.881  19.284  0.00  0.00    +0.000 A 
ATOM     13  C   UNL     1      -2.944  11.580  18.227  0.00  0.00    +0.000 A 
ATOM     14  C   UNL     1      -2.508  10.672  17.252  0.00  0.00    +0.000 A 
ATOM     15 CL   UNL     1      -3.538  10.239  15.932  0.00  0.00    +0.000 Cl
ATOM     16  C   UNL     1      -1.232  10.109  17.313  0.00  0.00    +0.000 A 
ATOM     17  C   UNL     1      -0.363  10.409  18.375  0.00  0.00    +0.000 A 
BRANCH  13  18
ATOM     18  N   UNL     1      -4.284  12.002  18.312  0.00  0.00    +0.000 N 
ATOM     19  H   UNL     1      -4.975  11.260  18.302  0.00  0.00    +0.000 HD
ATOM     20  H   UNL     1      -4.442  12.687  19.053  0.00  0.00    +0.000 HD
ENDBRANCH  13  18
BRANCH  11  22
ATOM     21  C   UNL     1      -0.430  11.584  21.708  0.00  0.00    +0.000 C 
ATOM     22  O   UNL     1       0.082  11.649  20.377  0.00  0.00    +0.000 OA
ENDBRANCH  11  22
ENDBRANCH   7  17
ENDBRANCH   1   9
BRANCH   4  23
ATOM     23  C   UNL     1       1.062   3.697  19.714  0.00  0.00    +0.000 C 
BRANCH  23  24
ATOM     24  C   UNL     1       2.041   2.483  19.600  0.00  0.00    +0.000 C 
ATOM     25  C   UNL     1       3.428   2.692  20.225  0.00  0.00    +0.000 C 
ATOM     26  C   UNL     1       4.426   3.448  19.340  0.00  0.00    +0.000 C 
ATOM     27  N   UNL     1       4.472   3.030  17.929  0.00  0.00    +0.000 NA
ATOM     28  C   UNL     1       3.130   2.895  17.341  0.00  0.00    +0.000 C 
ATOM     29  C   UNL     1       2.222   1.990  18.163  0.00  0.00    +0.000 C 
BRANCH  27  30
ATOM     30  C   UNL     1       5.248   4.004  17.118  0.00  0.00    +0.000 C 
BRANCH  30  31
ATOM     31  C   UNL     1       6.247   4.874  17.911  0.00  0.00    +0.000 C 
BRANCH  31  32
ATOM     32  N   UNL     1       7.602   4.316  17.865  0.00  0.00    +0.000 NA
ATOM     33  H   UNL     1       7.891   4.198  16.895  0.00  0.00    +0.000 HD
ATOM     34  H   UNL     1       7.590   3.382  18.274  0.00  0.00    +0.000 HD
ENDBRANCH  31  32
ENDBRANCH  30  31
ENDBRANCH  27  30
ENDBRANCH  23  24
ENDBRANCH   4  23
TORSDOF 9
ENDMDL
MODEL 7
REMARK VINA RESULT:      -6.6      1.946      2.900
REMARK  Name = 
REMARK  10 active torsions:
REMARK  status: ('A' for Active; 'I' for Inactive)
REMARK    1  A    between atoms: C_1  and  O_2
REMARK    2  A    between atoms: O_2  and  C_3
REMARK    3  A    between atoms: C_5  and  N_6
REMARK    4  A    between atoms: C_10  and  C_11
REMARK    5  A    between atoms: N_13  and  C_14
REMARK    6  A    between atoms: N_17  and  C_18
REMARK    7  A    between atoms: C_18  and  C_19
REMARK    8  A    between atoms: N_22  and  C_23
REMARK    9  A    between atoms: C_23  and  C_24
REMARK   10  A    between atoms: C_24  and  N_25
REMARK                            x       y       z     vdW  Elec       q    Type
REMARK                         _______ _______ _______ _____ _____    ______ ____
ROOT
ATOM      1  C   UNL     1       1.190  10.345  19.005  0.00  0.00    +0.000 C 
ATOM      2  C   UNL     1       2.007   9.714  17.856  0.00  0.00    +0.000 C 
ATOM      3  C   UNL     1       2.011   8.166  17.822  0.00  0.00    +0.000 C 
ATOM      4  N   UNL     1       2.187   7.579  19.169  0.00  0.00    +0.000 NA
ATOM      5  C   UNL     1       1.102   8.075  20.018  0.00  0.00    +0.000 C 
ATOM      6  C   UNL     1       1.414   9.541  20.283  0.00  0.00    +0.000 C 
ENDROOT
BRANCH   1   9
ATOM      7  C   UNL     1      -0.942  11.581  18.490  0.00  0.00    +0.000 C 
ATOM      8  O   UNL     1      -0.391  12.684  18.407  0.00  0.00    +0.000 OA
ATOM      9  N   UNL     1      -0.252  10.431  18.752  0.00  0.00    +0.000 N 
ATOM     10  H   UNL     1      -0.823   9.641  19.042  0.00  0.00    +0.000 HD
BRANCH   7  17
ATOM     11  C   UNL     1      -3.025  10.901  17.106  0.00  0.00    +0.000 A 
ATOM     12  C   UNL     1      -4.423  10.938  16.965  0.00  0.00    +0.000 A 
ATOM     13  C   UNL     1      -5.247  11.486  17.954  0.00  0.00    +0.000 A 
ATOM     14  C   UNL     1      -4.641  12.034  19.093  0.00  0.00    +0.000 A 
ATOM     15 CL   UNL     1      -5.601  12.749  20.340  0.00  0.00    +0.000 Cl
ATOM     16  C   UNL     1      -3.254  12.003  19.255  0.00  0.00    +0.000 A 
ATOM     17  C   UNL     1      -2.426  11.454  18.263  0.00  0.00    +0.000 A 
BRANCH  13  18
ATOM     18  N   UNL     1      -6.609  11.684  17.662  0.00  0.00    +0.000 N 
ATOM     19  H   UNL     1      -7.249  11.038  18.109  0.00  0.00    +0.000 HD
ATOM     20  H   UNL     1      -6.899  12.660  17.748  0.00  0.00    +0.000 HD
ENDBRANCH  13  18
BRANCH  11  22
ATOM     21  C   UNL     1      -2.777  10.132  14.864  0.00  0.00    +0.000 C 
ATOM     22  O   UNL     1      -2.211  10.320  16.162  0.00  0.00    +0.000 OA
ENDBRANCH  11  22
ENDBRANCH   7  17
ENDBRANCH   1   9
BRANCH   4  23
ATOM     23  C   UNL     1       2.319   6.108  19.164  0.00  0.00    +0.000 C 
BRANCH  23  24
ATOM     24  C   UNL     1       3.765   5.578  19.438  0.00  0.00    +0.000 C 
ATOM     25  C   UNL     1       4.900   6.404  18.818  0.00  0.00    +0.000 C 
ATOM     26  C   UNL     1       5.182   6.105  17.341  0.00  0.00    +0.000 C 
ATOM     27  N   UNL     1       5.222   4.679  16.975  0.00  0.00    +0.000 NA
ATOM     28  C   UNL     1       4.089   3.926  17.535  0.00  0.00    +0.000 C 
ATOM     29  C   UNL     1       3.953   4.113  19.041  0.00  0.00    +0.000 C 
BRANCH  27  30
ATOM     30  C   UNL     1       5.213   4.516  15.498  0.00  0.00    +0.000 C 
BRANCH  30  31
ATOM     31  C   UNL     1       6.570   4.128  14.870  0.00  0.00    +0.000 C 
BRANCH  31  32
ATOM     32  N   UNL     1       7.433   5.299  14.685  0.00  0.00    +0.000 NA
ATOM     33  H   UNL     1       6.906   6.043  14.230  0.00  0.00    +0.000 HD
ATOM     34  H   UNL     1       8.189   5.055  14.047  0.00  0.00    +0.000 HD
ENDBRANCH  31  32
ENDBRANCH  30  31
ENDBRANCH  27  30
ENDBRANCH  23  24
ENDBRANCH   4  23
TORSDOF 9
ENDMDL
MODEL 8
REMARK VINA RESULT:      -6.4      3.630      5.244
REMARK  Name = 
REMARK  10 active torsions:
REMARK  status: ('A' for Active; 'I' for Inactive)
REMARK    1  A    between atoms: C_1  and  O_2
REMARK    2  A    between atoms: O_2  and  C_3
REMARK    3  A    between atoms: C_5  and  N_6
REMARK    4  A    between atoms: C_10  and  C_11
REMARK    5  A    between atoms: N_13  and  C_14
REMARK    6  A    between atoms: N_17  and  C_18
REMARK    7  A    between atoms: C_18  and  C_19
REMARK    8  A    between atoms: N_22  and  C_23
REMARK    9  A    between atoms: C_23  and  C_24
REMARK   10  A    between atoms: C_24  and  N_25
REMARK                            x       y       z     vdW  Elec       q    Type
REMARK                         _______ _______ _______ _____ _____    ______ ____
ROOT
ATOM      1  C   UNL     1       0.057  10.280  19.414  0.00  0.00    +0.000 C 
ATOM      2  C   UNL     1       0.168   9.245  20.554  0.00  0.00    +0.000 C 
ATOM      3  C   UNL     1       1.465   8.399  20.553  0.00  0.00    +0.000 C 
ATOM      4  N   UNL     1       1.831   7.941  19.194  0.00  0.00    +0.000 NA
ATOM      5  C   UNL     1       1.985   9.126  18.349  0.00  0.00    +0.000 C 
ATOM      6  C   UNL     1       0.580   9.663  18.120  0.00  0.00    +0.000 C 
ENDROOT
BRANCH   1   9
ATOM      7  C   UNL     1       0.338  12.779  19.297  0.00  0.00    +0.000 C 
ATOM      8  O   UNL     1      -0.749  12.968  18.743  0.00  0.00    +0.000 OA
ATOM      9  N   UNL     1       0.775  11.536  19.658  0.00  0.00    +0.000 N 
ATOM     10  H   UNL     1       1.767  11.470  19.871  0.00  0.00    +0.000 HD
BRANCH   7  17
ATOM     11  C   UNL     1       1.438  14.454  20.940  0.00  0.00    +0.000 A 
ATOM     12  C   UNL     1       2.211  15.615  21.116  0.00  0.00    +0.000 A 
ATOM     13  C   UNL     1       2.806  16.271  20.034  0.00  0.00    +0.000 A 
ATOM     14  C   UNL     1       2.590  15.759  18.747  0.00  0.00    +0.000 A 
ATOM     15 CL   UNL     1       3.277  16.538  17.364  0.00  0.00    +0.000 Cl
ATOM     16  C   UNL     1       1.831  14.603  18.551  0.00  0.00    +0.000 A 
ATOM     17  C   UNL     1       1.231  13.945  19.637  0.00  0.00    +0.000 A 
BRANCH  13  18
ATOM     18  N   UNL     1       3.384  17.537  20.248  0.00  0.00    +0.000 N 
ATOM     19  H   UNL     1       4.326  17.528  20.623  0.00  0.00    +0.000 HD
ATOM     20  H   UNL     1       3.275  18.167  19.451  0.00  0.00    +0.000 HD
ENDBRANCH  13  18
BRANCH  11  22
ATOM     21  C   UNL     1      -0.304  14.324  22.562  0.00  0.00    +0.000 C 
ATOM     22  O   UNL     1       0.890  13.775  22.003  0.00  0.00    +0.000 OA
ENDBRANCH  11  22
ENDBRANCH   7  17
ENDBRANCH   1   9
BRANCH   4  23
ATOM     23  C   UNL     1       2.993   7.029  19.167  0.00  0.00    +0.000 C 
BRANCH  23  24
ATOM     24  C   UNL     1       3.011   6.024  17.969  0.00  0.00    +0.000 C 
ATOM     25  C   UNL     1       1.713   5.235  17.749  0.00  0.00    +0.000 C 
ATOM     26  C   UNL     1       1.547   4.003  18.646  0.00  0.00    +0.000 C 
ATOM     27  N   UNL     1       2.739   3.150  18.786  0.00  0.00    +0.000 NA
ATOM     28  C   UNL     1       3.957   3.930  19.055  0.00  0.00    +0.000 C 
ATOM     29  C   UNL     1       4.178   5.037  18.032  0.00  0.00    +0.000 C 
BRANCH  27  30
ATOM     30  C   UNL     1       2.555   2.167  19.884  0.00  0.00    +0.000 C 
BRANCH  30  31
ATOM     31  C   UNL     1       1.578   2.599  20.999  0.00  0.00    +0.000 C 
BRANCH  31  32
ATOM     32  N   UNL     1       2.290   2.967  22.227  0.00  0.00    +0.000 NA
ATOM     33  H   UNL     1       1.681   2.823  23.031  0.00  0.00    +0.000 HD
ATOM     34  H   UNL     1       2.498   3.965  22.203  0.00  0.00    +0.000 HD
ENDBRANCH  31  32
ENDBRANCH  30  31
ENDBRANCH  27  30
ENDBRANCH  23  24
ENDBRANCH   4  23
TORSDOF 9
ENDMDL
MODEL 9
REMARK VINA RESULT:      -6.3      3.939      5.871
REMARK  Name = 
REMARK  10 active torsions:
REMARK  status: ('A' for Active; 'I' for Inactive)
REMARK    1  A    between atoms: C_1  and  O_2
REMARK    2  A    between atoms: O_2  and  C_3
REMARK    3  A    between atoms: C_5  and  N_6
REMARK    4  A    between atoms: C_10  and  C_11
REMARK    5  A    between atoms: N_13  and  C_14
REMARK    6  A    between atoms: N_17  and  C_18
REMARK    7  A    between atoms: C_18  and  C_19
REMARK    8  A    between atoms: N_22  and  C_23
REMARK    9  A    between atoms: C_23  and  C_24
REMARK   10  A    between atoms: C_24  and  N_25
REMARK                            x       y       z     vdW  Elec       q    Type
REMARK                         _______ _______ _______ _____ _____    ______ ____
ROOT
ATOM      1  C   UNL     1       0.102  10.185  19.681  0.00  0.00    +0.000 C 
ATOM      2  C   UNL     1       0.621   9.036  20.572  0.00  0.00    +0.000 C 
ATOM      3  C   UNL     1       1.880   8.307  20.041  0.00  0.00    +0.000 C 
ATOM      4  N   UNL     1       1.801   8.043  18.587  0.00  0.00    +0.000 NA
ATOM      5  C   UNL     1       1.623   9.328  17.909  0.00  0.00    +0.000 C 
ATOM      6  C   UNL     1       0.199   9.770  18.215  0.00  0.00    +0.000 C 
ENDROOT
BRANCH   1   9
ATOM      7  C   UNL     1       0.257  12.698  19.696  0.00  0.00    +0.000 C 
ATOM      8  O   UNL     1      -0.934  12.865  19.414  0.00  0.00    +0.000 OA
ATOM      9  N   UNL     1       0.809  11.459  19.855  0.00  0.00    +0.000 N 
ATOM     10  H   UNL     1       1.826  11.432  19.836  0.00  0.00    +0.000 HD
BRANCH   7  17
ATOM     11  C   UNL     1       1.340  14.546  21.155  0.00  0.00    +0.000 A 
ATOM     12  C   UNL     1       2.127  15.710  21.210  0.00  0.00    +0.000 A 
ATOM     13  C   UNL     1       2.760  16.222  20.073  0.00  0.00    +0.000 A 
ATOM     14  C   UNL     1       2.568  15.561  18.853  0.00  0.00    +0.000 A 
ATOM     15 CL   UNL     1       3.303  16.158  17.405  0.00  0.00    +0.000 Cl
ATOM     16  C   UNL     1       1.796  14.400  18.777  0.00  0.00    +0.000 A 
ATOM     17  C   UNL     1       1.159  13.885  19.917  0.00  0.00    +0.000 A 
BRANCH  13  18
ATOM     18  N   UNL     1       3.352  17.497  20.150  0.00  0.00    +0.000 N 
ATOM     19  H   UNL     1       4.348  17.526  19.967  0.00  0.00    +0.000 HD
ATOM     20  H   UNL     1       2.829  18.213  19.640  0.00  0.00    +0.000 HD
ENDBRANCH  13  18
BRANCH  11  22
ATOM     21  C   UNL     1      -0.414  14.667  22.763  0.00  0.00    +0.000 C 
ATOM     22  O   UNL     1       0.755  14.007  22.276  0.00  0.00    +0.000 OA
ENDBRANCH  11  22
ENDBRANCH   7  17
ENDBRANCH   1   9
BRANCH   4  23
ATOM     23  C   UNL     1       2.925   7.241  18.066  0.00  0.00    +0.000 C 
BRANCH  23  24
ATOM     24  C   UNL     1       2.986   5.772  18.598  0.00  0.00    +0.000 C 
ATOM     25  C   UNL     1       4.074   5.492  19.644  0.00  0.00    +0.000 C 
ATOM     26  C   UNL     1       5.471   5.232  19.069  0.00  0.00    +0.000 C 
ATOM     27  N   UNL     1       5.524   4.329  17.907  0.00  0.00    +0.000 NA
ATOM     28  C   UNL     1       4.509   4.658  16.895  0.00  0.00    +0.000 C 
ATOM     29  C   UNL     1       3.105   4.733  17.481  0.00  0.00    +0.000 C 
BRANCH  27  30
ATOM     30  C   UNL     1       6.864   4.377  17.266  0.00  0.00    +0.000 C 
BRANCH  30  31
ATOM     31  C   UNL     1       6.982   5.330  16.056  0.00  0.00    +0.000 C 
BRANCH  31  32
ATOM     32  N   UNL     1       7.526   6.634  16.448  0.00  0.00    +0.000 NA
ATOM     33  H   UNL     1       7.291   6.824  17.421  0.00  0.00    +0.000 HD
ATOM     34  H   UNL     1       7.072   7.362  15.897  0.00  0.00    +0.000 HD
ENDBRANCH  31  32
ENDBRANCH  30  31
ENDBRANCH  27  30
ENDBRANCH  23  24
ENDBRANCH   4  23
TORSDOF 9
ENDMDL
