MODEL 1
REMARK VINA RESULT:      -9.3      0.000      0.000
REMARK  Name = 
REMARK  7 active torsions:
REMARK  status: ('A' for Active; 'I' for Inactive)
REMARK    1  A    between atoms: C_1  and  C_2
REMARK    2  A    between atoms: C_7  and  C_8
REMARK    3  A    between atoms: C_11  and  C_12
REMARK    4  A    between atoms: C_12  and  C_13
REMARK    5  A    between atoms: N_15  and  C_16
REMARK    6  A    between atoms: C_16  and  C_17
REMARK    7  A    between atoms: C_17  and  N_18
REMARK                            x       y       z     vdW  Elec       q    Type
REMARK                         _______ _______ _______ _____ _____    ______ ____
ROOT
ATOM      1  C   UNL     1       2.378   6.446  19.256  0.00  0.00    +0.000 A 
ATOM      2  N   UNL     1       3.100   6.853  18.258  0.00  0.00    +0.000 NA
ATOM      3  N   UNL     1       3.588   5.947  17.339  0.00  0.00    +0.000 N 
ATOM      4  C   UNL     1       3.403   4.572  17.460  0.00  0.00    +0.000 A 
ATOM      5  O   UNL     1       3.914   3.726  16.734  0.00  0.00    +0.000 OA
ATOM      6  C   UNL     1       2.562   4.106  18.570  0.00  0.00    +0.000 A 
ATOM      7  C   UNL     1       2.356   2.729  18.735  0.00  0.00    +0.000 A 
ATOM      8  C   UNL     1       1.629   2.258  19.822  0.00  0.00    +0.000 A 
ATOM      9  C   UNL     1       1.102   3.163  20.738  0.00  0.00    +0.000 A 
ATOM     10  C   UNL     1       1.310   4.538  20.576  0.00  0.00    +0.000 A 
ATOM     11  C   UNL     1       2.046   5.017  19.485  0.00  0.00    +0.000 A 
ENDROOT
BRANCH   1  12
ATOM     12  C   UNL     1       1.977   7.503  20.276  0.00  0.00    +0.000 C 
BRANCH  12  16
ATOM     13  C   UNL     1       0.032  10.243  19.151  0.00  0.00    +0.000 A 
ATOM     14  N   UNL     1       1.099  10.452  18.404  0.00  0.00    +0.000 NA
ATOM     15  N   UNL     1       2.009   9.470  18.714  0.00  0.00    +0.000 NA
ATOM     16  C   UNL     1       1.450   8.730  19.646  0.00  0.00    +0.000 A 
ATOM     17  O   UNL     1       0.193   9.154  19.980  0.00  0.00    +0.000 OA
BRANCH  13  24
ATOM     18  C   UNL     1      -2.088   9.806  17.061  0.00  0.00    +0.000 C 
ATOM     19  C   UNL     1      -2.262  10.742  18.230  0.00  0.00    +0.000 A 
ATOM     20  C   UNL     1      -3.484  11.433  18.342  0.00  0.00    +0.000 A 
ATOM     21  C   UNL     1      -3.714  12.318  19.393  0.00  0.00    +0.000 A 
ATOM     22  C   UNL     1      -2.725  12.534  20.344  0.00  0.00    +0.000 A 
ATOM     23  C   UNL     1      -1.507  11.856  20.248  0.00  0.00    +0.000 A 
ATOM     24  C   UNL     1      -1.251  10.948  19.200  0.00  0.00    +0.000 A 
ENDBRANCH  13  24
ENDBRANCH  12  16
ENDBRANCH   1  12
BRANCH   3  25
ATOM     25  C   UNL     1       4.669   6.468  16.485  0.00  0.00    +0.000 C 
BRANCH  25  26
ATOM     26  C   UNL     1       5.754   7.311  17.192  0.00  0.00    +0.000 C 
BRANCH  26  27
ATOM     27  N   UNL     1       7.151   6.924  16.889  0.00  0.00    +0.000 NA
ATOM     28  C   UNL     1       7.202   5.515  16.419  0.00  0.00    +0.000 C 
ATOM     29  C   UNL     1       7.054   4.458  17.533  0.00  0.00    +0.000 C 
ATOM     30  O   UNL     1       8.021   4.654  18.572  0.00  0.00    +0.000 OA
ATOM     31  C   UNL     1       7.896   5.967  19.129  0.00  0.00    +0.000 C 
ATOM     32  C   UNL     1       8.069   7.046  18.046  0.00  0.00    +0.000 C 
ENDBRANCH  26  27
ENDBRANCH  25  26
ENDBRANCH   3  25
TORSDOF 6
ENDMDL
MODEL 2
REMARK VINA RESULT:      -8.9      1.356      1.548
REMARK  Name = 
REMARK  7 active torsions:
REMARK  status: ('A' for Active; 'I' for Inactive)
REMARK    1  A    between atoms: C_1  and  C_2
REMARK    2  A    between atoms: C_7  and  C_8
REMARK    3  A    between atoms: C_11  and  C_12
REMARK    4  A    between atoms: C_12  and  C_13
REMARK    5  A    between atoms: N_15  and  C_16
REMARK    6  A    between atoms: C_16  and  C_17
REMARK    7  A    between atoms: C_17  and  N_18
REMARK                            x       y       z     vdW  Elec       q    Type
REMARK                         _______ _______ _______ _____ _____    ______ ____
ROOT
ATOM      1  C   UNL     1       2.533   6.229  19.633  0.00  0.00    +0.000 A 
ATOM      2  N   UNL     1       3.237   6.710  18.656  0.00  0.00    +0.000 NA
ATOM      3  N   UNL     1       3.496   5.938  17.541  0.00  0.00    +0.000 N 
ATOM      4  C   UNL     1       3.092   4.611  17.430  0.00  0.00    +0.000 A 
ATOM      5  O   UNL     1       3.397   3.856  16.513  0.00  0.00    +0.000 OA
ATOM      6  C   UNL     1       2.269   4.069  18.519  0.00  0.00    +0.000 A 
ATOM      7  C   UNL     1       1.846   2.733  18.451  0.00  0.00    +0.000 A 
ATOM      8  C   UNL     1       1.132   2.174  19.505  0.00  0.00    +0.000 A 
ATOM      9  C   UNL     1       0.835   2.951  20.621  0.00  0.00    +0.000 A 
ATOM     10  C   UNL     1       1.259   4.284  20.690  0.00  0.00    +0.000 A 
ATOM     11  C   UNL     1       1.983   4.850  19.633  0.00  0.00    +0.000 A 
ENDROOT
BRANCH   1  12
ATOM     12  C   UNL     1       2.393   7.115  20.864  0.00  0.00    +0.000 C 
BRANCH  12  16
ATOM     13  C   UNL     1       0.210   9.833  20.232  0.00  0.00    +0.000 A 
ATOM     14  N   UNL     1      -0.587   9.132  21.015  0.00  0.00    +0.000 NA
ATOM     15  N   UNL     1       0.093   7.990  21.367  0.00  0.00    +0.000 NA
ATOM     16  C   UNL     1       1.260   8.055  20.763  0.00  0.00    +0.000 A 
ATOM     17  O   UNL     1       1.413   9.195  20.022  0.00  0.00    +0.000 OA
BRANCH  13  24
ATOM     18  C   UNL     1      -1.624  10.216  17.878  0.00  0.00    +0.000 C 
ATOM     19  C   UNL     1      -0.847  11.343  18.510  0.00  0.00    +0.000 A 
ATOM     20  C   UNL     1      -1.002  12.633  17.969  0.00  0.00    +0.000 A 
ATOM     21  C   UNL     1      -0.312  13.722  18.499  0.00  0.00    +0.000 A 
ATOM     22  C   UNL     1       0.550  13.537  19.572  0.00  0.00    +0.000 A 
ATOM     23  C   UNL     1       0.715  12.264  20.121  0.00  0.00    +0.000 A 
ATOM     24  C   UNL     1       0.022  11.147  19.611  0.00  0.00    +0.000 A 
ENDBRANCH  13  24
ENDBRANCH  12  16
ENDBRANCH   1  12
BRANCH   3  25
ATOM     25  C   UNL     1       4.583   6.447  16.687  0.00  0.00    +0.000 C 
BRANCH  25  26
ATOM     26  C   UNL     1       5.639   7.336  17.381  0.00  0.00    +0.000 C 
BRANCH  26  27
ATOM     27  N   UNL     1       7.048   7.011  17.059  0.00  0.00    +0.000 NA
ATOM     28  C   UNL     1       7.131   5.670  16.425  0.00  0.00    +0.000 C 
ATOM     29  C   UNL     1       6.984   4.484  17.400  0.00  0.00    +0.000 C 
ATOM     30  O   UNL     1       7.930   4.569  18.473  0.00  0.00    +0.000 OA
ATOM     31  C   UNL     1       7.772   5.803  19.181  0.00  0.00    +0.000 C 
ATOM     32  C   UNL     1       7.944   7.007  18.240  0.00  0.00    +0.000 C 
ENDBRANCH  26  27
ENDBRANCH  25  26
ENDBRANCH   3  25
TORSDOF 6
ENDMDL
MODEL 3
REMARK VINA RESULT:      -8.8      3.382      8.745
REMARK  Name = 
REMARK  7 active torsions:
REMARK  status: ('A' for Active; 'I' for Inactive)
REMARK    1  A    between atoms: C_1  and  C_2
REMARK    2  A    between atoms: C_7  and  C_8
REMARK    3  A    between atoms: C_11  and  C_12
REMARK    4  A    between atoms: C_12  and  C_13
REMARK    5  A    between atoms: N_15  and  C_16
REMARK    6  A    between atoms: C_16  and  C_17
REMARK    7  A    between atoms: C_17  and  N_18
REMARK                            x       y       z     vdW  Elec       q    Type
REMARK                         _______ _______ _______ _____ _____    ______ ____
ROOT
ATOM      1  C   UNL     1       0.705  10.543  18.593  0.00  0.00    +0.000 A 
ATOM      2  N   UNL     1       1.294  11.361  19.410  0.00  0.00    +0.000 NA
ATOM      3  N   UNL     1       0.560  12.314  20.087  0.00  0.00    +0.000 N 
ATOM      4  C   UNL     1      -0.806  12.499  19.888  0.00  0.00    +0.000 A 
ATOM      5  O   UNL     1      -1.473  13.403  20.379  0.00  0.00    +0.000 OA
ATOM      6  C   UNL     1      -1.484  11.557  18.988  0.00  0.00    +0.000 A 
ATOM      7  C   UNL     1      -2.858  11.711  18.754  0.00  0.00    +0.000 A 
ATOM      8  C   UNL     1      -3.508  10.881  17.847  0.00  0.00    +0.000 A 
ATOM      9  C   UNL     1      -2.786   9.895  17.183  0.00  0.00    +0.000 A 
ATOM     10  C   UNL     1      -1.414   9.742  17.415  0.00  0.00    +0.000 A 
ATOM     11  C   UNL     1      -0.754  10.579  18.323  0.00  0.00    +0.000 A 
ENDROOT
BRANCH   1  12
ATOM     12  C   UNL     1       1.611   9.601  17.812  0.00  0.00    +0.000 C 
BRANCH  12  16
ATOM     13  C   UNL     1       2.304   6.286  18.853  0.00  0.00    +0.000 A 
ATOM     14  N   UNL     1       2.191   6.837  20.046  0.00  0.00    +0.000 NA
ATOM     15  N   UNL     1       1.930   8.172  19.853  0.00  0.00    +0.000 NA
ATOM     16  C   UNL     1       1.916   8.360  18.551  0.00  0.00    +0.000 A 
ATOM     17  O   UNL     1       2.144   7.211  17.844  0.00  0.00    +0.000 OA
BRANCH  13  24
ATOM     18  C   UNL     1       4.954   5.360  17.769  0.00  0.00    +0.000 C 
ATOM     19  C   UNL     1       3.775   4.441  17.963  0.00  0.00    +0.000 A 
ATOM     20  C   UNL     1       3.938   3.084  17.626  0.00  0.00    +0.000 A 
ATOM     21  C   UNL     1       2.891   2.177  17.773  0.00  0.00    +0.000 A 
ATOM     22  C   UNL     1       1.662   2.612  18.254  0.00  0.00    +0.000 A 
ATOM     23  C   UNL     1       1.484   3.954  18.594  0.00  0.00    +0.000 A 
ATOM     24  C   UNL     1       2.529   4.892  18.463  0.00  0.00    +0.000 A 
ENDBRANCH  13  24
ENDBRANCH  12  16
ENDBRANCH   1  12
BRANCH   3  25
ATOM     25  C   UNL     1       1.365  13.393  20.684  0.00  0.00    +0.000 C 
BRANCH  25  26
ATOM     26  C   UNL     1       2.537  13.926  19.829  0.00  0.00    +0.000 C 
BRANCH  26  27
ATOM     27  N   UNL     1       2.151  14.834  18.724  0.00  0.00    +0.000 NA
ATOM     28  C   UNL     1       3.340  15.171  17.900  0.00  0.00    +0.000 C 
ATOM     29  C   UNL     1       4.295  16.202  18.536  0.00  0.00    +0.000 C 
ATOM     30  O   UNL     1       3.603  17.404  18.897  0.00  0.00    +0.000 OA
ATOM     31  C   UNL     1       2.532  17.111  19.800  0.00  0.00    +0.000 C 
ATOM     32  C   UNL     1       1.544  16.107  19.182  0.00  0.00    +0.000 C 
ENDBRANCH  26  27
ENDBRANCH  25  26
ENDBRANCH   3  25
TORSDOF 6
ENDMDL
MODEL 4
REMARK VINA RESULT:      -8.8      1.785      2.119
REMARK  Name = 
REMARK  7 active torsions:
REMARK  status: ('A' for Active; 'I' for Inactive)
REMARK    1  A    between atoms: C_1  and  C_2
REMARK    2  A    between atoms: C_7  and  C_8
REMARK    3  A    between atoms: C_11  and  C_12
REMARK    4  A    between atoms: C_12  and  C_13
REMARK    5  A    between atoms: N_15  and  C_16
REMARK    6  A    between atoms: C_16  and  C_17
REMARK    7  A    between atoms: C_17  and  N_18
REMARK                            x       y       z     vdW  Elec       q    Type
REMARK                         _______ _______ _______ _____ _____    ______ ____
ROOT
ATOM      1  C   UNL     1       2.346   6.266  19.585  0.00  0.00    +0.000 A 
ATOM      2  N   UNL     1       3.050   6.807  18.639  0.00  0.00    +0.000 NA
ATOM      3  N   UNL     1       3.470   6.050  17.565  0.00  0.00    +0.000 N 
ATOM      4  C   UNL     1       3.233   4.681  17.466  0.00  0.00    +0.000 A 
ATOM      5  O   UNL     1       3.683   3.950  16.591  0.00  0.00    +0.000 OA
ATOM      6  C   UNL     1       2.411   4.067  18.517  0.00  0.00    +0.000 A 
ATOM      7  C   UNL     1       2.154   2.690  18.461  0.00  0.00    +0.000 A 
ATOM      8  C   UNL     1       1.444   2.071  19.484  0.00  0.00    +0.000 A 
ATOM      9  C   UNL     1       0.987   2.830  20.557  0.00  0.00    +0.000 A 
ATOM     10  C   UNL     1       1.246   4.205  20.615  0.00  0.00    +0.000 A 
ATOM     11  C   UNL     1       1.964   4.831  19.589  0.00  0.00    +0.000 A 
ENDROOT
BRANCH   1  12
ATOM     12  C   UNL     1       2.024   7.153  20.779  0.00  0.00    +0.000 C 
BRANCH  12  16
ATOM     13  C   UNL     1       0.615  10.400  20.625  0.00  0.00    +0.000 A 
ATOM     14  N   UNL     1       0.576  10.119  19.337  0.00  0.00    +0.000 NA
ATOM     15  N   UNL     1       1.113   8.863  19.181  0.00  0.00    +0.000 NA
ATOM     16  C   UNL     1       1.464   8.460  20.383  0.00  0.00    +0.000 A 
ATOM     17  O   UNL     1       1.181   9.379  21.357  0.00  0.00    +0.000 OA
BRANCH  13  24
ATOM     18  C   UNL     1       1.853  13.116  20.243  0.00  0.00    +0.000 C 
ATOM     19  C   UNL     1       0.700  12.859  21.181  0.00  0.00    +0.000 A 
ATOM     20  C   UNL     1       0.181  13.953  21.900  0.00  0.00    +0.000 A 
ATOM     21  C   UNL     1      -0.879  13.790  22.788  0.00  0.00    +0.000 A 
ATOM     22  C   UNL     1      -1.435  12.531  22.977  0.00  0.00    +0.000 A 
ATOM     23  C   UNL     1      -0.932  11.436  22.272  0.00  0.00    +0.000 A 
ATOM     24  C   UNL     1       0.134  11.573  21.360  0.00  0.00    +0.000 A 
ENDBRANCH  13  24
ENDBRANCH  12  16
ENDBRANCH   1  12
BRANCH   3  25
ATOM     25  C   UNL     1       4.542   6.666  16.766  0.00  0.00    +0.000 C 
BRANCH  25  26
ATOM     26  C   UNL     1       5.663   7.377  17.557  0.00  0.00    +0.000 C 
BRANCH  26  27
ATOM     27  N   UNL     1       7.043   7.034  17.142  0.00  0.00    +0.000 NA
ATOM     28  C   UNL     1       7.070   5.687  16.516  0.00  0.00    +0.000 C 
ATOM     29  C   UNL     1       6.978   4.512  17.510  0.00  0.00    +0.000 C 
ATOM     30  O   UNL     1       7.997   4.595  18.515  0.00  0.00    +0.000 OA
ATOM     31  C   UNL     1       7.901   5.837  19.220  0.00  0.00    +0.000 C 
ATOM     32  C   UNL     1       8.019   7.032  18.258  0.00  0.00    +0.000 C 
ENDBRANCH  26  27
ENDBRANCH  25  26
ENDBRANCH   3  25
TORSDOF 6
ENDMDL
MODEL 5
REMARK VINA RESULT:      -8.8      0.777      1.157
REMARK  Name = 
REMARK  7 active torsions:
REMARK  status: ('A' for Active; 'I' for Inactive)
REMARK    1  A    between atoms: C_1  and  C_2
REMARK    2  A    between atoms: C_7  and  C_8
REMARK    3  A    between atoms: C_11  and  C_12
REMARK    4  A    between atoms: C_12  and  C_13
REMARK    5  A    between atoms: N_15  and  C_16
REMARK    6  A    between atoms: C_16  and  C_17
REMARK    7  A    between atoms: C_17  and  N_18
REMARK                            x       y       z     vdW  Elec       q    Type
REMARK                         _______ _______ _______ _____ _____    ______ ____
ROOT
ATOM      1  C   UNL     1       2.349   6.320  19.457  0.00  0.00    +0.000 A 
ATOM      2  N   UNL     1       3.074   6.807  18.498  0.00  0.00    +0.000 NA
ATOM      3  N   UNL     1       3.528   5.986  17.486  0.00  0.00    +0.000 N 
ATOM      4  C   UNL     1       3.305   4.612  17.469  0.00  0.00    +0.000 A 
ATOM      5  O   UNL     1       3.784   3.830  16.654  0.00  0.00    +0.000 OA
ATOM      6  C   UNL     1       2.460   4.058  18.535  0.00  0.00    +0.000 A 
ATOM      7  C   UNL     1       2.215   2.678  18.561  0.00  0.00    +0.000 A 
ATOM      8  C   UNL     1       1.484   2.119  19.602  0.00  0.00    +0.000 A 
ATOM      9  C   UNL     1       0.992   2.940  20.612  0.00  0.00    +0.000 A 
ATOM     10  C   UNL     1       1.238   4.318  20.588  0.00  0.00    +0.000 A 
ATOM     11  C   UNL     1       1.979   4.885  19.543  0.00  0.00    +0.000 A 
ENDROOT
BRANCH   1  12
ATOM     12  C   UNL     1       1.988   7.279  20.583  0.00  0.00    +0.000 C 
BRANCH  12  16
ATOM     13  C   UNL     1       0.210  10.307  20.114  0.00  0.00    +0.000 A 
ATOM     14  N   UNL     1       0.710  10.194  18.899  0.00  0.00    +0.000 NA
ATOM     15  N   UNL     1       1.472   9.050  18.879  0.00  0.00    +0.000 NA
ATOM     16  C   UNL     1       1.405   8.542  20.091  0.00  0.00    +0.000 A 
ATOM     17  O   UNL     1       0.623   9.281  20.935  0.00  0.00    +0.000 OA
BRANCH  13  24
ATOM     18  C   UNL     1      -2.036  11.486  18.494  0.00  0.00    +0.000 C 
ATOM     19  C   UNL     1      -1.773  11.855  19.932  0.00  0.00    +0.000 A 
ATOM     20  C   UNL     1      -2.633  12.790  20.538  0.00  0.00    +0.000 A 
ATOM     21  C   UNL     1      -2.449  13.183  21.862  0.00  0.00    +0.000 A 
ATOM     22  C   UNL     1      -1.399  12.653  22.600  0.00  0.00    +0.000 A 
ATOM     23  C   UNL     1      -0.537  11.723  22.014  0.00  0.00    +0.000 A 
ATOM     24  C   UNL     1      -0.705  11.301  20.680  0.00  0.00    +0.000 A 
ENDBRANCH  13  24
ENDBRANCH  12  16
ENDBRANCH   1  12
BRANCH   3  25
ATOM     25  C   UNL     1       4.617   6.560  16.677  0.00  0.00    +0.000 C 
BRANCH  25  26
ATOM     26  C   UNL     1       5.702   7.344  17.448  0.00  0.00    +0.000 C 
BRANCH  26  27
ATOM     27  N   UNL     1       7.099   7.020  17.077  0.00  0.00    +0.000 NA
ATOM     28  C   UNL     1       7.163   5.671  16.456  0.00  0.00    +0.000 C 
ATOM     29  C   UNL     1       7.057   4.497  17.451  0.00  0.00    +0.000 C 
ATOM     30  O   UNL     1       8.043   4.598  18.486  0.00  0.00    +0.000 OA
ATOM     31  C   UNL     1       7.908   5.840  19.185  0.00  0.00    +0.000 C 
ATOM     32  C   UNL     1       8.039   7.033  18.223  0.00  0.00    +0.000 C 
ENDBRANCH  26  27
ENDBRANCH  25  26
ENDBRANCH   3  25
TORSDOF 6
ENDMDL
MODEL 6
REMARK VINA RESULT:      -8.8      1.117      1.780
REMARK  Name = 
REMARK  7 active torsions:
REMARK  status: ('A' for Active; 'I' for Inactive)
REMARK    1  A    between atoms: C_1  and  C_2
REMARK    2  A    between atoms: C_7  and  C_8
REMARK    3  A    between atoms: C_11  and  C_12
REMARK    4  A    between atoms: C_12  and  C_13
REMARK    5  A    between atoms: N_15  and  C_16
REMARK    6  A    between atoms: C_16  and  C_17
REMARK    7  A    between atoms: C_17  and  N_18
REMARK                            x       y       z     vdW  Elec       q    Type
REMARK                         _______ _______ _______ _____ _____    ______ ____
ROOT
ATOM      1  C   UNL     1       2.453   6.282  19.411  0.00  0.00    +0.000 A 
ATOM      2  N   UNL     1       3.206   6.756  18.467  0.00  0.00    +0.000 NA
ATOM      3  N   UNL     1       3.598   5.948  17.420  0.00  0.00    +0.000 N 
ATOM      4  C   UNL     1       3.280   4.595  17.348  0.00  0.00    +0.000 A 
ATOM      5  O   UNL     1       3.701   3.816  16.499  0.00  0.00    +0.000 OA
ATOM      6  C   UNL     1       2.403   4.058  18.397  0.00  0.00    +0.000 A 
ATOM      7  C   UNL     1       2.063   2.697  18.367  0.00  0.00    +0.000 A 
ATOM      8  C   UNL     1       1.298   2.148  19.390  0.00  0.00    +0.000 A 
ATOM      9  C   UNL     1       0.868   2.959  20.436  0.00  0.00    +0.000 A 
ATOM     10  C   UNL     1       1.209   4.317  20.466  0.00  0.00    +0.000 A 
ATOM     11  C   UNL     1       1.984   4.873  19.441  0.00  0.00    +0.000 A 
ENDROOT
BRANCH   1  12
ATOM     12  C   UNL     1       2.163   7.216  20.578  0.00  0.00    +0.000 C 
BRANCH  12  16
ATOM     13  C   UNL     1       0.140  10.112  20.304  0.00  0.00    +0.000 A 
ATOM     14  N   UNL     1       0.597  10.085  19.067  0.00  0.00    +0.000 NA
ATOM     15  N   UNL     1       1.443   9.006  18.971  0.00  0.00    +0.000 NA
ATOM     16  C   UNL     1       1.465   8.448  20.161  0.00  0.00    +0.000 A 
ATOM     17  O   UNL     1       0.664   9.089  21.065  0.00  0.00    +0.000 OA
BRANCH  13  24
ATOM     18  C   UNL     1      -0.388  10.001  23.264  0.00  0.00    +0.000 C 
ATOM     19  C   UNL     1      -1.073  10.974  22.339  0.00  0.00    +0.000 A 
ATOM     20  C   UNL     1      -1.996  11.876  22.902  0.00  0.00    +0.000 A 
ATOM     21  C   UNL     1      -2.672  12.801  22.109  0.00  0.00    +0.000 A 
ATOM     22  C   UNL     1      -2.441  12.835  20.740  0.00  0.00    +0.000 A 
ATOM     23  C   UNL     1      -1.528  11.948  20.165  0.00  0.00    +0.000 A 
ATOM     24  C   UNL     1      -0.825  11.008  20.946  0.00  0.00    +0.000 A 
ENDBRANCH  13  24
ENDBRANCH  12  16
ENDBRANCH   1  12
BRANCH   3  25
ATOM     25  C   UNL     1       4.721   6.479  16.628  0.00  0.00    +0.000 C 
BRANCH  25  26
ATOM     26  C   UNL     1       5.752   7.338  17.393  0.00  0.00    +0.000 C 
BRANCH  26  27
ATOM     27  N   UNL     1       7.171   7.026  17.106  0.00  0.00    +0.000 NA
ATOM     28  C   UNL     1       7.282   5.688  16.468  0.00  0.00    +0.000 C 
ATOM     29  C   UNL     1       7.120   4.497  17.433  0.00  0.00    +0.000 C 
ATOM     30  O   UNL     1       8.038   4.584  18.530  0.00  0.00    +0.000 OA
ATOM     31  C   UNL     1       7.853   5.814  19.240  0.00  0.00    +0.000 C 
ATOM     32  C   UNL     1       8.038   7.024  18.308  0.00  0.00    +0.000 C 
ENDBRANCH  26  27
ENDBRANCH  25  26
ENDBRANCH   3  25
TORSDOF 6
ENDMDL
MODEL 7
REMARK VINA RESULT:      -8.7      1.085      1.548
REMARK  Name = 
REMARK  7 active torsions:
REMARK  status: ('A' for Active; 'I' for Inactive)
REMARK    1  A    between atoms: C_1  and  C_2
REMARK    2  A    between atoms: C_7  and  C_8
REMARK    3  A    between atoms: C_11  and  C_12
REMARK    4  A    between atoms: C_12  and  C_13
REMARK    5  A    between atoms: N_15  and  C_16
REMARK    6  A    between atoms: C_16  and  C_17
REMARK    7  A    between atoms: C_17  and  N_18
REMARK                            x       y       z     vdW  Elec       q    Type
REMARK                         _______ _______ _______ _____ _____    ______ ____
ROOT
ATOM      1  C   UNL     1       2.443   6.330  19.175  0.00  0.00    +0.000 A 
ATOM      2  N   UNL     1       3.210   6.650  18.180  0.00  0.00    +0.000 NA
ATOM      3  N   UNL     1       3.691   5.674  17.331  0.00  0.00    +0.000 N 
ATOM      4  C   UNL     1       3.448   4.317  17.525  0.00  0.00    +0.000 A 
ATOM      5  O   UNL     1       3.947   3.411  16.866  0.00  0.00    +0.000 OA
ATOM      6  C   UNL     1       2.556   3.949  18.632  0.00  0.00    +0.000 A 
ATOM      7  C   UNL     1       2.292   2.592  18.869  0.00  0.00    +0.000 A 
ATOM      8  C   UNL     1       1.513   2.213  19.957  0.00  0.00    +0.000 A 
ATOM      9  C   UNL     1       0.995   3.190  20.802  0.00  0.00    +0.000 A 
ATOM     10  C   UNL     1       1.261   4.544  20.567  0.00  0.00    +0.000 A 
ATOM     11  C   UNL     1       2.049   4.930  19.476  0.00  0.00    +0.000 A 
ENDROOT
BRANCH   1  12
ATOM     12  C   UNL     1       2.053   7.460  20.118  0.00  0.00    +0.000 C 
BRANCH  12  16
ATOM     13  C   UNL     1       0.561  10.523  19.146  0.00  0.00    +0.000 A 
ATOM     14  N   UNL     1       0.802  10.041  17.941  0.00  0.00    +0.000 NA
ATOM     15  N   UNL     1       1.414   8.822  18.107  0.00  0.00    +0.000 NA
ATOM     16  C   UNL     1       1.528   8.641  19.405  0.00  0.00    +0.000 A 
ATOM     17  O   UNL     1       1.010   9.675  20.135  0.00  0.00    +0.000 OA
BRANCH  13  24
ATOM     18  C   UNL     1       1.689  13.235  18.493  0.00  0.00    +0.000 C 
ATOM     19  C   UNL     1       0.402  13.038  19.253  0.00  0.00    +0.000 A 
ATOM     20  C   UNL     1      -0.301  14.186  19.663  0.00  0.00    +0.000 A 
ATOM     21  C   UNL     1      -1.495  14.081  20.373  0.00  0.00    +0.000 A 
ATOM     22  C   UNL     1      -2.002  12.827  20.691  0.00  0.00    +0.000 A 
ATOM     23  C   UNL     1      -1.317  11.678  20.291  0.00  0.00    +0.000 A 
ATOM     24  C   UNL     1      -0.112  11.755  19.564  0.00  0.00    +0.000 A 
ENDBRANCH  13  24
ENDBRANCH  12  16
ENDBRANCH   1  12
BRANCH   3  25
ATOM     25  C   UNL     1       4.817   6.103  16.484  0.00  0.00    +0.000 C 
BRANCH  25  26
ATOM     26  C   UNL     1       5.744   7.187  17.077  0.00  0.00    +0.000 C 
BRANCH  26  27
ATOM     27  N   UNL     1       7.195   6.930  16.923  0.00  0.00    +0.000 NA
ATOM     28  C   UNL     1       7.420   5.544  16.434  0.00  0.00    +0.000 C 
ATOM     29  C   UNL     1       7.245   4.446  17.502  0.00  0.00    +0.000 C 
ATOM     30  O   UNL     1       8.072   4.693  18.646  0.00  0.00    +0.000 OA
ATOM     31  C   UNL     1       7.773   5.973  19.212  0.00  0.00    +0.000 C 
ATOM     32  C   UNL     1       7.967   7.095  18.177  0.00  0.00    +0.000 C 
ENDBRANCH  26  27
ENDBRANCH  25  26
ENDBRANCH   3  25
TORSDOF 6
ENDMDL
MODEL 8
REMARK VINA RESULT:      -8.6      4.405      8.069
REMARK  Name = 
REMARK  7 active torsions:
REMARK  status: ('A' for Active; 'I' for Inactive)
REMARK    1  A    between atoms: C_1  and  C_2
REMARK    2  A    between atoms: C_7  and  C_8
REMARK    3  A    between atoms: C_11  and  C_12
REMARK    4  A    between atoms: C_12  and  C_13
REMARK    5  A    between atoms: N_15  and  C_16
REMARK    6  A    between atoms: C_16  and  C_17
REMARK    7  A    between atoms: C_17  and  N_18
REMARK                            x       y       z     vdW  Elec       q    Type
REMARK                         _______ _______ _______ _____ _____    ______ ____
ROOT
ATOM      1  C   UNL     1       6.766   5.642  18.190  0.00  0.00    +0.000 A 
ATOM      2  N   UNL     1       5.844   5.716  19.099  0.00  0.00    +0.000 NA
ATOM      3  N   UNL     1       4.553   5.321  18.815  0.00  0.00    +0.000 N 
ATOM      4  C   UNL     1       4.154   4.896  17.550  0.00  0.00    +0.000 A 
ATOM      5  O   UNL     1       2.999   4.645  17.224  0.00  0.00    +0.000 OA
ATOM      6  C   UNL     1       5.198   4.780  16.524  0.00  0.00    +0.000 A 
ATOM      7  C   UNL     1       4.838   4.363  15.233  0.00  0.00    +0.000 A 
ATOM      8  C   UNL     1       5.793   4.319  14.224  0.00  0.00    +0.000 A 
ATOM      9  C   UNL     1       7.106   4.684  14.506  0.00  0.00    +0.000 A 
ATOM     10  C   UNL     1       7.465   5.102  15.794  0.00  0.00    +0.000 A 
ATOM     11  C   UNL     1       6.505   5.153  16.812  0.00  0.00    +0.000 A 
ENDROOT
BRANCH   1  12
ATOM     12  C   UNL     1       8.131   6.203  18.563  0.00  0.00    +0.000 C 
BRANCH  12  16
ATOM     13  C   UNL     1       8.762   9.684  18.751  0.00  0.00    +0.000 A 
ATOM     14  N   UNL     1       7.955   9.697  17.708  0.00  0.00    +0.000 NA
ATOM     15  N   UNL     1       7.599   8.393  17.456  0.00  0.00    +0.000 NA
ATOM     16  C   UNL     1       8.225   7.660  18.351  0.00  0.00    +0.000 A 
ATOM     17  O   UNL     1       8.984   8.404  19.212  0.00  0.00    +0.000 OA
BRANCH  13  24
ATOM     18  C   UNL     1      10.844  11.430  17.460  0.00  0.00    +0.000 C 
ATOM     19  C   UNL     1      10.371  11.622  18.878  0.00  0.00    +0.000 A 
ATOM     20  C   UNL     1      10.932  12.678  19.621  0.00  0.00    +0.000 A 
ATOM     21  C   UNL     1      10.547  12.913  20.939  0.00  0.00    +0.000 A 
ATOM     22  C   UNL     1       9.601  12.091  21.539  0.00  0.00    +0.000 A 
ATOM     23  C   UNL     1       9.034  11.040  20.816  0.00  0.00    +0.000 A 
ATOM     24  C   UNL     1       9.398  10.785  19.478  0.00  0.00    +0.000 A 
ENDBRANCH  13  24
ENDBRANCH  12  16
ENDBRANCH   1  12
BRANCH   3  25
ATOM     25  C   UNL     1       3.545   5.785  19.783  0.00  0.00    +0.000 C 
BRANCH  25  26
ATOM     26  C   UNL     1       2.103   5.277  19.565  0.00  0.00    +0.000 C 
BRANCH  26  27
ATOM     27  N   UNL     1       1.645   4.247  20.526  0.00  0.00    +0.000 NA
ATOM     28  C   UNL     1       2.757   3.313  20.843  0.00  0.00    +0.000 C 
ATOM     29  C   UNL     1       3.066   2.280  19.741  0.00  0.00    +0.000 C 
ATOM     30  O   UNL     1       1.898   1.532  19.381  0.00  0.00    +0.000 OA
ATOM     31  C   UNL     1       0.857   2.412  18.944  0.00  0.00    +0.000 C 
ATOM     32  C   UNL     1       0.504   3.438  20.035  0.00  0.00    +0.000 C 
ENDBRANCH  26  27
ENDBRANCH  25  26
ENDBRANCH   3  25
TORSDOF 6
ENDMDL
MODEL 9
REMARK VINA RESULT:      -8.5      3.105      8.627
REMARK  Name = 
REMARK  7 active torsions:
REMARK  status: ('A' for Active; 'I' for Inactive)
REMARK    1  A    between atoms: C_1  and  C_2
REMARK    2  A    between atoms: C_7  and  C_8
REMARK    3  A    between atoms: C_11  and  C_12
REMARK    4  A    between atoms: C_12  and  C_13
REMARK    5  A    between atoms: N_15  and  C_16
REMARK    6  A    between atoms: C_16  and  C_17
REMARK    7  A    between atoms: C_17  and  N_18
REMARK                            x       y       z     vdW  Elec       q    Type
REMARK                         _______ _______ _______ _____ _____    ______ ____
ROOT
ATOM      1  C   UNL     1       0.493  10.719  18.836  0.00  0.00    +0.000 A 
ATOM      2  N   UNL     1       0.906  11.535  19.756  0.00  0.00    +0.000 NA
ATOM      3  N   UNL     1       0.018  12.389  20.377  0.00  0.00    +0.000 N 
ATOM      4  C   UNL     1      -1.324  12.476  20.017  0.00  0.00    +0.000 A 
ATOM      5  O   UNL     1      -2.120  13.297  20.461  0.00  0.00    +0.000 OA
ATOM      6  C   UNL     1      -1.806  11.534  18.999  0.00  0.00    +0.000 A 
ATOM      7  C   UNL     1      -3.150  11.593  18.601  0.00  0.00    +0.000 A 
ATOM      8  C   UNL     1      -3.612  10.766  17.584  0.00  0.00    +0.000 A 
ATOM      9  C   UNL     1      -2.734   9.877  16.971  0.00  0.00    +0.000 A 
ATOM     10  C   UNL     1      -1.392   9.820  17.366  0.00  0.00    +0.000 A 
ATOM     11  C   UNL     1      -0.921  10.655  18.387  0.00  0.00    +0.000 A 
ENDROOT
BRANCH   1  12
ATOM     12  C   UNL     1       1.563   9.896  18.133  0.00  0.00    +0.000 C 
BRANCH  12  16
ATOM     13  C   UNL     1       2.280   6.541  19.019  0.00  0.00    +0.000 A 
ATOM     14  N   UNL     1       2.012   6.999  20.226  0.00  0.00    +0.000 NA
ATOM     15  N   UNL     1       1.715   8.335  20.095  0.00  0.00    +0.000 NA
ATOM     16  C   UNL     1       1.838   8.616  18.816  0.00  0.00    +0.000 A 
ATOM     17  O   UNL     1       2.194   7.530  18.064  0.00  0.00    +0.000 OA
BRANCH  13  24
ATOM     18  C   UNL     1       0.923   4.116  20.172  0.00  0.00    +0.000 C 
ATOM     19  C   UNL     1       1.969   4.039  19.089  0.00  0.00    +0.000 A 
ATOM     20  C   UNL     1       2.312   2.766  18.596  0.00  0.00    +0.000 A 
ATOM     21  C   UNL     1       3.274   2.617  17.600  0.00  0.00    +0.000 A 
ATOM     22  C   UNL     1       3.913   3.737  17.085  0.00  0.00    +0.000 A 
ATOM     23  C   UNL     1       3.585   5.007  17.562  0.00  0.00    +0.000 A 
ATOM     24  C   UNL     1       2.609   5.187  18.563  0.00  0.00    +0.000 A 
ENDBRANCH  13  24
ENDBRANCH  12  16
ENDBRANCH   1  12
BRANCH   3  25
ATOM     25  C   UNL     1       0.651  13.493  21.119  0.00  0.00    +0.000 C 
BRANCH  25  26
ATOM     26  C   UNL     1       0.975  14.766  20.305  0.00  0.00    +0.000 C 
BRANCH  26  27
ATOM     27  N   UNL     1       2.389  15.204  20.356  0.00  0.00    +0.000 NA
ATOM     28  C   UNL     1       2.554  16.486  19.621  0.00  0.00    +0.000 C 
ATOM     29  C   UNL     1       2.554  16.353  18.085  0.00  0.00    +0.000 C 
ATOM     30  O   UNL     1       3.540  15.414  17.640  0.00  0.00    +0.000 OA
ATOM     31  C   UNL     1       3.315  14.133  18.238  0.00  0.00    +0.000 C 
ATOM     32  C   UNL     1       3.339  14.226  19.774  0.00  0.00    +0.000 C 
ENDBRANCH  26  27
ENDBRANCH  25  26
ENDBRANCH   3  25
TORSDOF 6
ENDMDL
