MODEL 1
REMARK VINA RESULT:      -7.8      0.000      0.000
REMARK  Name = 
REMARK  9 active torsions:
REMARK  status: ('A' for Active; 'I' for Inactive)
REMARK    1  A    between atoms: C_1  and  O_2
REMARK    2  A    between atoms: O_2  and  C_3
REMARK    3  A    between atoms: C_9  and  C_10
REMARK    4  A    between atoms: C_10  and  C_12
REMARK    5  A    between atoms: C_13  and  O_14
REMARK    6  A    between atoms: C_13  and  C_15
REMARK    7  A    between atoms: C_15  and  O_17
REMARK    8  A    between atoms: N_19  and  C_20
REMARK    9  A    between atoms: C_20  and  C_21
REMARK                            x       y       z     vdW  Elec       q    Type
REMARK                         _______ _______ _______ _____ _____    ______ ____
ROOT
ATOM      1  C   UNL     1       2.949   2.637  18.656  0.00  0.00    +0.000 A 
ATOM      2  C   UNL     1       1.692   2.023  18.760  0.00  0.00    +0.000 A 
ATOM      3  C   UNL     1       0.597   2.714  19.262  0.00  0.00    +0.000 A 
ATOM      4  C   UNL     1       0.734   4.016  19.739  0.00  0.00    +0.000 A 
ATOM      5  C   UNL     1       2.001   4.617  19.696  0.00  0.00    +0.000 A 
ATOM      6  C   UNL     1       3.110   3.971  19.125  0.00  0.00    +0.000 A 
ATOM      7  C   UNL     1       4.215   4.898  19.163  0.00  0.00    +0.000 A 
ATOM      8  C   UNL     1       3.766   6.009  19.856  0.00  0.00    +0.000 A 
ATOM      9  N   UNL     1       2.440   5.842  20.170  0.00  0.00    +0.000 N 
ENDROOT
BRANCH   1  11
ATOM     10  C   UNL     1       4.293   0.690  18.790  0.00  0.00    +0.000 C 
ATOM     11  O   UNL     1       4.057   1.964  18.199  0.00  0.00    +0.000 OA
ENDBRANCH   1  11
BRANCH   7  12
ATOM     12  C   UNL     1       5.530   4.734  18.553  0.00  0.00    +0.000 C 
ATOM     13  O   UNL     1       6.570   4.561  19.190  0.00  0.00    +0.000 OA
BRANCH  12  14
ATOM     14  C   UNL     1       5.589   4.755  17.071  0.00  0.00    +0.000 C 
ATOM     15  C   UNL     1       6.743   4.475  16.439  0.00  0.00    +0.000 C 
BRANCH  15  16
ATOM     16  O   UNL     1       7.943   4.163  17.071  0.00  0.00    +0.000 OA
ATOM     17  H   UNL     1       8.498   4.979  17.064  0.00  0.00    +0.000 HD
ENDBRANCH  15  16
BRANCH  15  18
ATOM     18  C   UNL     1       6.759   4.493  14.947  0.00  0.00    +0.000 C 
ATOM     19  O   UNL     1       6.089   3.780  14.222  0.00  0.00    +0.000 OA
BRANCH  18  20
ATOM     20  O   UNL     1       7.636   5.427  14.513  0.00  0.00    +0.000 OA
ATOM     21  H   UNL     1       7.137   6.202  14.175  0.00  0.00    +0.000 HD
ENDBRANCH  18  20
ENDBRANCH  15  18
ENDBRANCH  12  14
ENDBRANCH   7  12
BRANCH   9  22
ATOM     22  C   UNL     1       1.662   6.775  20.991  0.00  0.00    +0.000 C 
BRANCH  22  23
ATOM     23  C   UNL     1       1.423   8.091  20.293  0.00  0.00    +0.000 A 
ATOM     24  C   UNL     1       1.845   8.244  18.958  0.00  0.00    +0.000 A 
ATOM     25  C   UNL     1       1.735   9.473  18.315  0.00  0.00    +0.000 A 
ATOM     26  F   UNL     1       2.161   9.593  17.050  0.00  0.00    +0.000 F 
ATOM     27  C   UNL     1       1.199  10.575  18.964  0.00  0.00    +0.000 A 
ATOM     28  C   UNL     1       0.726  10.432  20.266  0.00  0.00    +0.000 A 
ATOM     29  C   UNL     1       0.823   9.197  20.923  0.00  0.00    +0.000 A 
ATOM     30 CL   UNL     1       0.134   9.099  22.503  0.00  0.00    +0.000 Cl
ENDBRANCH  22  23
ENDBRANCH   9  22
TORSDOF 8
ENDMDL
MODEL 2
REMARK VINA RESULT:      -7.5      4.230      7.544
REMARK  Name = 
REMARK  9 active torsions:
REMARK  status: ('A' for Active; 'I' for Inactive)
REMARK    1  A    between atoms: C_1  and  O_2
REMARK    2  A    between atoms: O_2  and  C_3
REMARK    3  A    between atoms: C_9  and  C_10
REMARK    4  A    between atoms: C_10  and  C_12
REMARK    5  A    between atoms: C_13  and  O_14
REMARK    6  A    between atoms: C_13  and  C_15
REMARK    7  A    between atoms: C_15  and  O_17
REMARK    8  A    between atoms: N_19  and  C_20
REMARK    9  A    between atoms: C_20  and  C_21
REMARK                            x       y       z     vdW  Elec       q    Type
REMARK                         _______ _______ _______ _____ _____    ______ ____
ROOT
ATOM      1  C   UNL     1       2.745   6.064  18.328  0.00  0.00    +0.000 A 
ATOM      2  C   UNL     1       2.884   7.451  18.175  0.00  0.00    +0.000 A 
ATOM      3  C   UNL     1       3.827   7.985  17.308  0.00  0.00    +0.000 A 
ATOM      4  C   UNL     1       4.706   7.157  16.614  0.00  0.00    +0.000 A 
ATOM      5  C   UNL     1       4.616   5.770  16.807  0.00  0.00    +0.000 A 
ATOM      6  C   UNL     1       3.623   5.197  17.619  0.00  0.00    +0.000 A 
ATOM      7  C   UNL     1       3.761   3.764  17.521  0.00  0.00    +0.000 A 
ATOM      8  C   UNL     1       4.892   3.534  16.756  0.00  0.00    +0.000 A 
ATOM      9  N   UNL     1       5.399   4.735  16.326  0.00  0.00    +0.000 N 
ENDROOT
BRANCH   1  11
ATOM     10  C   UNL     1       1.707   6.185  20.455  0.00  0.00    +0.000 C 
ATOM     11  O   UNL     1       1.846   5.510  19.208  0.00  0.00    +0.000 OA
ENDBRANCH   1  11
BRANCH   7  12
ATOM     12  C   UNL     1       2.866   2.749  18.065  0.00  0.00    +0.000 C 
ATOM     13  O   UNL     1       2.103   2.063  17.384  0.00  0.00    +0.000 OA
BRANCH  12  14
ATOM     14  C   UNL     1       2.915   2.529  19.532  0.00  0.00    +0.000 C 
ATOM     15  C   UNL     1       1.785   2.585  20.259  0.00  0.00    +0.000 C 
BRANCH  15  16
ATOM     16  O   UNL     1       0.519   2.850  19.747  0.00  0.00    +0.000 OA
ATOM     17  H   UNL     1       0.309   3.791  19.960  0.00  0.00    +0.000 HD
ENDBRANCH  15  16
BRANCH  15  18
ATOM     18  C   UNL     1       1.874   2.344  21.730  0.00  0.00    +0.000 C 
ATOM     19  O   UNL     1       0.933   2.304  22.501  0.00  0.00    +0.000 OA
BRANCH  18  20
ATOM     20  O   UNL     1       3.170   2.177  22.084  0.00  0.00    +0.000 OA
ATOM     21  H   UNL     1       3.246   2.260  23.060  0.00  0.00    +0.000 HD
ENDBRANCH  18  20
ENDBRANCH  15  18
ENDBRANCH  12  14
ENDBRANCH   7  12
BRANCH   9  22
ATOM     22  C   UNL     1       6.652   4.881  15.578  0.00  0.00    +0.000 C 
BRANCH  22  23
ATOM     23  C   UNL     1       6.489   4.546  14.116  0.00  0.00    +0.000 A 
ATOM     24  C   UNL     1       5.321   3.883  13.691  0.00  0.00    +0.000 A 
ATOM     25  C   UNL     1       5.180   3.467  12.371  0.00  0.00    +0.000 A 
ATOM     26  F   UNL     1       4.065   2.823  12.001  0.00  0.00    +0.000 F 
ATOM     27  C   UNL     1       6.178   3.701  11.438  0.00  0.00    +0.000 A 
ATOM     28  C   UNL     1       7.318   4.402  11.823  0.00  0.00    +0.000 A 
ATOM     29  C   UNL     1       7.468   4.835  13.147  0.00  0.00    +0.000 A 
ATOM     30 CL   UNL     1       8.877   5.767  13.507  0.00  0.00    +0.000 Cl
ENDBRANCH  22  23
ENDBRANCH   9  22
TORSDOF 8
ENDMDL
MODEL 3
REMARK VINA RESULT:      -7.4      3.355      6.452
REMARK  Name = 
REMARK  9 active torsions:
REMARK  status: ('A' for Active; 'I' for Inactive)
REMARK    1  A    between atoms: C_1  and  O_2
REMARK    2  A    between atoms: O_2  and  C_3
REMARK    3  A    between atoms: C_9  and  C_10
REMARK    4  A    between atoms: C_10  and  C_12
REMARK    5  A    between atoms: C_13  and  O_14
REMARK    6  A    between atoms: C_13  and  C_15
REMARK    7  A    between atoms: C_15  and  O_17
REMARK    8  A    between atoms: N_19  and  C_20
REMARK    9  A    between atoms: C_20  and  C_21
REMARK                            x       y       z     vdW  Elec       q    Type
REMARK                         _______ _______ _______ _____ _____    ______ ____
ROOT
ATOM      1  C   UNL     1       1.363   8.195  19.998  0.00  0.00    +0.000 A 
ATOM      2  C   UNL     1       1.048   9.512  19.632  0.00  0.00    +0.000 A 
ATOM      3  C   UNL     1       1.555  10.071  18.467  0.00  0.00    +0.000 A 
ATOM      4  C   UNL     1       2.444   9.360  17.662  0.00  0.00    +0.000 A 
ATOM      5  C   UNL     1       2.813   8.064  18.054  0.00  0.00    +0.000 A 
ATOM      6  C   UNL     1       2.259   7.444  19.186  0.00  0.00    +0.000 A 
ATOM      7  C   UNL     1       2.782   6.101  19.240  0.00  0.00    +0.000 A 
ATOM      8  C   UNL     1       3.711   6.004  18.219  0.00  0.00    +0.000 A 
ATOM      9  N   UNL     1       3.725   7.178  17.506  0.00  0.00    +0.000 N 
ENDROOT
BRANCH   1  11
ATOM     10  C   UNL     1      -0.209   8.278  21.770  0.00  0.00    +0.000 C 
ATOM     11  O   UNL     1       0.906   7.630  21.165  0.00  0.00    +0.000 OA
ENDBRANCH   1  11
BRANCH   7  12
ATOM     12  C   UNL     1       2.383   5.032  20.148  0.00  0.00    +0.000 C 
ATOM     13  O   UNL     1       1.265   4.938  20.657  0.00  0.00    +0.000 OA
BRANCH  12  14
ATOM     14  C   UNL     1       3.396   3.987  20.441  0.00  0.00    +0.000 C 
ATOM     15  C   UNL     1       3.380   2.825  19.765  0.00  0.00    +0.000 C 
BRANCH  15  16
ATOM     16  O   UNL     1       2.458   2.489  18.779  0.00  0.00    +0.000 OA
ATOM     17  H   UNL     1       1.564   2.731  19.119  0.00  0.00    +0.000 HD
ENDBRANCH  15  16
BRANCH  15  18
ATOM     18  C   UNL     1       4.423   1.805  20.080  0.00  0.00    +0.000 C 
ATOM     19  O   UNL     1       5.095   1.768  21.095  0.00  0.00    +0.000 OA
BRANCH  18  20
ATOM     20  O   UNL     1       4.515   0.920  19.061  0.00  0.00    +0.000 OA
ATOM     21  H   UNL     1       4.327   0.019  19.403  0.00  0.00    +0.000 HD
ENDBRANCH  18  20
ENDBRANCH  15  18
ENDBRANCH  12  14
ENDBRANCH   7  12
BRANCH   9  22
ATOM     22  C   UNL     1       4.661   7.470  16.416  0.00  0.00    +0.000 C 
BRANCH  22  23
ATOM     23  C   UNL     1       5.501   6.273  16.044  0.00  0.00    +0.000 A 
ATOM     24  C   UNL     1       5.133   5.501  14.926  0.00  0.00    +0.000 A 
ATOM     25  C   UNL     1       5.821   4.333  14.611  0.00  0.00    +0.000 A 
ATOM     26  F   UNL     1       5.437   3.610  13.551  0.00  0.00    +0.000 F 
ATOM     27  C   UNL     1       6.890   3.904  15.382  0.00  0.00    +0.000 A 
ATOM     28  C   UNL     1       7.304   4.680  16.461  0.00  0.00    +0.000 A 
ATOM     29  C   UNL     1       6.626   5.864  16.783  0.00  0.00    +0.000 A 
ATOM     30 CL   UNL     1       7.266   6.799  18.086  0.00  0.00    +0.000 Cl
ENDBRANCH  22  23
ENDBRANCH   9  22
TORSDOF 8
ENDMDL
MODEL 4
REMARK VINA RESULT:      -7.3      8.275     11.702
REMARK  Name = 
REMARK  9 active torsions:
REMARK  status: ('A' for Active; 'I' for Inactive)
REMARK    1  A    between atoms: C_1  and  O_2
REMARK    2  A    between atoms: O_2  and  C_3
REMARK    3  A    between atoms: C_9  and  C_10
REMARK    4  A    between atoms: C_10  and  C_12
REMARK    5  A    between atoms: C_13  and  O_14
REMARK    6  A    between atoms: C_13  and  C_15
REMARK    7  A    between atoms: C_15  and  O_17
REMARK    8  A    between atoms: N_19  and  C_20
REMARK    9  A    between atoms: C_20  and  C_21
REMARK                            x       y       z     vdW  Elec       q    Type
REMARK                         _______ _______ _______ _____ _____    ______ ____
ROOT
ATOM      1  C   UNL     1      -4.783  11.734  18.064  0.00  0.00    +0.000 A 
ATOM      2  C   UNL     1      -4.281  10.839  17.108  0.00  0.00    +0.000 A 
ATOM      3  C   UNL     1      -2.986  10.346  17.199  0.00  0.00    +0.000 A 
ATOM      4  C   UNL     1      -2.128  10.779  18.208  0.00  0.00    +0.000 A 
ATOM      5  C   UNL     1      -2.602  11.722  19.133  0.00  0.00    +0.000 A 
ATOM      6  C   UNL     1      -3.930  12.181  19.111  0.00  0.00    +0.000 A 
ATOM      7  C   UNL     1      -4.101  13.058  20.243  0.00  0.00    +0.000 A 
ATOM      8  C   UNL     1      -2.852  13.186  20.828  0.00  0.00    +0.000 A 
ATOM      9  N   UNL     1      -1.958  12.382  20.166  0.00  0.00    +0.000 N 
ENDROOT
BRANCH   1  11
ATOM     10  C   UNL     1      -7.108  11.410  18.388  0.00  0.00    +0.000 C 
ATOM     11  O   UNL     1      -6.047  12.266  17.975  0.00  0.00    +0.000 OA
ENDBRANCH   1  11
BRANCH   7  12
ATOM     12  C   UNL     1      -5.343  13.655  20.721  0.00  0.00    +0.000 C 
ATOM     13  O   UNL     1      -5.791  14.730  20.321  0.00  0.00    +0.000 OA
BRANCH  12  14
ATOM     14  C   UNL     1      -6.110  12.889  21.733  0.00  0.00    +0.000 C 
ATOM     15  C   UNL     1      -6.425  13.456  22.912  0.00  0.00    +0.000 C 
BRANCH  15  16
ATOM     16  O   UNL     1      -6.077  14.748  23.293  0.00  0.00    +0.000 OA
ATOM     17  H   UNL     1      -5.098  14.762  23.416  0.00  0.00    +0.000 HD
ENDBRANCH  15  16
BRANCH  15  18
ATOM     18  C   UNL     1      -7.210  12.657  23.898  0.00  0.00    +0.000 C 
ATOM     19  O   UNL     1      -7.276  11.441  23.934  0.00  0.00    +0.000 OA
BRANCH  18  20
ATOM     20  O   UNL     1      -7.845  13.490  24.755  0.00  0.00    +0.000 OA
ATOM     21  H   UNL     1      -7.501  13.337  25.662  0.00  0.00    +0.000 HD
ENDBRANCH  18  20
ENDBRANCH  15  18
ENDBRANCH  12  14
ENDBRANCH   7  12
BRANCH   9  22
ATOM     22  C   UNL     1      -0.520  12.341  20.448  0.00  0.00    +0.000 C 
BRANCH  22  23
ATOM     23  C   UNL     1      -0.054  10.965  20.857  0.00  0.00    +0.000 A 
ATOM     24  C   UNL     1       0.817  10.258  20.007  0.00  0.00    +0.000 A 
ATOM     25  C   UNL     1       1.187   8.948  20.298  0.00  0.00    +0.000 A 
ATOM     26  F   UNL     1       2.003   8.294  19.462  0.00  0.00    +0.000 F 
ATOM     27  C   UNL     1       0.718   8.310  21.436  0.00  0.00    +0.000 A 
ATOM     28  C   UNL     1      -0.102   9.009  22.318  0.00  0.00    +0.000 A 
ATOM     29  C   UNL     1      -0.475  10.331  22.040  0.00  0.00    +0.000 A 
ATOM     30 CL   UNL     1      -1.424  11.141  23.235  0.00  0.00    +0.000 Cl
ENDBRANCH  22  23
ENDBRANCH   9  22
TORSDOF 8
ENDMDL
MODEL 5
REMARK VINA RESULT:      -7.3      1.456      1.961
REMARK  Name = 
REMARK  9 active torsions:
REMARK  status: ('A' for Active; 'I' for Inactive)
REMARK    1  A    between atoms: C_1  and  O_2
REMARK    2  A    between atoms: O_2  and  C_3
REMARK    3  A    between atoms: C_9  and  C_10
REMARK    4  A    between atoms: C_10  and  C_12
REMARK    5  A    between atoms: C_13  and  O_14
REMARK    6  A    between atoms: C_13  and  C_15
REMARK    7  A    between atoms: C_15  and  O_17
REMARK    8  A    between atoms: N_19  and  C_20
REMARK    9  A    between atoms: C_20  and  C_21
REMARK                            x       y       z     vdW  Elec       q    Type
REMARK                         _______ _______ _______ _____ _____    ______ ____
ROOT
ATOM      1  C   UNL     1       2.618   2.922  18.654  0.00  0.00    +0.000 A 
ATOM      2  C   UNL     1       1.651   2.158  19.323  0.00  0.00    +0.000 A 
ATOM      3  C   UNL     1       0.741   2.752  20.187  0.00  0.00    +0.000 A 
ATOM      4  C   UNL     1       0.805   4.116  20.463  0.00  0.00    +0.000 A 
ATOM      5  C   UNL     1       1.809   4.878  19.845  0.00  0.00    +0.000 A 
ATOM      6  C   UNL     1       2.695   4.320  18.909  0.00  0.00    +0.000 A 
ATOM      7  C   UNL     1       3.523   5.390  18.409  0.00  0.00    +0.000 A 
ATOM      8  C   UNL     1       3.188   6.516  19.141  0.00  0.00    +0.000 A 
ATOM      9  N   UNL     1       2.158   6.210  19.996  0.00  0.00    +0.000 N 
ENDROOT
BRANCH   1  11
ATOM     10  C   UNL     1       4.057   1.087  18.236  0.00  0.00    +0.000 C 
ATOM     11  O   UNL     1       3.554   2.354  17.824  0.00  0.00    +0.000 OA
ENDBRANCH   1  11
BRANCH   7  12
ATOM     12  C   UNL     1       4.487   5.328  17.316  0.00  0.00    +0.000 C 
ATOM     13  O   UNL     1       4.440   4.506  16.400  0.00  0.00    +0.000 OA
BRANCH  12  14
ATOM     14  C   UNL     1       5.567   6.345  17.314  0.00  0.00    +0.000 C 
ATOM     15  C   UNL     1       6.696   6.130  18.013  0.00  0.00    +0.000 C 
BRANCH  15  16
ATOM     16  O   UNL     1       6.956   4.998  18.780  0.00  0.00    +0.000 OA
ATOM     17  H   UNL     1       6.873   4.217  18.183  0.00  0.00    +0.000 HD
ENDBRANCH  15  16
BRANCH  15  18
ATOM     18  C   UNL     1       7.764   7.171  17.975  0.00  0.00    +0.000 C 
ATOM     19  O   UNL     1       7.922   7.994  17.091  0.00  0.00    +0.000 OA
BRANCH  18  20
ATOM     20  O   UNL     1       8.541   7.066  19.078  0.00  0.00    +0.000 OA
ATOM     21  H   UNL     1       8.213   7.691  19.761  0.00  0.00    +0.000 HD
ENDBRANCH  18  20
ENDBRANCH  15  18
ENDBRANCH  12  14
ENDBRANCH   7  12
BRANCH   9  22
ATOM     22  C   UNL     1       1.614   7.133  20.997  0.00  0.00    +0.000 C 
BRANCH  22  23
ATOM     23  C   UNL     1       1.254   8.474  20.405  0.00  0.00    +0.000 A 
ATOM     24  C   UNL     1       1.650   8.766  19.085  0.00  0.00    +0.000 A 
ATOM     25  C   UNL     1       1.428  10.028  18.540  0.00  0.00    +0.000 A 
ATOM     26  F   UNL     1       1.831  10.282  17.288  0.00  0.00    +0.000 F 
ATOM     27  C   UNL     1       0.804  11.024  19.275  0.00  0.00    +0.000 A 
ATOM     28  C   UNL     1       0.357  10.739  20.562  0.00  0.00    +0.000 A 
ATOM     29  C   UNL     1       0.566   9.470  21.120  0.00  0.00    +0.000 A 
ATOM     30 CL   UNL     1      -0.098   9.190  22.689  0.00  0.00    +0.000 Cl
ENDBRANCH  22  23
ENDBRANCH   9  22
TORSDOF 8
ENDMDL
MODEL 6
REMARK VINA RESULT:      -7.3      5.853      8.904
REMARK  Name = 
REMARK  9 active torsions:
REMARK  status: ('A' for Active; 'I' for Inactive)
REMARK    1  A    between atoms: C_1  and  O_2
REMARK    2  A    between atoms: O_2  and  C_3
REMARK    3  A    between atoms: C_9  and  C_10
REMARK    4  A    between atoms: C_10  and  C_12
REMARK    5  A    between atoms: C_13  and  O_14
REMARK    6  A    between atoms: C_13  and  C_15
REMARK    7  A    between atoms: C_15  and  O_17
REMARK    8  A    between atoms: N_19  and  C_20
REMARK    9  A    between atoms: C_20  and  C_21
REMARK                            x       y       z     vdW  Elec       q    Type
REMARK                         _______ _______ _______ _____ _____    ______ ____
ROOT
ATOM      1  C   UNL     1      -1.688  12.249  19.596  0.00  0.00    +0.000 A 
ATOM      2  C   UNL     1      -0.955  13.146  20.386  0.00  0.00    +0.000 A 
ATOM      3  C   UNL     1       0.431  13.085  20.440  0.00  0.00    +0.000 A 
ATOM      4  C   UNL     1       1.127  12.088  19.759  0.00  0.00    +0.000 A 
ATOM      5  C   UNL     1       0.397  11.148  19.016  0.00  0.00    +0.000 A 
ATOM      6  C   UNL     1      -0.999  11.230  18.882  0.00  0.00    +0.000 A 
ATOM      7  C   UNL     1      -1.407  10.176  17.985  0.00  0.00    +0.000 A 
ATOM      8  C   UNL     1      -0.270   9.435  17.711  0.00  0.00    +0.000 A 
ATOM      9  N   UNL     1       0.810  10.021  18.324  0.00  0.00    +0.000 N 
ENDROOT
BRANCH   1  11
ATOM     10  C   UNL     1      -3.702  13.039  20.565  0.00  0.00    +0.000 C 
ATOM     11  O   UNL     1      -3.062  12.264  19.556  0.00  0.00    +0.000 OA
ENDBRANCH   1  11
BRANCH   7  12
ATOM     12  C   UNL     1      -2.737   9.954  17.428  0.00  0.00    +0.000 C 
ATOM     13  O   UNL     1      -3.785  10.117  18.054  0.00  0.00    +0.000 OA
BRANCH  12  14
ATOM     14  C   UNL     1      -2.807   9.531  16.007  0.00  0.00    +0.000 C 
ATOM     15  C   UNL     1      -3.256  10.386  15.072  0.00  0.00    +0.000 C 
BRANCH  15  16
ATOM     16  O   UNL     1      -3.688  11.685  15.320  0.00  0.00    +0.000 OA
ATOM     17  H   UNL     1      -3.205  12.006  16.118  0.00  0.00    +0.000 HD
ENDBRANCH  15  16
BRANCH  15  18
ATOM     18  C   UNL     1      -3.299   9.928  13.652  0.00  0.00    +0.000 C 
ATOM     19  O   UNL     1      -2.335   9.612  12.979  0.00  0.00    +0.000 OA
BRANCH  18  20
ATOM     20  O   UNL     1      -4.581   9.916  13.217  0.00  0.00    +0.000 OA
ATOM     21  H   UNL     1      -4.590  10.078  12.249  0.00  0.00    +0.000 HD
ENDBRANCH  18  20
ENDBRANCH  15  18
ENDBRANCH  12  14
ENDBRANCH   7  12
BRANCH   9  22
ATOM     22  C   UNL     1       2.161   9.452  18.335  0.00  0.00    +0.000 C 
BRANCH  22  23
ATOM     23  C   UNL     1       2.175   8.017  18.802  0.00  0.00    +0.000 A 
ATOM     24  C   UNL     1       2.511   7.003  17.884  0.00  0.00    +0.000 A 
ATOM     25  C   UNL     1       2.436   5.662  18.247  0.00  0.00    +0.000 A 
ATOM     26  F   UNL     1       2.745   4.720  17.347  0.00  0.00    +0.000 F 
ATOM     27  C   UNL     1       2.039   5.288  19.522  0.00  0.00    +0.000 A 
ATOM     28  C   UNL     1       1.754   6.276  20.462  0.00  0.00    +0.000 A 
ATOM     29  C   UNL     1       1.835   7.631  20.111  0.00  0.00    +0.000 A 
ATOM     30 CL   UNL     1       1.544   8.779  21.367  0.00  0.00    +0.000 Cl
ENDBRANCH  22  23
ENDBRANCH   9  22
TORSDOF 8
ENDMDL
MODEL 7
REMARK VINA RESULT:      -7.2      1.620      2.218
REMARK  Name = 
REMARK  9 active torsions:
REMARK  status: ('A' for Active; 'I' for Inactive)
REMARK    1  A    between atoms: C_1  and  O_2
REMARK    2  A    between atoms: O_2  and  C_3
REMARK    3  A    between atoms: C_9  and  C_10
REMARK    4  A    between atoms: C_10  and  C_12
REMARK    5  A    between atoms: C_13  and  O_14
REMARK    6  A    between atoms: C_13  and  C_15
REMARK    7  A    between atoms: C_15  and  O_17
REMARK    8  A    between atoms: N_19  and  C_20
REMARK    9  A    between atoms: C_20  and  C_21
REMARK                            x       y       z     vdW  Elec       q    Type
REMARK                         _______ _______ _______ _____ _____    ______ ____
ROOT
ATOM      1  C   UNL     1       2.710   3.269  18.700  0.00  0.00    +0.000 A 
ATOM      2  C   UNL     1       1.729   2.433  19.254  0.00  0.00    +0.000 A 
ATOM      3  C   UNL     1       0.730   2.945  20.071  0.00  0.00    +0.000 A 
ATOM      4  C   UNL     1       0.714   4.295  20.416  0.00  0.00    +0.000 A 
ATOM      5  C   UNL     1       1.728   5.128  19.916  0.00  0.00    +0.000 A 
ATOM      6  C   UNL     1       2.707   4.654  19.028  0.00  0.00    +0.000 A 
ATOM      7  C   UNL     1       3.523   5.781  18.646  0.00  0.00    +0.000 A 
ATOM      8  C   UNL     1       3.083   6.853  19.403  0.00  0.00    +0.000 A 
ATOM      9  N   UNL     1       2.005   6.463  20.158  0.00  0.00    +0.000 N 
ENDROOT
BRANCH   1  11
ATOM     10  C   UNL     1       4.021   1.396  18.076  0.00  0.00    +0.000 C 
ATOM     11  O   UNL     1       3.732   2.782  17.920  0.00  0.00    +0.000 OA
ENDBRANCH   1  11
BRANCH   7  12
ATOM     12  C   UNL     1       4.569   5.812  17.630  0.00  0.00    +0.000 C 
ATOM     13  O   UNL     1       4.378   5.590  16.434  0.00  0.00    +0.000 OA
BRANCH  12  14
ATOM     14  C   UNL     1       5.937   6.164  18.086  0.00  0.00    +0.000 C 
ATOM     15  C   UNL     1       6.602   5.341  18.917  0.00  0.00    +0.000 C 
BRANCH  15  16
ATOM     16  O   UNL     1       6.105   4.143  19.419  0.00  0.00    +0.000 OA
ATOM     17  H   UNL     1       6.881   3.585  19.663  0.00  0.00    +0.000 HD
ENDBRANCH  15  16
BRANCH  15  18
ATOM     18  C   UNL     1       7.980   5.724  19.341  0.00  0.00    +0.000 C 
ATOM     19  O   UNL     1       8.720   5.053  20.038  0.00  0.00    +0.000 OA
BRANCH  18  20
ATOM     20  O   UNL     1       8.290   6.940  18.835  0.00  0.00    +0.000 OA
ATOM     21  H   UNL     1       8.871   7.412  19.472  0.00  0.00    +0.000 HD
ENDBRANCH  18  20
ENDBRANCH  15  18
ENDBRANCH  12  14
ENDBRANCH   7  12
BRANCH   9  22
ATOM     22  C   UNL     1       1.346   7.311  21.155  0.00  0.00    +0.000 C 
BRANCH  22  23
ATOM     23  C   UNL     1       1.036   8.688  20.622  0.00  0.00    +0.000 A 
ATOM     24  C   UNL     1       1.358   8.993  19.286  0.00  0.00    +0.000 A 
ATOM     25  C   UNL     1       1.183  10.280  18.788  0.00  0.00    +0.000 A 
ATOM     26  F   UNL     1       1.514  10.544  17.517  0.00  0.00    +0.000 F 
ATOM     27  C   UNL     1       0.679  11.293  19.588  0.00  0.00    +0.000 A 
ATOM     28  C   UNL     1       0.304  11.002  20.897  0.00  0.00    +0.000 A 
ATOM     29  C   UNL     1       0.467   9.707  21.408  0.00  0.00    +0.000 A 
ATOM     30 CL   UNL     1      -0.104   9.425  23.013  0.00  0.00    +0.000 Cl
ENDBRANCH  22  23
ENDBRANCH   9  22
TORSDOF 8
ENDMDL
MODEL 8
REMARK VINA RESULT:      -7.2      3.175      6.405
REMARK  Name = 
REMARK  9 active torsions:
REMARK  status: ('A' for Active; 'I' for Inactive)
REMARK    1  A    between atoms: C_1  and  O_2
REMARK    2  A    between atoms: O_2  and  C_3
REMARK    3  A    between atoms: C_9  and  C_10
REMARK    4  A    between atoms: C_10  and  C_12
REMARK    5  A    between atoms: C_13  and  O_14
REMARK    6  A    between atoms: C_13  and  C_15
REMARK    7  A    between atoms: C_15  and  O_17
REMARK    8  A    between atoms: N_19  and  C_20
REMARK    9  A    between atoms: C_20  and  C_21
REMARK                            x       y       z     vdW  Elec       q    Type
REMARK                         _______ _______ _______ _____ _____    ______ ____
ROOT
ATOM      1  C   UNL     1       1.246   8.273  19.945  0.00  0.00    +0.000 A 
ATOM      2  C   UNL     1       0.934   9.587  19.563  0.00  0.00    +0.000 A 
ATOM      3  C   UNL     1       1.510  10.161  18.439  0.00  0.00    +0.000 A 
ATOM      4  C   UNL     1       2.464   9.471  17.695  0.00  0.00    +0.000 A 
ATOM      5  C   UNL     1       2.829   8.179  18.105  0.00  0.00    +0.000 A 
ATOM      6  C   UNL     1       2.209   7.544  19.194  0.00  0.00    +0.000 A 
ATOM      7  C   UNL     1       2.751   6.209  19.278  0.00  0.00    +0.000 A 
ATOM      8  C   UNL     1       3.751   6.134  18.323  0.00  0.00    +0.000 A 
ATOM      9  N   UNL     1       3.793   7.312  17.618  0.00  0.00    +0.000 N 
ENDROOT
BRANCH   1  11
ATOM     10  C   UNL     1      -0.248   8.472  21.774  0.00  0.00    +0.000 C 
ATOM     11  O   UNL     1       0.720   7.695  21.075  0.00  0.00    +0.000 OA
ENDBRANCH   1  11
BRANCH   7  12
ATOM     12  C   UNL     1       2.310   5.128  20.152  0.00  0.00    +0.000 C 
ATOM     13  O   UNL     1       2.070   5.264  21.352  0.00  0.00    +0.000 OA
BRANCH  12  14
ATOM     14  C   UNL     1       2.120   3.796  19.527  0.00  0.00    +0.000 C 
ATOM     15  C   UNL     1       3.150   2.935  19.449  0.00  0.00    +0.000 C 
BRANCH  15  16
ATOM     16  O   UNL     1       4.438   3.188  19.912  0.00  0.00    +0.000 OA
ATOM     17  H   UNL     1       5.025   3.251  19.121  0.00  0.00    +0.000 HD
ENDBRANCH  15  16
BRANCH  15  18
ATOM     18  C   UNL     1       2.915   1.599  18.826  0.00  0.00    +0.000 C 
ATOM     19  O   UNL     1       3.777   0.854  18.397  0.00  0.00    +0.000 OA
BRANCH  18  20
ATOM     20  O   UNL     1       1.588   1.335  18.806  0.00  0.00    +0.000 OA
ATOM     21  H   UNL     1       1.144   1.976  18.209  0.00  0.00    +0.000 HD
ENDBRANCH  18  20
ENDBRANCH  15  18
ENDBRANCH  12  14
ENDBRANCH   7  12
BRANCH   9  22
ATOM     22  C   UNL     1       4.796   7.627  16.597  0.00  0.00    +0.000 C 
BRANCH  22  23
ATOM     23  C   UNL     1       5.554   6.405  16.141  0.00  0.00    +0.000 A 
ATOM     24  C   UNL     1       5.091   5.692  15.019  0.00  0.00    +0.000 A 
ATOM     25  C   UNL     1       5.702   4.503  14.630  0.00  0.00    +0.000 A 
ATOM     26  F   UNL     1       5.229   3.838  13.568  0.00  0.00    +0.000 F 
ATOM     27  C   UNL     1       6.787   3.996  15.329  0.00  0.00    +0.000 A 
ATOM     28  C   UNL     1       7.295   4.712  16.409  0.00  0.00    +0.000 A 
ATOM     29  C   UNL     1       6.694   5.915  16.806  0.00  0.00    +0.000 A 
ATOM     30 CL   UNL     1       7.446   6.771  18.103  0.00  0.00    +0.000 Cl
ENDBRANCH  22  23
ENDBRANCH   9  22
TORSDOF 8
ENDMDL
MODEL 9
REMARK VINA RESULT:      -7.1      7.923     11.352
REMARK  Name = 
REMARK  9 active torsions:
REMARK  status: ('A' for Active; 'I' for Inactive)
REMARK    1  A    between atoms: C_1  and  O_2
REMARK    2  A    between atoms: O_2  and  C_3
REMARK    3  A    between atoms: C_9  and  C_10
REMARK    4  A    between atoms: C_10  and  C_12
REMARK    5  A    between atoms: C_13  and  O_14
REMARK    6  A    between atoms: C_13  and  C_15
REMARK    7  A    between atoms: C_15  and  O_17
REMARK    8  A    between atoms: N_19  and  C_20
REMARK    9  A    between atoms: C_20  and  C_21
REMARK                            x       y       z     vdW  Elec       q    Type
REMARK                         _______ _______ _______ _____ _____    ______ ____
ROOT
ATOM      1  C   UNL     1      -4.764  11.450  18.330  0.00  0.00    +0.000 A 
ATOM      2  C   UNL     1      -4.479  10.399  17.446  0.00  0.00    +0.000 A 
ATOM      3  C   UNL     1      -3.213   9.831  17.393  0.00  0.00    +0.000 A 
ATOM      4  C   UNL     1      -2.173  10.335  18.172  0.00  0.00    +0.000 A 
ATOM      5  C   UNL     1      -2.434  11.427  19.014  0.00  0.00    +0.000 A 
ATOM      6  C   UNL     1      -3.722  11.973  19.144  0.00  0.00    +0.000 A 
ATOM      7  C   UNL     1      -3.651  13.007  20.148  0.00  0.00    +0.000 A 
ATOM      8  C   UNL     1      -2.316  13.123  20.494  0.00  0.00    +0.000 A 
ATOM      9  N   UNL     1      -1.589  12.173  19.819  0.00  0.00    +0.000 N 
ENDROOT
BRANCH   1  11
ATOM     10  C   UNL     1      -6.350  12.825  17.228  0.00  0.00    +0.000 C 
ATOM     11  O   UNL     1      -5.998  12.055  18.374  0.00  0.00    +0.000 OA
ENDBRANCH   1  11
BRANCH   7  12
ATOM     12  C   UNL     1      -4.761  13.752  20.732  0.00  0.00    +0.000 C 
ATOM     13  O   UNL     1      -5.338  14.685  20.171  0.00  0.00    +0.000 OA
BRANCH  12  14
ATOM     14  C   UNL     1      -5.225  13.323  22.074  0.00  0.00    +0.000 C 
ATOM     15  C   UNL     1      -6.399  12.680  22.208  0.00  0.00    +0.000 C 
BRANCH  15  16
ATOM     16  O   UNL     1      -7.262  12.371  21.162  0.00  0.00    +0.000 OA
ATOM     17  H   UNL     1      -8.167  12.647  21.439  0.00  0.00    +0.000 HD
ENDBRANCH  15  16
BRANCH  15  18
ATOM     18  C   UNL     1      -6.824  12.254  23.574  0.00  0.00    +0.000 C 
ATOM     19  O   UNL     1      -7.662  11.407  23.824  0.00  0.00    +0.000 OA
BRANCH  18  20
ATOM     20  O   UNL     1      -6.134  12.955  24.503  0.00  0.00    +0.000 OA
ATOM     21  H   UNL     1      -5.687  13.712  24.065  0.00  0.00    +0.000 HD
ENDBRANCH  18  20
ENDBRANCH  15  18
ENDBRANCH  12  14
ENDBRANCH   7  12
BRANCH   9  22
ATOM     22  C   UNL     1      -0.128  12.068  19.862  0.00  0.00    +0.000 C 
BRANCH  22  23
ATOM     23  C   UNL     1       0.336  10.731  20.386  0.00  0.00    +0.000 A 
ATOM     24  C   UNL     1       1.100   9.896  19.548  0.00  0.00    +0.000 A 
ATOM     25  C   UNL     1       1.458   8.615  19.957  0.00  0.00    +0.000 A 
ATOM     26  F   UNL     1       2.171   7.837  19.131  0.00  0.00    +0.000 F 
ATOM     27  C   UNL     1       1.083   8.131  21.200  0.00  0.00    +0.000 A 
ATOM     28  C   UNL     1       0.373   8.959  22.066  0.00  0.00    +0.000 A 
ATOM     29  C   UNL     1       0.013  10.254  21.670  0.00  0.00    +0.000 A 
ATOM     30 CL   UNL     1      -0.792  11.232  22.843  0.00  0.00    +0.000 Cl
ENDBRANCH  22  23
ENDBRANCH   9  22
TORSDOF 8
ENDMDL
