MODEL 1
REMARK VINA RESULT:      -9.4      0.000      0.000
REMARK  Name = 
REMARK  5 active torsions:
REMARK  status: ('A' for Active; 'I' for Inactive)
REMARK    1  A    between atoms: C_1  and  C_2
REMARK    2  A    between atoms: C_2  and  C_3
REMARK    3  A    between atoms: C_5  and  C_6
REMARK    4  A    between atoms: C_13  and  C_14
REMARK    5  A    between atoms: C_20  and  C_22
REMARK                            x       y       z     vdW  Elec       q    Type
REMARK                         _______ _______ _______ _____ _____    ______ ____
ROOT
ATOM      1  C   UNL     1       7.021   5.860  17.028  0.00  0.00    +0.000 A 
ATOM      2  C   UNL     1       7.313   5.273  18.262  0.00  0.00    +0.000 A 
ATOM      3  C   UNL     1       7.946   6.034  19.222  0.00  0.00    +0.000 A 
ATOM      4  N   UNL     1       8.330   7.306  19.024  0.00  0.00    +0.000 NA
ATOM      5  C   UNL     1       8.060   7.887  17.845  0.00  0.00    +0.000 A 
ATOM      6  N   UNL     1       8.460   9.214  17.600  0.00  0.00    +0.000 N 
ATOM      7  C   UNL     1       9.037  10.026  18.557  0.00  0.00    +0.000 C 
ATOM      8  O   UNL     1       9.361   9.705  19.698  0.00  0.00    +0.000 OA
ATOM      9  C   UNL     1       7.382   7.205  16.840  0.00  0.00    +0.000 A 
ATOM     10  H   UNL     1       8.224   9.601  16.701  0.00  0.00    +0.000 HD
ENDROOT
BRANCH   7  11
ATOM     11  C   UNL     1       9.223  11.461  18.188  0.00  0.00    +0.000 A 
ATOM     12  C   UNL     1      10.506  11.853  17.779  0.00  0.00    +0.000 A 
ATOM     13  C   UNL     1      10.772  13.181  17.451  0.00  0.00    +0.000 A 
ATOM     14  C   UNL     1       9.752  14.126  17.519  0.00  0.00    +0.000 A 
ATOM     15  C   UNL     1       8.464  13.740  17.901  0.00  0.00    +0.000 A 
ATOM     16  C   UNL     1       8.195  12.408  18.234  0.00  0.00    +0.000 A 
ENDBRANCH   7  11
BRANCH   1  20
ATOM     17  C   UNL     1       5.969   3.929  13.824  0.00  0.00    +0.000 A 
ATOM     18  N   UNL     1       4.975   3.711  14.655  0.00  0.00    +0.000 NA
ATOM     19  C   UNL     1       5.180   4.394  15.846  0.00  0.00    +0.000 A 
ATOM     20  C   UNL     1       6.397   5.075  15.941  0.00  0.00    +0.000 A 
ATOM     21  S   UNL     1       7.248   4.876  14.447  0.00  0.00    +0.000 S 
BRANCH  19  22
ATOM     22  C   UNL     1       4.154   4.327  16.886  0.00  0.00    +0.000 A 
ATOM     23  C   UNL     1       3.594   5.518  17.382  0.00  0.00    +0.000 A 
ATOM     24  C   UNL     1       2.551   5.474  18.310  0.00  0.00    +0.000 A 
ATOM     25  C   UNL     1       2.057   4.247  18.733  0.00  0.00    +0.000 A 
ATOM     26  F   UNL     1       1.021   4.204  19.580  0.00  0.00    +0.000 F 
ATOM     27  C   UNL     1       2.619   3.060  18.284  0.00  0.00    +0.000 A 
ATOM     28  C   UNL     1       3.695   3.103  17.397  0.00  0.00    +0.000 A 
ENDBRANCH  19  22
BRANCH  17  30
ATOM     29  C   UNL     1       4.600   3.330  11.839  0.00  0.00    +0.000 C 
ATOM     30  C   UNL     1       6.005   3.431  12.413  0.00  0.00    +0.000 C 
ENDBRANCH  17  30
ENDBRANCH   1  20
TORSDOF 4
ENDMDL
MODEL 2
REMARK VINA RESULT:      -8.9      0.676      1.385
REMARK  Name = 
REMARK  5 active torsions:
REMARK  status: ('A' for Active; 'I' for Inactive)
REMARK    1  A    between atoms: C_1  and  C_2
REMARK    2  A    between atoms: C_2  and  C_3
REMARK    3  A    between atoms: C_5  and  C_6
REMARK    4  A    between atoms: C_13  and  C_14
REMARK    5  A    between atoms: C_20  and  C_22
REMARK                            x       y       z     vdW  Elec       q    Type
REMARK                         _______ _______ _______ _____ _____    ______ ____
ROOT
ATOM      1  C   UNL     1       7.048   6.018  17.146  0.00  0.00    +0.000 A 
ATOM      2  C   UNL     1       7.519   5.377  18.295  0.00  0.00    +0.000 A 
ATOM      3  C   UNL     1       8.217   6.118  19.225  0.00  0.00    +0.000 A 
ATOM      4  N   UNL     1       8.498   7.423  19.072  0.00  0.00    +0.000 NA
ATOM      5  C   UNL     1       8.056   8.055  17.975  0.00  0.00    +0.000 A 
ATOM      6  N   UNL     1       8.345   9.419  17.778  0.00  0.00    +0.000 N 
ATOM      7  C   UNL     1       8.984  10.207  18.715  0.00  0.00    +0.000 C 
ATOM      8  O   UNL     1       9.460   9.839  19.786  0.00  0.00    +0.000 OA
ATOM      9  C   UNL     1       7.304   7.393  17.010  0.00  0.00    +0.000 A 
ATOM     10  H   UNL     1       7.981   9.844  16.940  0.00  0.00    +0.000 HD
ENDROOT
BRANCH   7  11
ATOM     11  C   UNL     1       9.040  11.671  18.427  0.00  0.00    +0.000 A 
ATOM     12  C   UNL     1       8.023  12.201  17.620  0.00  0.00    +0.000 A 
ATOM     13  C   UNL     1       8.021  13.551  17.275  0.00  0.00    +0.000 A 
ATOM     14  C   UNL     1       9.032  14.385  17.746  0.00  0.00    +0.000 A 
ATOM     15  C   UNL     1      10.035  13.871  18.572  0.00  0.00    +0.000 A 
ATOM     16  C   UNL     1      10.041  12.516  18.918  0.00  0.00    +0.000 A 
ENDBRANCH   7  11
BRANCH   1  20
ATOM     17  C   UNL     1       5.804   4.073  14.020  0.00  0.00    +0.000 A 
ATOM     18  N   UNL     1       4.782   4.017  14.843  0.00  0.00    +0.000 NA
ATOM     19  C   UNL     1       5.055   4.729  16.004  0.00  0.00    +0.000 A 
ATOM     20  C   UNL     1       6.345   5.261  16.087  0.00  0.00    +0.000 A 
ATOM     21  S   UNL     1       7.182   4.887  14.619  0.00  0.00    +0.000 S 
BRANCH  19  22
ATOM     22  C   UNL     1       4.017   4.837  17.028  0.00  0.00    +0.000 A 
ATOM     23  C   UNL     1       3.253   3.705  17.361  0.00  0.00    +0.000 A 
ATOM     24  C   UNL     1       2.318   3.764  18.397  0.00  0.00    +0.000 A 
ATOM     25  C   UNL     1       2.153   4.944  19.109  0.00  0.00    +0.000 A 
ATOM     26  F   UNL     1       1.298   4.987  20.138  0.00  0.00    +0.000 F 
ATOM     27  C   UNL     1       2.871   6.085  18.773  0.00  0.00    +0.000 A 
ATOM     28  C   UNL     1       3.766   6.041  17.705  0.00  0.00    +0.000 A 
ENDBRANCH  19  22
BRANCH  17  30
ATOM     29  C   UNL     1       7.058   3.897  11.882  0.00  0.00    +0.000 C 
ATOM     30  C   UNL     1       5.796   3.505  12.635  0.00  0.00    +0.000 C 
ENDBRANCH  17  30
ENDBRANCH   1  20
TORSDOF 4
ENDMDL
MODEL 3
REMARK VINA RESULT:      -8.5      4.095      6.685
REMARK  Name = 
REMARK  5 active torsions:
REMARK  status: ('A' for Active; 'I' for Inactive)
REMARK    1  A    between atoms: C_1  and  C_2
REMARK    2  A    between atoms: C_2  and  C_3
REMARK    3  A    between atoms: C_5  and  C_6
REMARK    4  A    between atoms: C_13  and  C_14
REMARK    5  A    between atoms: C_20  and  C_22
REMARK                            x       y       z     vdW  Elec       q    Type
REMARK                         _______ _______ _______ _____ _____    ______ ____
ROOT
ATOM      1  C   UNL     1       4.379   4.920  17.479  0.00  0.00    +0.000 A 
ATOM      2  C   UNL     1       4.061   3.737  18.151  0.00  0.00    +0.000 A 
ATOM      3  C   UNL     1       3.197   3.799  19.223  0.00  0.00    +0.000 A 
ATOM      4  N   UNL     1       2.666   4.945  19.681  0.00  0.00    +0.000 NA
ATOM      5  C   UNL     1       2.960   6.091  19.050  0.00  0.00    +0.000 A 
ATOM      6  N   UNL     1       2.431   7.311  19.512  0.00  0.00    +0.000 N 
ATOM      7  C   UNL     1       1.514   7.404  20.541  0.00  0.00    +0.000 C 
ATOM      8  O   UNL     1       1.099   6.486  21.244  0.00  0.00    +0.000 OA
ATOM      9  C   UNL     1       3.786   6.111  17.931  0.00  0.00    +0.000 A 
ATOM     10  H   UNL     1       2.679   8.139  18.995  0.00  0.00    +0.000 HD
ENDROOT
BRANCH   7  11
ATOM     11  C   UNL     1       0.911   8.750  20.776  0.00  0.00    +0.000 A 
ATOM     12  C   UNL     1       0.478   9.036  22.078  0.00  0.00    +0.000 A 
ATOM     13  C   UNL     1      -0.127  10.256  22.374  0.00  0.00    +0.000 A 
ATOM     14  C   UNL     1      -0.291  11.206  21.369  0.00  0.00    +0.000 A 
ATOM     15  C   UNL     1       0.161  10.941  20.074  0.00  0.00    +0.000 A 
ATOM     16  C   UNL     1       0.766   9.716  19.773  0.00  0.00    +0.000 A 
ENDBRANCH   7  11
BRANCH   1  20
ATOM     17  C   UNL     1       6.478   4.481  14.238  0.00  0.00    +0.000 A 
ATOM     18  N   UNL     1       7.144   5.389  14.915  0.00  0.00    +0.000 NA
ATOM     19  C   UNL     1       6.540   5.617  16.144  0.00  0.00    +0.000 A 
ATOM     20  C   UNL     1       5.346   4.923  16.360  0.00  0.00    +0.000 A 
ATOM     21  S   UNL     1       5.045   3.920  14.981  0.00  0.00    +0.000 S 
BRANCH  19  22
ATOM     22  C   UNL     1       7.164   6.557  17.075  0.00  0.00    +0.000 A 
ATOM     23  C   UNL     1       7.760   6.071  18.251  0.00  0.00    +0.000 A 
ATOM     24  C   UNL     1       8.438   6.939  19.110  0.00  0.00    +0.000 A 
ATOM     25  C   UNL     1       8.534   8.287  18.791  0.00  0.00    +0.000 A 
ATOM     26  F   UNL     1       9.230   9.111  19.584  0.00  0.00    +0.000 F 
ATOM     27  C   UNL     1       7.921   8.795  17.653  0.00  0.00    +0.000 A 
ATOM     28  C   UNL     1       7.200   7.937  16.822  0.00  0.00    +0.000 A 
ENDBRANCH  19  22
BRANCH  17  30
ATOM     29  C   UNL     1       5.777   3.209  12.221  0.00  0.00    +0.000 C 
ATOM     30  C   UNL     1       6.923   3.924  12.922  0.00  0.00    +0.000 C 
ENDBRANCH  17  30
ENDBRANCH   1  20
TORSDOF 4
ENDMDL
MODEL 4
REMARK VINA RESULT:      -8.3      5.819      7.874
REMARK  Name = 
REMARK  5 active torsions:
REMARK  status: ('A' for Active; 'I' for Inactive)
REMARK    1  A    between atoms: C_1  and  C_2
REMARK    2  A    between atoms: C_2  and  C_3
REMARK    3  A    between atoms: C_5  and  C_6
REMARK    4  A    between atoms: C_13  and  C_14
REMARK    5  A    between atoms: C_20  and  C_22
REMARK                            x       y       z     vdW  Elec       q    Type
REMARK                         _______ _______ _______ _____ _____    ______ ____
ROOT
ATOM      1  C   UNL     1       2.471   7.103  19.098  0.00  0.00    +0.000 A 
ATOM      2  C   UNL     1       2.754   7.574  17.814  0.00  0.00    +0.000 A 
ATOM      3  C   UNL     1       2.366   8.854  17.478  0.00  0.00    +0.000 A 
ATOM      4  N   UNL     1       1.697   9.667  18.313  0.00  0.00    +0.000 NA
ATOM      5  C   UNL     1       1.414   9.232  19.550  0.00  0.00    +0.000 A 
ATOM      6  N   UNL     1       0.703  10.055  20.445  0.00  0.00    +0.000 N 
ATOM      7  C   UNL     1       0.355  11.362  20.168  0.00  0.00    +0.000 C 
ATOM      8  O   UNL     1       0.525  11.961  19.108  0.00  0.00    +0.000 OA
ATOM      9  C   UNL     1       1.812   7.972  19.984  0.00  0.00    +0.000 A 
ATOM     10  H   UNL     1       0.525   9.680  21.363  0.00  0.00    +0.000 HD
ENDROOT
BRANCH   7  11
ATOM     11  C   UNL     1      -0.225  12.150  21.295  0.00  0.00    +0.000 A 
ATOM     12  C   UNL     1      -1.150  11.495  22.121  0.00  0.00    +0.000 A 
ATOM     13  C   UNL     1      -1.764  12.170  23.175  0.00  0.00    +0.000 A 
ATOM     14  C   UNL     1      -1.446  13.504  23.418  0.00  0.00    +0.000 A 
ATOM     15  C   UNL     1      -0.507  14.158  22.616  0.00  0.00    +0.000 A 
ATOM     16  C   UNL     1       0.108  13.484  21.556  0.00  0.00    +0.000 A 
ENDBRANCH   7  11
BRANCH   1  20
ATOM     17  C   UNL     1       2.856   3.543  20.607  0.00  0.00    +0.000 A 
ATOM     18  N   UNL     1       3.714   3.550  19.612  0.00  0.00    +0.000 NA
ATOM     19  C   UNL     1       3.735   4.795  18.998  0.00  0.00    +0.000 A 
ATOM     20  C   UNL     1       2.810   5.719  19.494  0.00  0.00    +0.000 A 
ATOM     21  S   UNL     1       1.956   4.982  20.806  0.00  0.00    +0.000 S 
BRANCH  19  22
ATOM     22  C   UNL     1       4.671   5.026  17.899  0.00  0.00    +0.000 A 
ATOM     23  C   UNL     1       5.850   5.756  18.137  0.00  0.00    +0.000 A 
ATOM     24  C   UNL     1       6.799   5.913  17.124  0.00  0.00    +0.000 A 
ATOM     25  C   UNL     1       6.582   5.333  15.882  0.00  0.00    +0.000 A 
ATOM     26  F   UNL     1       7.516   5.436  14.928  0.00  0.00    +0.000 F 
ATOM     27  C   UNL     1       5.410   4.639  15.614  0.00  0.00    +0.000 A 
ATOM     28  C   UNL     1       4.438   4.527  16.608  0.00  0.00    +0.000 A 
ENDBRANCH  19  22
BRANCH  17  30
ATOM     29  C   UNL     1       1.245   2.349  22.074  0.00  0.00    +0.000 C 
ATOM     30  C   UNL     1       2.671   2.391  21.544  0.00  0.00    +0.000 C 
ENDBRANCH  17  30
ENDBRANCH   1  20
TORSDOF 4
ENDMDL
MODEL 5
REMARK VINA RESULT:      -8.2      6.840      9.866
REMARK  Name = 
REMARK  5 active torsions:
REMARK  status: ('A' for Active; 'I' for Inactive)
REMARK    1  A    between atoms: C_1  and  C_2
REMARK    2  A    between atoms: C_2  and  C_3
REMARK    3  A    between atoms: C_5  and  C_6
REMARK    4  A    between atoms: C_13  and  C_14
REMARK    5  A    between atoms: C_20  and  C_22
REMARK                            x       y       z     vdW  Elec       q    Type
REMARK                         _______ _______ _______ _____ _____    ______ ____
ROOT
ATOM      1  C   UNL     1       0.862  10.854  19.755  0.00  0.00    +0.000 A 
ATOM      2  C   UNL     1       0.395  10.334  20.965  0.00  0.00    +0.000 A 
ATOM      3  C   UNL     1       0.657   9.013  21.261  0.00  0.00    +0.000 A 
ATOM      4  N   UNL     1       1.312   8.184  20.431  0.00  0.00    +0.000 NA
ATOM      5  C   UNL     1       1.767   8.665  19.264  0.00  0.00    +0.000 A 
ATOM      6  N   UNL     1       2.447   7.820  18.366  0.00  0.00    +0.000 N 
ATOM      7  C   UNL     1       2.783   6.511  18.654  0.00  0.00    +0.000 C 
ATOM      8  O   UNL     1       2.478   5.877  19.662  0.00  0.00    +0.000 OA
ATOM      9  C   UNL     1       1.588   9.998  18.910  0.00  0.00    +0.000 A 
ATOM     10  H   UNL     1       2.773   8.236  17.509  0.00  0.00    +0.000 HD
ENDROOT
BRANCH   7  11
ATOM     11  C   UNL     1       3.668   5.819  17.671  0.00  0.00    +0.000 A 
ATOM     12  C   UNL     1       4.506   6.626  16.889  0.00  0.00    +0.000 A 
ATOM     13  C   UNL     1       5.337   6.061  15.924  0.00  0.00    +0.000 A 
ATOM     14  C   UNL     1       5.345   4.681  15.742  0.00  0.00    +0.000 A 
ATOM     15  C   UNL     1       4.531   3.866  16.534  0.00  0.00    +0.000 A 
ATOM     16  C   UNL     1       3.694   4.430  17.502  0.00  0.00    +0.000 A 
ENDBRANCH   7  11
BRANCH   1  20
ATOM     17  C   UNL     1       0.733  14.638  18.882  0.00  0.00    +0.000 A 
ATOM     18  N   UNL     1      -0.457  14.202  18.537  0.00  0.00    +0.000 NA
ATOM     19  C   UNL     1      -0.588  12.855  18.845  0.00  0.00    +0.000 A 
ATOM     20  C   UNL     1       0.561  12.247  19.359  0.00  0.00    +0.000 A 
ATOM     21  S   UNL     1       1.796  13.452  19.500  0.00  0.00    +0.000 S 
BRANCH  19  22
ATOM     22  C   UNL     1      -1.866  12.192  18.590  0.00  0.00    +0.000 A 
ATOM     23  C   UNL     1      -2.947  12.414  19.462  0.00  0.00    +0.000 A 
ATOM     24  C   UNL     1      -4.200  11.862  19.188  0.00  0.00    +0.000 A 
ATOM     25  C   UNL     1      -4.381  11.101  18.041  0.00  0.00    +0.000 A 
ATOM     26  F   UNL     1      -5.595  10.617  17.748  0.00  0.00    +0.000 F 
ATOM     27  C   UNL     1      -3.320  10.839  17.185  0.00  0.00    +0.000 A 
ATOM     28  C   UNL     1      -2.056  11.346  17.485  0.00  0.00    +0.000 A 
ENDBRANCH  19  22
BRANCH  17  30
ATOM     29  C   UNL     1       0.008  16.949  18.324  0.00  0.00    +0.000 C 
ATOM     30  C   UNL     1       1.159  16.070  18.789  0.00  0.00    +0.000 C 
ENDBRANCH  17  30
ENDBRANCH   1  20
TORSDOF 4
ENDMDL
MODEL 6
REMARK VINA RESULT:      -8.2      7.043     10.543
REMARK  Name = 
REMARK  5 active torsions:
REMARK  status: ('A' for Active; 'I' for Inactive)
REMARK    1  A    between atoms: C_1  and  C_2
REMARK    2  A    between atoms: C_2  and  C_3
REMARK    3  A    between atoms: C_5  and  C_6
REMARK    4  A    between atoms: C_13  and  C_14
REMARK    5  A    between atoms: C_20  and  C_22
REMARK                            x       y       z     vdW  Elec       q    Type
REMARK                         _______ _______ _______ _____ _____    ______ ____
ROOT
ATOM      1  C   UNL     1       0.467  10.309  19.461  0.00  0.00    +0.000 A 
ATOM      2  C   UNL     1       1.236  10.783  18.395  0.00  0.00    +0.000 A 
ATOM      3  C   UNL     1       2.225   9.971  17.882  0.00  0.00    +0.000 A 
ATOM      4  N   UNL     1       2.515   8.755  18.374  0.00  0.00    +0.000 NA
ATOM      5  C   UNL     1       1.789   8.283  19.399  0.00  0.00    +0.000 A 
ATOM      6  N   UNL     1       2.075   7.018  19.947  0.00  0.00    +0.000 N 
ATOM      7  C   UNL     1       3.013   6.152  19.419  0.00  0.00    +0.000 C 
ATOM      8  O   UNL     1       3.776   6.375  18.482  0.00  0.00    +0.000 OA
ATOM      9  C   UNL     1       0.742   9.018  19.944  0.00  0.00    +0.000 A 
ATOM     10  H   UNL     1       1.493   6.711  20.709  0.00  0.00    +0.000 HD
ENDROOT
BRANCH   7  11
ATOM     11  C   UNL     1       3.055   4.779  20.004  0.00  0.00    +0.000 A 
ATOM     12  C   UNL     1       2.158   4.503  21.046  0.00  0.00    +0.000 A 
ATOM     13  C   UNL     1       2.157   3.257  21.670  0.00  0.00    +0.000 A 
ATOM     14  C   UNL     1       3.045   2.272  21.246  0.00  0.00    +0.000 A 
ATOM     15  C   UNL     1       3.925   2.529  20.191  0.00  0.00    +0.000 A 
ATOM     16  C   UNL     1       3.931   3.780  19.565  0.00  0.00    +0.000 A 
ENDBRANCH   7  11
BRANCH   1  20
ATOM     17  C   UNL     1      -1.782  12.629  21.620  0.00  0.00    +0.000 A 
ATOM     18  N   UNL     1      -2.502  12.420  20.540  0.00  0.00    +0.000 NA
ATOM     19  C   UNL     1      -1.846  11.549  19.682  0.00  0.00    +0.000 A 
ATOM     20  C   UNL     1      -0.567  11.158  20.090  0.00  0.00    +0.000 A 
ATOM     21  S   UNL     1      -0.246  11.881  21.630  0.00  0.00    +0.000 S 
BRANCH  19  22
ATOM     22  C   UNL     1      -2.510  11.142  18.444  0.00  0.00    +0.000 A 
ATOM     23  C   UNL     1      -3.702  11.779  18.058  0.00  0.00    +0.000 A 
ATOM     24  C   UNL     1      -4.305  11.468  16.836  0.00  0.00    +0.000 A 
ATOM     25  C   UNL     1      -3.714  10.536  15.994  0.00  0.00    +0.000 A 
ATOM     26  F   UNL     1      -4.260  10.278  14.799  0.00  0.00    +0.000 F 
ATOM     27  C   UNL     1      -2.555   9.870  16.371  0.00  0.00    +0.000 A 
ATOM     28  C   UNL     1      -1.982  10.140  17.614  0.00  0.00    +0.000 A 
ENDBRANCH  19  22
BRANCH  17  30
ATOM     29  C   UNL     1      -3.287  12.660  23.597  0.00  0.00    +0.000 C 
ATOM     30  C   UNL     1      -2.248  13.430  22.795  0.00  0.00    +0.000 C 
ENDBRANCH  17  30
ENDBRANCH   1  20
TORSDOF 4
ENDMDL
MODEL 7
REMARK VINA RESULT:      -8.0      6.696      9.824
REMARK  Name = 
REMARK  5 active torsions:
REMARK  status: ('A' for Active; 'I' for Inactive)
REMARK    1  A    between atoms: C_1  and  C_2
REMARK    2  A    between atoms: C_2  and  C_3
REMARK    3  A    between atoms: C_5  and  C_6
REMARK    4  A    between atoms: C_13  and  C_14
REMARK    5  A    between atoms: C_20  and  C_22
REMARK                            x       y       z     vdW  Elec       q    Type
REMARK                         _______ _______ _______ _____ _____    ______ ____
ROOT
ATOM      1  C   UNL     1       0.907  10.783  19.723  0.00  0.00    +0.000 A 
ATOM      2  C   UNL     1       0.425  10.241  20.917  0.00  0.00    +0.000 A 
ATOM      3  C   UNL     1       0.686   8.916  21.194  0.00  0.00    +0.000 A 
ATOM      4  N   UNL     1       1.353   8.103  20.358  0.00  0.00    +0.000 NA
ATOM      5  C   UNL     1       1.823   8.604  19.206  0.00  0.00    +0.000 A 
ATOM      6  N   UNL     1       2.516   7.776  18.303  0.00  0.00    +0.000 N 
ATOM      7  C   UNL     1       2.851   6.463  18.573  0.00  0.00    +0.000 C 
ATOM      8  O   UNL     1       2.534   5.812  19.565  0.00  0.00    +0.000 OA
ATOM      9  C   UNL     1       1.645   9.943  18.873  0.00  0.00    +0.000 A 
ATOM     10  H   UNL     1       2.852   8.207  17.457  0.00  0.00    +0.000 HD
ENDROOT
BRANCH   7  11
ATOM     11  C   UNL     1       3.750   5.789  17.589  0.00  0.00    +0.000 A 
ATOM     12  C   UNL     1       3.708   4.389  17.544  0.00  0.00    +0.000 A 
ATOM     13  C   UNL     1       4.541   3.682  16.679  0.00  0.00    +0.000 A 
ATOM     14  C   UNL     1       5.413   4.373  15.842  0.00  0.00    +0.000 A 
ATOM     15  C   UNL     1       5.443   5.770  15.861  0.00  0.00    +0.000 A 
ATOM     16  C   UNL     1       4.611   6.482  16.731  0.00  0.00    +0.000 A 
ENDBRANCH   7  11
BRANCH   1  20
ATOM     17  C   UNL     1       0.788  14.577  18.891  0.00  0.00    +0.000 A 
ATOM     18  N   UNL     1      -0.412  14.153  18.564  0.00  0.00    +0.000 NA
ATOM     19  C   UNL     1      -0.547  12.804  18.862  0.00  0.00    +0.000 A 
ATOM     20  C   UNL     1       0.608  12.182  19.347  0.00  0.00    +0.000 A 
ATOM     21  S   UNL     1       1.854  13.377  19.477  0.00  0.00    +0.000 S 
BRANCH  19  22
ATOM     22  C   UNL     1      -1.834  12.152  18.625  0.00  0.00    +0.000 A 
ATOM     23  C   UNL     1      -2.919  12.435  19.474  0.00  0.00    +0.000 A 
ATOM     24  C   UNL     1      -4.179  11.892  19.213  0.00  0.00    +0.000 A 
ATOM     25  C   UNL     1      -4.363  11.081  18.102  0.00  0.00    +0.000 A 
ATOM     26  F   UNL     1      -5.583  10.606  17.820  0.00  0.00    +0.000 F 
ATOM     27  C   UNL     1      -3.298  10.760  17.271  0.00  0.00    +0.000 A 
ATOM     28  C   UNL     1      -2.028  11.258  17.560  0.00  0.00    +0.000 A 
ENDBRANCH  19  22
BRANCH  17  30
ATOM     29  C   UNL     1       2.483  16.239  19.624  0.00  0.00    +0.000 C 
ATOM     30  C   UNL     1       1.223  16.006  18.804  0.00  0.00    +0.000 C 
ENDBRANCH  17  30
ENDBRANCH   1  20
TORSDOF 4
ENDMDL
MODEL 8
REMARK VINA RESULT:      -8.0      6.921     10.180
REMARK  Name = 
REMARK  5 active torsions:
REMARK  status: ('A' for Active; 'I' for Inactive)
REMARK    1  A    between atoms: C_1  and  C_2
REMARK    2  A    between atoms: C_2  and  C_3
REMARK    3  A    between atoms: C_5  and  C_6
REMARK    4  A    between atoms: C_13  and  C_14
REMARK    5  A    between atoms: C_20  and  C_22
REMARK                            x       y       z     vdW  Elec       q    Type
REMARK                         _______ _______ _______ _____ _____    ______ ____
ROOT
ATOM      1  C   UNL     1       0.702  10.832  20.310  0.00  0.00    +0.000 A 
ATOM      2  C   UNL     1       0.177  10.487  21.558  0.00  0.00    +0.000 A 
ATOM      3  C   UNL     1       0.322   9.189  22.000  0.00  0.00    +0.000 A 
ATOM      4  N   UNL     1       0.915   8.223  21.278  0.00  0.00    +0.000 NA
ATOM      5  C   UNL     1       1.424   8.534  20.077  0.00  0.00    +0.000 A 
ATOM      6  N   UNL     1       2.041   7.543  19.290  0.00  0.00    +0.000 N 
ATOM      7  C   UNL     1       2.261   6.250  19.725  0.00  0.00    +0.000 C 
ATOM      8  O   UNL     1       1.891   5.758  20.787  0.00  0.00    +0.000 OA
ATOM      9  C   UNL     1       1.363   9.831  19.578  0.00  0.00    +0.000 A 
ATOM     10  H   UNL     1       2.412   7.835  18.400  0.00  0.00    +0.000 HD
ENDROOT
BRANCH   7  11
ATOM     11  C   UNL     1       3.096   5.384  18.841  0.00  0.00    +0.000 A 
ATOM     12  C   UNL     1       2.418   4.525  17.965  0.00  0.00    +0.000 A 
ATOM     13  C   UNL     1       3.122   3.659  17.131  0.00  0.00    +0.000 A 
ATOM     14  C   UNL     1       4.514   3.655  17.160  0.00  0.00    +0.000 A 
ATOM     15  C   UNL     1       5.200   4.525  18.011  0.00  0.00    +0.000 A 
ATOM     16  C   UNL     1       4.495   5.393  18.851  0.00  0.00    +0.000 A 
ENDBRANCH   7  11
BRANCH   1  20
ATOM     17  C   UNL     1       0.885  14.516  19.087  0.00  0.00    +0.000 A 
ATOM     18  N   UNL     1      -0.289  14.108  18.662  0.00  0.00    +0.000 NA
ATOM     19  C   UNL     1      -0.530  12.806  19.077  0.00  0.00    +0.000 A 
ATOM     20  C   UNL     1       0.524  12.193  19.760  0.00  0.00    +0.000 A 
ATOM     21  S   UNL     1       1.809  13.342  19.917  0.00  0.00    +0.000 S 
BRANCH  19  22
ATOM     22  C   UNL     1      -1.814  12.186  18.752  0.00  0.00    +0.000 A 
ATOM     23  C   UNL     1      -2.938  12.466  19.550  0.00  0.00    +0.000 A 
ATOM     24  C   UNL     1      -4.192  11.956  19.207  0.00  0.00    +0.000 A 
ATOM     25  C   UNL     1      -4.330  11.180  18.064  0.00  0.00    +0.000 A 
ATOM     26  F   UNL     1      -5.541  10.737  17.703  0.00  0.00    +0.000 F 
ATOM     27  C   UNL     1      -3.228  10.862  17.282  0.00  0.00    +0.000 A 
ATOM     28  C   UNL     1      -1.967  11.327  17.653  0.00  0.00    +0.000 A 
ENDBRANCH  19  22
BRANCH  17  30
ATOM     29  C   UNL     1       0.313  16.828  18.380  0.00  0.00    +0.000 C 
ATOM     30  C   UNL     1       1.404  15.908  18.909  0.00  0.00    +0.000 C 
ENDBRANCH  17  30
ENDBRANCH   1  20
TORSDOF 4
ENDMDL
MODEL 9
REMARK VINA RESULT:      -8.0      5.696      7.859
REMARK  Name = 
REMARK  5 active torsions:
REMARK  status: ('A' for Active; 'I' for Inactive)
REMARK    1  A    between atoms: C_1  and  C_2
REMARK    2  A    between atoms: C_2  and  C_3
REMARK    3  A    between atoms: C_5  and  C_6
REMARK    4  A    between atoms: C_13  and  C_14
REMARK    5  A    between atoms: C_20  and  C_22
REMARK                            x       y       z     vdW  Elec       q    Type
REMARK                         _______ _______ _______ _____ _____    ______ ____
ROOT
ATOM      1  C   UNL     1       2.633   6.936  19.012  0.00  0.00    +0.000 A 
ATOM      2  C   UNL     1       3.085   7.421  17.782  0.00  0.00    +0.000 A 
ATOM      3  C   UNL     1       2.730   8.699  17.405  0.00  0.00    +0.000 A 
ATOM      4  N   UNL     1       1.942   9.497  18.145  0.00  0.00    +0.000 NA
ATOM      5  C   UNL     1       1.497   9.049  19.328  0.00  0.00    +0.000 A 
ATOM      6  N   UNL     1       0.659   9.855  20.122  0.00  0.00    +0.000 N 
ATOM      7  C   UNL     1       0.336  11.161  19.809  0.00  0.00    +0.000 C 
ATOM      8  O   UNL     1       0.642  11.771  18.787  0.00  0.00    +0.000 OA
ATOM      9  C   UNL     1       1.848   7.790  19.804  0.00  0.00    +0.000 A 
ATOM     10  H   UNL     1       0.362   9.471  21.004  0.00  0.00    +0.000 HD
ENDROOT
BRANCH   7  11
ATOM     11  C   UNL     1      -0.404  11.932  20.851  0.00  0.00    +0.000 A 
ATOM     12  C   UNL     1      -0.694  11.266  22.051  0.00  0.00    +0.000 A 
ATOM     13  C   UNL     1      -1.412  11.904  23.061  0.00  0.00    +0.000 A 
ATOM     14  C   UNL     1      -1.834  13.218  22.883  0.00  0.00    +0.000 A 
ATOM     15  C   UNL     1      -1.528  13.899  21.701  0.00  0.00    +0.000 A 
ATOM     16  C   UNL     1      -0.811  13.260  20.684  0.00  0.00    +0.000 A 
ENDBRANCH   7  11
BRANCH   1  20
ATOM     17  C   UNL     1       2.900   3.395  20.590  0.00  0.00    +0.000 A 
ATOM     18  N   UNL     1       3.791   3.369  19.624  0.00  0.00    +0.000 NA
ATOM     19  C   UNL     1       3.856   4.603  18.992  0.00  0.00    +0.000 A 
ATOM     20  C   UNL     1       2.933   5.553  19.441  0.00  0.00    +0.000 A 
ATOM     21  S   UNL     1       2.021   4.853  20.735  0.00  0.00    +0.000 S 
BRANCH  19  22
ATOM     22  C   UNL     1       4.833   4.799  17.922  0.00  0.00    +0.000 A 
ATOM     23  C   UNL     1       4.556   4.305  16.635  0.00  0.00    +0.000 A 
ATOM     24  C   UNL     1       5.434   4.558  15.578  0.00  0.00    +0.000 A 
ATOM     25  C   UNL     1       6.578   5.313  15.799  0.00  0.00    +0.000 A 
ATOM     26  F   UNL     1       7.392   5.603  14.775  0.00  0.00    +0.000 F 
ATOM     27  C   UNL     1       6.889   5.781  17.069  0.00  0.00    +0.000 A 
ATOM     28  C   UNL     1       6.040   5.484  18.135  0.00  0.00    +0.000 A 
ENDBRANCH  19  22
BRANCH  17  30
ATOM     29  C   UNL     1       1.268   2.348  22.144  0.00  0.00    +0.000 C 
ATOM     30  C   UNL     1       2.661   2.263  21.539  0.00  0.00    +0.000 C 
ENDBRANCH  17  30
ENDBRANCH   1  20
TORSDOF 4
ENDMDL
