MODEL 1
REMARK VINA RESULT:      -9.0      0.000      0.000
REMARK  Name = 
REMARK  3 active torsions:
REMARK  status: ('A' for Active; 'I' for Inactive)
REMARK    1  A    between atoms: C_8  and  C_9
REMARK    2  A    between atoms: N_11  and  S_12
REMARK    3  A    between atoms: S_12  and  C_15
REMARK                            x       y       z     vdW  Elec       q    Type
REMARK                         _______ _______ _______ _____ _____    ______ ____
ROOT
ATOM      1  C   UNL     1       3.051   5.997  18.808  0.00  0.00    +0.000 C 
ATOM      2  O   UNL     1       2.487   5.092  18.216  0.00  0.00    +0.000 OA
ATOM      3  N   UNL     1       4.389   5.907  19.205  0.00  0.00    +0.000 N 
ATOM      4  H   UNL     1       4.943   6.690  19.524  0.00  0.00    +0.000 HD
ENDROOT
BRANCH   1  12
ATOM      5  O   UNL     1      -0.338  10.727  23.137  0.00  0.00    +0.000 OA
ATOM      6  C   UNL     1       0.117  10.431  22.036  0.00  0.00    +0.000 C 
ATOM      7  C   UNL     1       0.162  11.404  20.858  0.00  0.00    +0.000 C 
ATOM      8  O   UNL     1       0.292  10.889  19.542  0.00  0.00    +0.000 OA
ATOM      9  C   UNL     1       0.974   9.710  19.463  0.00  0.00    +0.000 A 
ATOM     10  C   UNL     1       1.415   9.340  18.198  0.00  0.00    +0.000 A 
ATOM     11  C   UNL     1       2.090   8.131  18.024  0.00  0.00    +0.000 A 
ATOM     12  C   UNL     1       2.323   7.267  19.110  0.00  0.00    +0.000 A 
ATOM     13  C   UNL     1       1.856   7.635  20.383  0.00  0.00    +0.000 A 
ATOM     14  C   UNL     1       1.188   8.857  20.550  0.00  0.00    +0.000 A 
ATOM     15  N   UNL     1       0.704   9.215  21.810  0.00  0.00    +0.000 N 
ATOM     16  H   UNL     1       0.750   8.585  22.601  0.00  0.00    +0.000 HD
ENDBRANCH   1  12
BRANCH   3  17
ATOM     17  S   UNL     1       5.324   4.540  18.972  0.00  0.00    +0.000 S 
ATOM     18  O   UNL     1       6.501   4.719  19.796  0.00  0.00    +0.000 OA
ATOM     19  O   UNL     1       4.469   3.387  19.160  0.00  0.00    +0.000 OA
BRANCH  17  20
ATOM     20  C   UNL     1       5.838   4.598  17.288  0.00  0.00    +0.000 A 
ATOM     21  C   UNL     1       5.076   3.964  16.297  0.00  0.00    +0.000 A 
ATOM     22  C   UNL     1       5.493   4.025  14.966  0.00  0.00    +0.000 A 
ATOM     23  C   UNL     1       6.659   4.711  14.642  0.00  0.00    +0.000 A 
ATOM     24  F   UNL     1       7.051   4.774  13.362  0.00  0.00    +0.000 F 
ATOM     25  C   UNL     1       7.420   5.337  15.624  0.00  0.00    +0.000 A 
ATOM     26  C   UNL     1       7.002   5.277  16.948  0.00  0.00    +0.000 A 
ATOM     27  F   UNL     1       7.729   5.908  17.881  0.00  0.00    +0.000 F 
ENDBRANCH  17  20
ENDBRANCH   3  17
TORSDOF 3
ENDMDL
MODEL 2
REMARK VINA RESULT:      -8.9      0.985      1.369
REMARK  Name = 
REMARK  3 active torsions:
REMARK  status: ('A' for Active; 'I' for Inactive)
REMARK    1  A    between atoms: C_8  and  C_9
REMARK    2  A    between atoms: N_11  and  S_12
REMARK    3  A    between atoms: S_12  and  C_15
REMARK                            x       y       z     vdW  Elec       q    Type
REMARK                         _______ _______ _______ _____ _____    ______ ____
ROOT
ATOM      1  C   UNL     1       2.994   5.912  19.135  0.00  0.00    +0.000 C 
ATOM      2  O   UNL     1       2.359   4.889  18.935  0.00  0.00    +0.000 OA
ATOM      3  N   UNL     1       4.393   5.931  19.136  0.00  0.00    +0.000 N 
ATOM      4  H   UNL     1       4.950   6.773  19.109  0.00  0.00    +0.000 HD
ENDROOT
BRANCH   1  12
ATOM      5  O   UNL     1      -0.461  10.868  23.145  0.00  0.00    +0.000 OA
ATOM      6  C   UNL     1       0.031  10.522  22.075  0.00  0.00    +0.000 C 
ATOM      7  C   UNL     1       0.145  11.449  20.865  0.00  0.00    +0.000 C 
ATOM      8  O   UNL     1       0.315  10.882  19.575  0.00  0.00    +0.000 OA
ATOM      9  C   UNL     1       0.975   9.688  19.567  0.00  0.00    +0.000 A 
ATOM     10  C   UNL     1       1.457   9.261  18.336  0.00  0.00    +0.000 A 
ATOM     11  C   UNL     1       2.112   8.033  18.234  0.00  0.00    +0.000 A 
ATOM     12  C   UNL     1       2.282   7.206  19.360  0.00  0.00    +0.000 A 
ATOM     13  C   UNL     1       1.774   7.631  20.598  0.00  0.00    +0.000 A 
ATOM     14  C   UNL     1       1.126   8.872  20.692  0.00  0.00    +0.000 A 
ATOM     15  N   UNL     1       0.600   9.286  21.918  0.00  0.00    +0.000 N 
ATOM     16  H   UNL     1       0.601   8.687  22.732  0.00  0.00    +0.000 HD
ENDBRANCH   1  12
BRANCH   3  17
ATOM     17  S   UNL     1       5.329   4.560  18.936  0.00  0.00    +0.000 S 
ATOM     18  O   UNL     1       6.518   4.771  19.735  0.00  0.00    +0.000 OA
ATOM     19  O   UNL     1       4.481   3.411  19.177  0.00  0.00    +0.000 OA
BRANCH  17  20
ATOM     20  C   UNL     1       5.816   4.561  17.243  0.00  0.00    +0.000 A 
ATOM     21  C   UNL     1       7.123   4.922  16.887  0.00  0.00    +0.000 A 
ATOM     22  C   UNL     1       7.496   4.911  15.542  0.00  0.00    +0.000 A 
ATOM     23  C   UNL     1       6.565   4.547  14.574  0.00  0.00    +0.000 A 
ATOM     24  F   UNL     1       6.929   4.530  13.284  0.00  0.00    +0.000 F 
ATOM     25  C   UNL     1       5.266   4.194  14.924  0.00  0.00    +0.000 A 
ATOM     26  C   UNL     1       4.897   4.202  16.264  0.00  0.00    +0.000 A 
ATOM     27  F   UNL     1       3.650   3.833  16.590  0.00  0.00    +0.000 F 
ENDBRANCH  17  20
ENDBRANCH   3  17
TORSDOF 3
ENDMDL
MODEL 3
REMARK VINA RESULT:      -8.6      4.638      8.787
REMARK  Name = 
REMARK  3 active torsions:
REMARK  status: ('A' for Active; 'I' for Inactive)
REMARK    1  A    between atoms: C_8  and  C_9
REMARK    2  A    between atoms: N_11  and  S_12
REMARK    3  A    between atoms: S_12  and  C_15
REMARK                            x       y       z     vdW  Elec       q    Type
REMARK                         _______ _______ _______ _____ _____    ______ ____
ROOT
ATOM      1  C   UNL     1       1.863   8.931  18.445  0.00  0.00    +0.000 C 
ATOM      2  O   UNL     1       2.161   9.504  17.409  0.00  0.00    +0.000 OA
ATOM      3  N   UNL     1       0.990   9.495  19.382  0.00  0.00    +0.000 N 
ATOM      4  H   UNL     1       0.574   8.986  20.149  0.00  0.00    +0.000 HD
ENDROOT
BRANCH   1  12
ATOM      5  O   UNL     1       2.426   2.781  22.246  0.00  0.00    +0.000 OA
ATOM      6  C   UNL     1       2.720   3.453  21.261  0.00  0.00    +0.000 C 
ATOM      7  C   UNL     1       3.550   2.914  20.096  0.00  0.00    +0.000 C 
ATOM      8  O   UNL     1       4.199   3.832  19.229  0.00  0.00    +0.000 OA
ATOM      9  C   UNL     1       3.562   5.032  19.099  0.00  0.00    +0.000 A 
ATOM     10  C   UNL     1       3.959   5.824  18.029  0.00  0.00    +0.000 A 
ATOM     11  C   UNL     1       3.382   7.081  17.845  0.00  0.00    +0.000 A 
ATOM     12  C   UNL     1       2.409   7.572  18.736  0.00  0.00    +0.000 A 
ATOM     13  C   UNL     1       2.027   6.776  19.828  0.00  0.00    +0.000 A 
ATOM     14  C   UNL     1       2.605   5.509  19.999  0.00  0.00    +0.000 A 
ATOM     15  N   UNL     1       2.242   4.726  21.097  0.00  0.00    +0.000 N 
ATOM     16  H   UNL     1       1.630   5.071  21.824  0.00  0.00    +0.000 HD
ENDBRANCH   1  12
BRANCH   3  17
ATOM     17  S   UNL     1       0.328  11.021  19.216  0.00  0.00    +0.000 S 
ATOM     18  O   UNL     1       1.445  11.942  19.226  0.00  0.00    +0.000 OA
ATOM     19  O   UNL     1      -0.579  10.985  18.089  0.00  0.00    +0.000 OA
BRANCH  17  20
ATOM     20  C   UNL     1      -0.603  11.296  20.686  0.00  0.00    +0.000 A 
ATOM     21  C   UNL     1      -0.376  10.507  21.822  0.00  0.00    +0.000 A 
ATOM     22  C   UNL     1      -1.116  10.742  22.981  0.00  0.00    +0.000 A 
ATOM     23  C   UNL     1      -2.072  11.753  22.993  0.00  0.00    +0.000 A 
ATOM     24  F   UNL     1      -2.775  11.981  24.110  0.00  0.00    +0.000 F 
ATOM     25  C   UNL     1      -2.304  12.535  21.866  0.00  0.00    +0.000 A 
ATOM     26  C   UNL     1      -1.563  12.301  20.713  0.00  0.00    +0.000 A 
ATOM     27  F   UNL     1      -1.776  13.080  19.643  0.00  0.00    +0.000 F 
ENDBRANCH  17  20
ENDBRANCH   3  17
TORSDOF 3
ENDMDL
MODEL 4
REMARK VINA RESULT:      -8.4      4.235      8.695
REMARK  Name = 
REMARK  3 active torsions:
REMARK  status: ('A' for Active; 'I' for Inactive)
REMARK    1  A    between atoms: C_8  and  C_9
REMARK    2  A    between atoms: N_11  and  S_12
REMARK    3  A    between atoms: S_12  and  C_15
REMARK                            x       y       z     vdW  Elec       q    Type
REMARK                         _______ _______ _______ _____ _____    ______ ____
ROOT
ATOM      1  C   UNL     1       1.778   9.143  18.506  0.00  0.00    +0.000 C 
ATOM      2  O   UNL     1       2.083   9.725  17.478  0.00  0.00    +0.000 OA
ATOM      3  N   UNL     1       0.931   9.714  19.462  0.00  0.00    +0.000 N 
ATOM      4  H   UNL     1       0.508   9.205  20.225  0.00  0.00    +0.000 HD
ENDROOT
BRANCH   1  12
ATOM      5  O   UNL     1       2.351   2.987  22.297  0.00  0.00    +0.000 OA
ATOM      6  C   UNL     1       2.604   3.644  21.291  0.00  0.00    +0.000 C 
ATOM      7  C   UNL     1       3.331   3.068  20.076  0.00  0.00    +0.000 C 
ATOM      8  O   UNL     1       3.956   3.956  19.162  0.00  0.00    +0.000 OA
ATOM      9  C   UNL     1       3.360   5.180  19.067  0.00  0.00    +0.000 A 
ATOM     10  C   UNL     1       3.715   5.952  17.969  0.00  0.00    +0.000 A 
ATOM     11  C   UNL     1       3.178   7.231  17.816  0.00  0.00    +0.000 A 
ATOM     12  C   UNL     1       2.288   7.763  18.768  0.00  0.00    +0.000 A 
ATOM     13  C   UNL     1       1.949   6.987  19.888  0.00  0.00    +0.000 A 
ATOM     14  C   UNL     1       2.486   5.698  20.027  0.00  0.00    +0.000 A 
ATOM     15  N   UNL     1       2.168   4.934  21.152  0.00  0.00    +0.000 N 
ATOM     16  H   UNL     1       1.620   5.307  21.916  0.00  0.00    +0.000 HD
ENDBRANCH   1  12
BRANCH   3  17
ATOM     17  S   UNL     1       0.312  11.262  19.330  0.00  0.00    +0.000 S 
ATOM     18  O   UNL     1       1.444  12.155  19.456  0.00  0.00    +0.000 OA
ATOM     19  O   UNL     1      -0.522  11.301  18.147  0.00  0.00    +0.000 OA
BRANCH  17  20
ATOM     20  C   UNL     1      -0.706  11.488  20.750  0.00  0.00    +0.000 A 
ATOM     21  C   UNL     1      -1.862  12.277  20.670  0.00  0.00    +0.000 A 
ATOM     22  C   UNL     1      -2.662  12.440  21.802  0.00  0.00    +0.000 A 
ATOM     23  C   UNL     1      -2.299  11.822  22.995  0.00  0.00    +0.000 A 
ATOM     24  F   UNL     1      -3.074  11.974  24.077  0.00  0.00    +0.000 F 
ATOM     25  C   UNL     1      -1.150  11.043  23.079  0.00  0.00    +0.000 A 
ATOM     26  C   UNL     1      -0.356  10.879  21.950  0.00  0.00    +0.000 A 
ATOM     27  F   UNL     1       0.733  10.103  22.037  0.00  0.00    +0.000 F 
ENDBRANCH  17  20
ENDBRANCH   3  17
TORSDOF 3
ENDMDL
MODEL 5
REMARK VINA RESULT:      -8.4      4.699      8.242
REMARK  Name = 
REMARK  3 active torsions:
REMARK  status: ('A' for Active; 'I' for Inactive)
REMARK    1  A    between atoms: C_8  and  C_9
REMARK    2  A    between atoms: N_11  and  S_12
REMARK    3  A    between atoms: S_12  and  C_15
REMARK                            x       y       z     vdW  Elec       q    Type
REMARK                         _______ _______ _______ _____ _____    ______ ____
ROOT
ATOM      1  C   UNL     1       1.885   8.950  18.493  0.00  0.00    +0.000 C 
ATOM      2  O   UNL     1       2.158   9.529  17.454  0.00  0.00    +0.000 OA
ATOM      3  N   UNL     1       1.089   9.535  19.484  0.00  0.00    +0.000 N 
ATOM      4  H   UNL     1       0.687   9.032  20.262  0.00  0.00    +0.000 HD
ENDROOT
BRANCH   1  12
ATOM      5  O   UNL     1       2.431   2.746  22.207  0.00  0.00    +0.000 OA
ATOM      6  C   UNL     1       2.676   3.409  21.203  0.00  0.00    +0.000 C 
ATOM      7  C   UNL     1       3.371   2.835  19.969  0.00  0.00    +0.000 C 
ATOM      8  O   UNL     1       3.993   3.723  19.052  0.00  0.00    +0.000 OA
ATOM      9  C   UNL     1       3.414   4.957  18.982  0.00  0.00    +0.000 A 
ATOM     10  C   UNL     1       3.760   5.736  17.885  0.00  0.00    +0.000 A 
ATOM     11  C   UNL     1       3.241   7.025  17.756  0.00  0.00    +0.000 A 
ATOM     12  C   UNL     1       2.378   7.560  18.730  0.00  0.00    +0.000 A 
ATOM     13  C   UNL     1       2.048   6.777  19.849  0.00  0.00    +0.000 A 
ATOM     14  C   UNL     1       2.566   5.479  19.964  0.00  0.00    +0.000 A 
ATOM     15  N   UNL     1       2.257   4.707  21.086  0.00  0.00    +0.000 N 
ATOM     16  H   UNL     1       1.730   5.080  21.865  0.00  0.00    +0.000 HD
ENDBRANCH   1  12
BRANCH   3  17
ATOM     17  S   UNL     1       0.495  11.095  19.381  0.00  0.00    +0.000 S 
ATOM     18  O   UNL     1       0.267  11.524  20.744  0.00  0.00    +0.000 OA
ATOM     19  O   UNL     1       1.382  11.845  18.517  0.00  0.00    +0.000 OA
BRANCH  17  20
ATOM     20  C   UNL     1      -1.076  10.953  18.597  0.00  0.00    +0.000 A 
ATOM     21  C   UNL     1      -1.303   9.944  17.651  0.00  0.00    +0.000 A 
ATOM     22  C   UNL     1      -2.555   9.840  17.044  0.00  0.00    +0.000 A 
ATOM     23  C   UNL     1      -3.560  10.741  17.383  0.00  0.00    +0.000 A 
ATOM     24  F   UNL     1      -4.763  10.633  16.804  0.00  0.00    +0.000 F 
ATOM     25  C   UNL     1      -3.336  11.748  18.317  0.00  0.00    +0.000 A 
ATOM     26  C   UNL     1      -2.090  11.848  18.922  0.00  0.00    +0.000 A 
ATOM     27  F   UNL     1      -1.896  12.804  19.841  0.00  0.00    +0.000 F 
ENDBRANCH  17  20
ENDBRANCH   3  17
TORSDOF 3
ENDMDL
MODEL 6
REMARK VINA RESULT:      -8.4      4.600      8.612
REMARK  Name = 
REMARK  3 active torsions:
REMARK  status: ('A' for Active; 'I' for Inactive)
REMARK    1  A    between atoms: C_8  and  C_9
REMARK    2  A    between atoms: N_11  and  S_12
REMARK    3  A    between atoms: S_12  and  C_15
REMARK                            x       y       z     vdW  Elec       q    Type
REMARK                         _______ _______ _______ _____ _____    ______ ____
ROOT
ATOM      1  C   UNL     1       2.081   9.103  18.258  0.00  0.00    +0.000 C 
ATOM      2  O   UNL     1       2.289  10.142  17.654  0.00  0.00    +0.000 OA
ATOM      3  N   UNL     1       1.144   9.019  19.294  0.00  0.00    +0.000 N 
ATOM      4  H   UNL     1       0.808   8.152  19.689  0.00  0.00    +0.000 HD
ENDROOT
BRANCH   1  12
ATOM      5  O   UNL     1       7.468   5.356  15.171  0.00  0.00    +0.000 OA
ATOM      6  C   UNL     1       6.455   5.386  15.864  0.00  0.00    +0.000 C 
ATOM      7  C   UNL     1       5.903   4.163  16.595  0.00  0.00    +0.000 C 
ATOM      8  O   UNL     1       4.544   4.159  17.005  0.00  0.00    +0.000 OA
ATOM      9  C   UNL     1       4.038   5.394  17.290  0.00  0.00    +0.000 A 
ATOM     10  C   UNL     1       2.846   5.419  18.003  0.00  0.00    +0.000 A 
ATOM     11  C   UNL     1       2.242   6.640  18.304  0.00  0.00    +0.000 A 
ATOM     12  C   UNL     1       2.814   7.856  17.884  0.00  0.00    +0.000 A 
ATOM     13  C   UNL     1       4.008   7.825  17.145  0.00  0.00    +0.000 A 
ATOM     14  C   UNL     1       4.613   6.592  16.857  0.00  0.00    +0.000 A 
ATOM     15  N   UNL     1       5.788   6.558  16.102  0.00  0.00    +0.000 N 
ATOM     16  H   UNL     1       6.182   7.391  15.686  0.00  0.00    +0.000 HD
ENDBRANCH   1  12
BRANCH   3  17
ATOM     17  S   UNL     1       0.273  10.333  19.851  0.00  0.00    +0.000 S 
ATOM     18  O   UNL     1      -0.283   9.930  21.126  0.00  0.00    +0.000 OA
ATOM     19  O   UNL     1       1.131  11.496  19.764  0.00  0.00    +0.000 OA
BRANCH  17  20
ATOM     20  C   UNL     1      -1.065  10.528  18.722  0.00  0.00    +0.000 A 
ATOM     21  C   UNL     1      -1.143   9.725  17.576  0.00  0.00    +0.000 A 
ATOM     22  C   UNL     1      -2.213   9.887  16.696  0.00  0.00    +0.000 A 
ATOM     23  C   UNL     1      -3.186  10.845  16.964  0.00  0.00    +0.000 A 
ATOM     24  F   UNL     1      -4.216  10.991  16.121  0.00  0.00    +0.000 F 
ATOM     25  C   UNL     1      -3.109  11.647  18.098  0.00  0.00    +0.000 A 
ATOM     26  C   UNL     1      -2.044  11.483  18.976  0.00  0.00    +0.000 A 
ATOM     27  F   UNL     1      -1.996  12.243  20.079  0.00  0.00    +0.000 F 
ENDBRANCH  17  20
ENDBRANCH   3  17
TORSDOF 3
ENDMDL
MODEL 7
REMARK VINA RESULT:      -8.4      1.245      1.944
REMARK  Name = 
REMARK  3 active torsions:
REMARK  status: ('A' for Active; 'I' for Inactive)
REMARK    1  A    between atoms: C_8  and  C_9
REMARK    2  A    between atoms: N_11  and  S_12
REMARK    3  A    between atoms: S_12  and  C_15
REMARK                            x       y       z     vdW  Elec       q    Type
REMARK                         _______ _______ _______ _____ _____    ______ ____
ROOT
ATOM      1  C   UNL     1       2.664   5.911  18.620  0.00  0.00    +0.000 C 
ATOM      2  O   UNL     1       2.096   5.354  17.695  0.00  0.00    +0.000 OA
ATOM      3  N   UNL     1       3.837   5.403  19.188  0.00  0.00    +0.000 N 
ATOM      4  H   UNL     1       4.435   5.920  19.818  0.00  0.00    +0.000 HD
ENDROOT
BRANCH   1  12
ATOM      5  O   UNL     1       0.714  12.885  18.228  0.00  0.00    +0.000 OA
ATOM      6  C   UNL     1       0.780  11.833  18.858  0.00  0.00    +0.000 C 
ATOM      7  C   UNL     1       0.152  11.642  20.238  0.00  0.00    +0.000 C 
ATOM      8  O   UNL     1       0.618  10.590  21.069  0.00  0.00    +0.000 OA
ATOM      9  C   UNL     1       1.088   9.503  20.391  0.00  0.00    +0.000 A 
ATOM     10  C   UNL     1       1.240   8.337  21.131  0.00  0.00    +0.000 A 
ATOM     11  C   UNL     1       1.749   7.189  20.522  0.00  0.00    +0.000 A 
ATOM     12  C   UNL     1       2.128   7.194  19.167  0.00  0.00    +0.000 A 
ATOM     13  C   UNL     1       1.993   8.381  18.428  0.00  0.00    +0.000 A 
ATOM     14  C   UNL     1       1.470   9.526  19.047  0.00  0.00    +0.000 A 
ATOM     15  N   UNL     1       1.357  10.714  18.320  0.00  0.00    +0.000 N 
ATOM     16  H   UNL     1       1.712  10.802  17.377  0.00  0.00    +0.000 HD
ENDBRANCH   1  12
BRANCH   3  17
ATOM     17  S   UNL     1       4.537   3.961  18.710  0.00  0.00    +0.000 S 
ATOM     18  O   UNL     1       5.497   3.625  19.741  0.00  0.00    +0.000 OA
ATOM     19  O   UNL     1       3.468   3.043  18.380  0.00  0.00    +0.000 OA
BRANCH  17  20
ATOM     20  C   UNL     1       5.438   4.335  17.243  0.00  0.00    +0.000 A 
ATOM     21  C   UNL     1       5.032   3.802  16.012  0.00  0.00    +0.000 A 
ATOM     22  C   UNL     1       5.752   4.113  14.858  0.00  0.00    +0.000 A 
ATOM     23  C   UNL     1       6.865   4.944  14.946  0.00  0.00    +0.000 A 
ATOM     24  F   UNL     1       7.549   5.247  13.834  0.00  0.00    +0.000 F 
ATOM     25  C   UNL     1       7.274   5.470  16.166  0.00  0.00    +0.000 A 
ATOM     26  C   UNL     1       6.554   5.161  17.314  0.00  0.00    +0.000 A 
ATOM     27  F   UNL     1       6.942   5.697  18.481  0.00  0.00    +0.000 F 
ENDBRANCH  17  20
ENDBRANCH   3  17
TORSDOF 3
ENDMDL
MODEL 8
REMARK VINA RESULT:      -8.3      1.204      1.471
REMARK  Name = 
REMARK  3 active torsions:
REMARK  status: ('A' for Active; 'I' for Inactive)
REMARK    1  A    between atoms: C_8  and  C_9
REMARK    2  A    between atoms: N_11  and  S_12
REMARK    3  A    between atoms: S_12  and  C_15
REMARK                            x       y       z     vdW  Elec       q    Type
REMARK                         _______ _______ _______ _____ _____    ______ ____
ROOT
ATOM      1  C   UNL     1       3.030   5.966  19.099  0.00  0.00    +0.000 C 
ATOM      2  O   UNL     1       3.971   5.657  19.811  0.00  0.00    +0.000 OA
ATOM      3  N   UNL     1       2.577   5.141  18.064  0.00  0.00    +0.000 N 
ATOM      4  H   UNL     1       1.699   5.266  17.579  0.00  0.00    +0.000 HD
ENDROOT
BRANCH   1  12
ATOM      5  O   UNL     1      -0.479  10.851  23.150  0.00  0.00    +0.000 OA
ATOM      6  C   UNL     1       0.013  10.517  22.076  0.00  0.00    +0.000 C 
ATOM      7  C   UNL     1       0.107  11.452  20.871  0.00  0.00    +0.000 C 
ATOM      8  O   UNL     1       0.279  10.894  19.577  0.00  0.00    +0.000 OA
ATOM      9  C   UNL     1       0.956   9.709  19.560  0.00  0.00    +0.000 A 
ATOM     10  C   UNL     1       1.439   9.296  18.324  0.00  0.00    +0.000 A 
ATOM     11  C   UNL     1       2.112   8.079  18.213  0.00  0.00    +0.000 A 
ATOM     12  C   UNL     1       2.300   7.248  19.334  0.00  0.00    +0.000 A 
ATOM     13  C   UNL     1       1.791   7.660  20.576  0.00  0.00    +0.000 A 
ATOM     14  C   UNL     1       1.126   8.891  20.680  0.00  0.00    +0.000 A 
ATOM     15  N   UNL     1       0.600   9.291  21.911  0.00  0.00    +0.000 N 
ATOM     16  H   UNL     1       0.613   8.687  22.722  0.00  0.00    +0.000 HD
ENDBRANCH   1  12
BRANCH   3  17
ATOM     17  S   UNL     1       3.312   3.696  17.654  0.00  0.00    +0.000 S 
ATOM     18  O   UNL     1       3.803   3.135  18.895  0.00  0.00    +0.000 OA
ATOM     19  O   UNL     1       2.384   2.950  16.831  0.00  0.00    +0.000 OA
BRANCH  17  20
ATOM     20  C   UNL     1       4.711   4.136  16.678  0.00  0.00    +0.000 A 
ATOM     21  C   UNL     1       4.573   4.333  15.297  0.00  0.00    +0.000 A 
ATOM     22  C   UNL     1       5.689   4.688  14.539  0.00  0.00    +0.000 A 
ATOM     23  C   UNL     1       6.924   4.838  15.161  0.00  0.00    +0.000 A 
ATOM     24  F   UNL     1       7.991   5.187  14.431  0.00  0.00    +0.000 F 
ATOM     25  C   UNL     1       7.066   4.637  16.531  0.00  0.00    +0.000 A 
ATOM     26  C   UNL     1       5.953   4.287  17.285  0.00  0.00    +0.000 A 
ATOM     27  F   UNL     1       6.097   4.124  18.608  0.00  0.00    +0.000 F 
ENDBRANCH  17  20
ENDBRANCH   3  17
TORSDOF 3
ENDMDL
MODEL 9
REMARK VINA RESULT:      -8.2      1.098      1.234
REMARK  Name = 
REMARK  3 active torsions:
REMARK  status: ('A' for Active; 'I' for Inactive)
REMARK    1  A    between atoms: C_8  and  C_9
REMARK    2  A    between atoms: N_11  and  S_12
REMARK    3  A    between atoms: S_12  and  C_15
REMARK                            x       y       z     vdW  Elec       q    Type
REMARK                         _______ _______ _______ _____ _____    ______ ____
ROOT
ATOM      1  C   UNL     1       2.843   6.133  18.435  0.00  0.00    +0.000 C 
ATOM      2  O   UNL     1       3.184   6.076  17.265  0.00  0.00    +0.000 OA
ATOM      3  N   UNL     1       3.071   5.080  19.328  0.00  0.00    +0.000 N 
ATOM      4  H   UNL     1       2.978   5.155  20.331  0.00  0.00    +0.000 HD
ENDROOT
BRANCH   1  12
ATOM      5  O   UNL     1      -0.220  10.207  23.592  0.00  0.00    +0.000 OA
ATOM      6  C   UNL     1       0.196  10.082  22.444  0.00  0.00    +0.000 C 
ATOM      7  C   UNL     1       0.263  11.237  21.446  0.00  0.00    +0.000 C 
ATOM      8  O   UNL     1       0.339  10.946  20.058  0.00  0.00    +0.000 OA
ATOM      9  C   UNL     1       0.962   9.769  19.762  0.00  0.00    +0.000 A 
ATOM     10  C   UNL     1       1.357   9.598  18.442  0.00  0.00    +0.000 A 
ATOM     11  C   UNL     1       1.969   8.408  18.048  0.00  0.00    +0.000 A 
ATOM     12  C   UNL     1       2.183   7.363  18.966  0.00  0.00    +0.000 A 
ATOM     13  C   UNL     1       1.763   7.531  20.295  0.00  0.00    +0.000 A 
ATOM     14  C   UNL     1       1.158   8.736  20.684  0.00  0.00    +0.000 A 
ATOM     15  N   UNL     1       0.719   8.897  22.001  0.00  0.00    +0.000 N 
ATOM     16  H   UNL     1       0.752   8.142  22.673  0.00  0.00    +0.000 HD
ENDBRANCH   1  12
BRANCH   3  17
ATOM     17  S   UNL     1       3.763   3.627  18.876  0.00  0.00    +0.000 S 
ATOM     18  O   UNL     1       4.427   3.119  20.057  0.00  0.00    +0.000 OA
ATOM     19  O   UNL     1       2.741   2.841  18.216  0.00  0.00    +0.000 OA
BRANCH  17  20
ATOM     20  C   UNL     1       5.009   4.041  17.700  0.00  0.00    +0.000 A 
ATOM     21  C   UNL     1       4.869   3.654  16.360  0.00  0.00    +0.000 A 
ATOM     22  C   UNL     1       5.861   3.996  15.440  0.00  0.00    +0.000 A 
ATOM     23  C   UNL     1       6.976   4.712  15.865  0.00  0.00    +0.000 A 
ATOM     24  F   UNL     1       7.922   5.045  14.977  0.00  0.00    +0.000 F 
ATOM     25  C   UNL     1       7.120   5.092  17.195  0.00  0.00    +0.000 A 
ATOM     26  C   UNL     1       6.130   4.754  18.110  0.00  0.00    +0.000 A 
ATOM     27  F   UNL     1       6.267   5.150  19.383  0.00  0.00    +0.000 F 
ENDBRANCH  17  20
ENDBRANCH   3  17
TORSDOF 3
ENDMDL
