MODEL 1
REMARK VINA RESULT:      -7.6      0.000      0.000
REMARK  Name = 
REMARK  4 active torsions:
REMARK  status: ('A' for Active; 'I' for Inactive)
REMARK    1  A    between atoms: C_2  and  C_3
REMARK    2  A    between atoms: C_9  and  C_10
REMARK    3  A    between atoms: C_10  and  N_11
REMARK    4  A    between atoms: N_14  and  C_15
REMARK                            x       y       z     vdW  Elec       q    Type
REMARK                         _______ _______ _______ _____ _____    ______ ____
ROOT
ATOM      1  C   UNL     1       4.583   5.138  16.682  0.00  0.00    +0.000 C 
ENDROOT
BRANCH   1   8
ATOM      2  C   UNL     1       5.157   3.640  12.157  0.00  0.00    +0.000 A 
ATOM      3  C   UNL     1       6.478   3.801  11.726  0.00  0.00    +0.000 A 
ATOM      4  C   UNL     1       7.454   4.304  12.589  0.00  0.00    +0.000 A 
ATOM      5  C   UNL     1       7.074   4.632  13.898  0.00  0.00    +0.000 A 
ATOM      6  N   UNL     1       7.825   5.171  14.913  0.00  0.00    +0.000 N 
ATOM      7  C   UNL     1       7.059   5.368  16.026  0.00  0.00    +0.000 A 
ATOM      8  C   UNL     1       5.767   4.950  15.764  0.00  0.00    +0.000 A 
ATOM      9  C   UNL     1       5.771   4.479  14.382  0.00  0.00    +0.000 A 
ATOM     10  C   UNL     1       4.795   3.981  13.484  0.00  0.00    +0.000 A 
ATOM     11  H   UNL     1       8.798   5.430  14.824  0.00  0.00    +0.000 HD
BRANCH   2  13
ATOM     12  N   UNL     1       3.364   2.685  10.525  0.00  0.00    +0.000 NA
ATOM     13  C   UNL     1       4.168   3.128  11.235  0.00  0.00    +0.000 C 
ENDBRANCH   2  13
ENDBRANCH   1   8
BRANCH   1  14
ATOM     14  N   UNL     1       4.252   3.987  17.571  0.00  0.00    +0.000 NA
ATOM     15  C   UNL     1       4.739   4.300  18.943  0.00  0.00    +0.000 C 
ATOM     16  C   UNL     1       4.079   5.541  19.610  0.00  0.00    +0.000 C 
ATOM     17  N   UNL     1       2.632   5.736  19.309  0.00  0.00    +0.000 N 
ATOM     18  C   UNL     1       2.034   5.008  18.165  0.00  0.00    +0.000 C 
ATOM     19  C   UNL     1       2.807   3.749  17.765  0.00  0.00    +0.000 C 
BRANCH  17  20
ATOM     20  C   UNL     1       2.064   6.988  19.620  0.00  0.00    +0.000 A 
ATOM     21  C   UNL     1       2.036   8.045  18.692  0.00  0.00    +0.000 A 
ATOM     22  C   UNL     1       1.446   9.280  18.993  0.00  0.00    +0.000 A 
ATOM     23  C   UNL     1       0.878   9.488  20.239  0.00  0.00    +0.000 A 
ATOM     24  F   UNL     1       0.299  10.661  20.522  0.00  0.00    +0.000 F 
ATOM     25  C   UNL     1       0.915   8.493  21.198  0.00  0.00    +0.000 A 
ATOM     26  C   UNL     1       1.513   7.266  20.891  0.00  0.00    +0.000 A 
ENDBRANCH  17  20
ENDBRANCH   1  14
TORSDOF 4
ENDMDL
MODEL 2
REMARK VINA RESULT:      -7.5      0.726      1.201
REMARK  Name = 
REMARK  4 active torsions:
REMARK  status: ('A' for Active; 'I' for Inactive)
REMARK    1  A    between atoms: C_2  and  C_3
REMARK    2  A    between atoms: C_9  and  C_10
REMARK    3  A    between atoms: C_10  and  N_11
REMARK    4  A    between atoms: N_14  and  C_15
REMARK                            x       y       z     vdW  Elec       q    Type
REMARK                         _______ _______ _______ _____ _____    ______ ____
ROOT
ATOM      1  C   UNL     1       4.327   4.196  16.978  0.00  0.00    +0.000 C 
ENDROOT
BRANCH   1   8
ATOM      2  C   UNL     1       5.211   3.643  12.291  0.00  0.00    +0.000 A 
ATOM      3  C   UNL     1       6.523   4.004  11.971  0.00  0.00    +0.000 A 
ATOM      4  C   UNL     1       7.413   4.422  12.963  0.00  0.00    +0.000 A 
ATOM      5  C   UNL     1       6.954   4.459  14.288  0.00  0.00    +0.000 A 
ATOM      6  N   UNL     1       7.611   4.862  15.424  0.00  0.00    +0.000 N 
ATOM      7  C   UNL     1       6.789   4.773  16.512  0.00  0.00    +0.000 A 
ATOM      8  C   UNL     1       5.556   4.295  16.107  0.00  0.00    +0.000 A 
ATOM      9  C   UNL     1       5.657   4.097  14.664  0.00  0.00    +0.000 A 
ATOM     10  C   UNL     1       4.769   3.691  13.637  0.00  0.00    +0.000 A 
ATOM     11  H   UNL     1       8.555   5.222  15.438  0.00  0.00    +0.000 HD
BRANCH   2  13
ATOM     12  N   UNL     1       3.600   2.849  10.403  0.00  0.00    +0.000 NA
ATOM     13  C   UNL     1       4.313   3.226  11.239  0.00  0.00    +0.000 C 
ENDBRANCH   2  13
ENDBRANCH   1   8
BRANCH   1  14
ATOM     14  N   UNL     1       4.529   3.611  18.336  0.00  0.00    +0.000 NA
ATOM     15  C   UNL     1       5.308   4.582  19.152  0.00  0.00    +0.000 C 
ATOM     16  C   UNL     1       4.609   5.951  19.393  0.00  0.00    +0.000 C 
ATOM     17  N   UNL     1       3.130   5.891  19.578  0.00  0.00    +0.000 N 
ATOM     18  C   UNL     1       2.407   4.664  19.170  0.00  0.00    +0.000 C 
ATOM     19  C   UNL     1       3.292   3.417  19.118  0.00  0.00    +0.000 C 
BRANCH  17  20
ATOM     20  C   UNL     1       2.413   7.101  19.487  0.00  0.00    +0.000 A 
ATOM     21  C   UNL     1       1.711   7.634  20.584  0.00  0.00    +0.000 A 
ATOM     22  C   UNL     1       1.021   8.851  20.502  0.00  0.00    +0.000 A 
ATOM     23  C   UNL     1       1.010   9.558  19.311  0.00  0.00    +0.000 A 
ATOM     24  F   UNL     1       0.367  10.730  19.235  0.00  0.00    +0.000 F 
ATOM     25  C   UNL     1       1.653   9.057  18.195  0.00  0.00    +0.000 A 
ATOM     26  C   UNL     1       2.332   7.838  18.284  0.00  0.00    +0.000 A 
ENDBRANCH  17  20
ENDBRANCH   1  14
TORSDOF 4
ENDMDL
MODEL 3
REMARK VINA RESULT:      -7.3      5.090      8.690
REMARK  Name = 
REMARK  4 active torsions:
REMARK  status: ('A' for Active; 'I' for Inactive)
REMARK    1  A    between atoms: C_2  and  C_3
REMARK    2  A    between atoms: C_9  and  C_10
REMARK    3  A    between atoms: C_10  and  N_11
REMARK    4  A    between atoms: N_14  and  C_15
REMARK                            x       y       z     vdW  Elec       q    Type
REMARK                         _______ _______ _______ _____ _____    ______ ____
ROOT
ATOM      1  C   UNL     1       0.214   9.400  18.084  0.00  0.00    +0.000 C 
ENDROOT
BRANCH   1   8
ATOM      2  C   UNL     1      -3.601  10.568  15.412  0.00  0.00    +0.000 A 
ATOM      3  C   UNL     1      -4.497  11.373  16.121  0.00  0.00    +0.000 A 
ATOM      4  C   UNL     1      -4.215  11.776  17.428  0.00  0.00    +0.000 A 
ATOM      5  C   UNL     1      -3.007  11.358  18.003  0.00  0.00    +0.000 A 
ATOM      6  N   UNL     1      -2.520  11.586  19.266  0.00  0.00    +0.000 N 
ATOM      7  C   UNL     1      -1.312  10.970  19.434  0.00  0.00    +0.000 A 
ATOM      8  C   UNL     1      -0.971  10.320  18.262  0.00  0.00    +0.000 A 
ATOM      9  C   UNL     1      -2.071  10.563  17.334  0.00  0.00    +0.000 A 
ATOM     10  C   UNL     1      -2.386  10.155  16.014  0.00  0.00    +0.000 A 
ATOM     11  H   UNL     1      -3.016  12.095  19.983  0.00  0.00    +0.000 HD
BRANCH   2  13
ATOM     12  N   UNL     1      -4.157   9.801  12.984  0.00  0.00    +0.000 NA
ATOM     13  C   UNL     1      -3.928  10.158  14.065  0.00  0.00    +0.000 C 
ENDBRANCH   2  13
ENDBRANCH   1   8
BRANCH   1  14
ATOM     14  N   UNL     1       1.515   9.893  18.621  0.00  0.00    +0.000 NA
ATOM     15  C   UNL     1       1.609   9.502  20.054  0.00  0.00    +0.000 C 
ATOM     16  C   UNL     1       1.607   7.970  20.321  0.00  0.00    +0.000 C 
ATOM     17  N   UNL     1       2.326   7.143  19.311  0.00  0.00    +0.000 N 
ATOM     18  C   UNL     1       2.654   7.743  17.996  0.00  0.00    +0.000 C 
ATOM     19  C   UNL     1       2.710   9.272  18.015  0.00  0.00    +0.000 C 
BRANCH  17  20
ATOM     20  C   UNL     1       2.098   5.751  19.325  0.00  0.00    +0.000 A 
ATOM     21  C   UNL     1       2.191   4.970  18.159  0.00  0.00    +0.000 A 
ATOM     22  C   UNL     1       1.993   3.583  18.178  0.00  0.00    +0.000 A 
ATOM     23  C   UNL     1       1.684   2.948  19.370  0.00  0.00    +0.000 A 
ATOM     24  F   UNL     1       1.511   1.620  19.394  0.00  0.00    +0.000 F 
ATOM     25  C   UNL     1       1.544   3.678  20.535  0.00  0.00    +0.000 A 
ATOM     26  C   UNL     1       1.737   5.063  20.504  0.00  0.00    +0.000 A 
ENDBRANCH  17  20
ENDBRANCH   1  14
TORSDOF 4
ENDMDL
MODEL 4
REMARK VINA RESULT:      -7.0      4.109      7.358
REMARK  Name = 
REMARK  4 active torsions:
REMARK  status: ('A' for Active; 'I' for Inactive)
REMARK    1  A    between atoms: C_2  and  C_3
REMARK    2  A    between atoms: C_9  and  C_10
REMARK    3  A    between atoms: C_10  and  N_11
REMARK    4  A    between atoms: N_14  and  C_15
REMARK                            x       y       z     vdW  Elec       q    Type
REMARK                         _______ _______ _______ _____ _____    ______ ____
ROOT
ATOM      1  C   UNL     1       1.011  10.041  18.821  0.00  0.00    +0.000 C 
ENDROOT
BRANCH   1   8
ATOM      2  C   UNL     1       4.098   6.620  17.468  0.00  0.00    +0.000 A 
ATOM      3  C   UNL     1       4.247   5.643  18.457  0.00  0.00    +0.000 A 
ATOM      4  C   UNL     1       3.513   5.709  19.644  0.00  0.00    +0.000 A 
ATOM      5  C   UNL     1       2.621   6.778  19.810  0.00  0.00    +0.000 A 
ATOM      6  N   UNL     1       1.823   7.086  20.884  0.00  0.00    +0.000 N 
ATOM      7  C   UNL     1       1.126   8.237  20.651  0.00  0.00    +0.000 A 
ATOM      8  C   UNL     1       1.451   8.715  19.394  0.00  0.00    +0.000 A 
ATOM      9  C   UNL     1       2.425   7.775  18.849  0.00  0.00    +0.000 A 
ATOM     10  C   UNL     1       3.191   7.693  17.659  0.00  0.00    +0.000 A 
ATOM     11  H   UNL     1       1.800   6.557  21.744  0.00  0.00    +0.000 HD
BRANCH   2  13
ATOM     12  N   UNL     1       5.476   6.474  15.261  0.00  0.00    +0.000 NA
ATOM     13  C   UNL     1       4.880   6.529  16.257  0.00  0.00    +0.000 C 
ENDBRANCH   2  13
ENDBRANCH   1   8
BRANCH   1  14
ATOM     14  N   UNL     1       1.321  11.247  19.642  0.00  0.00    +0.000 NA
ATOM     15  C   UNL     1       1.016  12.456  18.830  0.00  0.00    +0.000 C 
ATOM     16  C   UNL     1      -0.475  12.613  18.414  0.00  0.00    +0.000 C 
ATOM     17  N   UNL     1      -1.473  12.167  19.428  0.00  0.00    +0.000 N 
ATOM     18  C   UNL     1      -1.022  11.306  20.546  0.00  0.00    +0.000 C 
ATOM     19  C   UNL     1       0.476  11.414  20.841  0.00  0.00    +0.000 C 
BRANCH  17  20
ATOM     20  C   UNL     1      -2.805  11.993  19.000  0.00  0.00    +0.000 A 
ATOM     21  C   UNL     1      -3.118  11.353  17.787  0.00  0.00    +0.000 A 
ATOM     22  C   UNL     1      -4.443  11.154  17.375  0.00  0.00    +0.000 A 
ATOM     23  C   UNL     1      -5.486  11.604  18.167  0.00  0.00    +0.000 A 
ATOM     24  F   UNL     1      -6.753  11.399  17.784  0.00  0.00    +0.000 F 
ATOM     25  C   UNL     1      -5.228  12.272  19.349  0.00  0.00    +0.000 A 
ATOM     26  C   UNL     1      -3.902  12.473  19.748  0.00  0.00    +0.000 A 
ENDBRANCH  17  20
ENDBRANCH   1  14
TORSDOF 4
ENDMDL
MODEL 5
REMARK VINA RESULT:      -7.0      4.608      7.716
REMARK  Name = 
REMARK  4 active torsions:
REMARK  status: ('A' for Active; 'I' for Inactive)
REMARK    1  A    between atoms: C_2  and  C_3
REMARK    2  A    between atoms: C_9  and  C_10
REMARK    3  A    between atoms: C_10  and  N_11
REMARK    4  A    between atoms: N_14  and  C_15
REMARK                            x       y       z     vdW  Elec       q    Type
REMARK                         _______ _______ _______ _____ _____    ______ ____
ROOT
ATOM      1  C   UNL     1       0.619   9.449  19.966  0.00  0.00    +0.000 C 
ENDROOT
BRANCH   1   8
ATOM      2  C   UNL     1       2.469   5.030  20.303  0.00  0.00    +0.000 A 
ATOM      3  C   UNL     1       3.297   4.736  19.215  0.00  0.00    +0.000 A 
ATOM      4  C   UNL     1       3.535   5.688  18.221  0.00  0.00    +0.000 A 
ATOM      5  C   UNL     1       2.928   6.945  18.350  0.00  0.00    +0.000 A 
ATOM      6  N   UNL     1       2.973   8.024  17.502  0.00  0.00    +0.000 N 
ATOM      7  C   UNL     1       2.211   9.049  17.986  0.00  0.00    +0.000 A 
ATOM      8  C   UNL     1       1.645   8.661  19.188  0.00  0.00    +0.000 A 
ATOM      9  C   UNL     1       2.102   7.295  19.423  0.00  0.00    +0.000 A 
ATOM     10  C   UNL     1       1.864   6.308  20.411  0.00  0.00    +0.000 A 
ATOM     11  H   UNL     1       3.462   8.032  16.618  0.00  0.00    +0.000 HD
BRANCH   2  13
ATOM     12  N   UNL     1       2.089   3.203  22.121  0.00  0.00    +0.000 NA
ATOM     13  C   UNL     1       2.234   4.020  21.309  0.00  0.00    +0.000 C 
ENDBRANCH   2  13
ENDBRANCH   1   8
BRANCH   1  14
ATOM     14  N   UNL     1       1.074  10.759  20.515  0.00  0.00    +0.000 NA
ATOM     15  C   UNL     1       1.099  11.749  19.403  0.00  0.00    +0.000 C 
ATOM     16  C   UNL     1      -0.281  12.034  18.743  0.00  0.00    +0.000 C 
ATOM     17  N   UNL     1      -1.447  12.039  19.673  0.00  0.00    +0.000 N 
ATOM     18  C   UNL     1      -1.292  11.437  21.018  0.00  0.00    +0.000 C 
ATOM     19  C   UNL     1       0.160  11.370  21.500  0.00  0.00    +0.000 C 
BRANCH  17  20
ATOM     20  C   UNL     1      -2.735  11.980  19.105  0.00  0.00    +0.000 A 
ATOM     21  C   UNL     1      -2.955  11.476  17.810  0.00  0.00    +0.000 A 
ATOM     22  C   UNL     1      -4.239  11.391  17.256  0.00  0.00    +0.000 A 
ATOM     23  C   UNL     1      -5.335  11.823  17.986  0.00  0.00    +0.000 A 
ATOM     24  F   UNL     1      -6.564  11.726  17.466  0.00  0.00    +0.000 F 
ATOM     25  C   UNL     1      -5.166  12.361  19.247  0.00  0.00    +0.000 A 
ATOM     26  C   UNL     1      -3.879  12.449  19.789  0.00  0.00    +0.000 A 
ENDBRANCH  17  20
ENDBRANCH   1  14
TORSDOF 4
ENDMDL
MODEL 6
REMARK VINA RESULT:      -6.9      3.965      7.211
REMARK  Name = 
REMARK  4 active torsions:
REMARK  status: ('A' for Active; 'I' for Inactive)
REMARK    1  A    between atoms: C_2  and  C_3
REMARK    2  A    between atoms: C_9  and  C_10
REMARK    3  A    between atoms: C_10  and  N_11
REMARK    4  A    between atoms: N_14  and  C_15
REMARK                            x       y       z     vdW  Elec       q    Type
REMARK                         _______ _______ _______ _____ _____    ______ ____
ROOT
ATOM      1  C   UNL     1       1.088   9.559  19.489  0.00  0.00    +0.000 C 
ENDROOT
BRANCH   1   8
ATOM      2  C   UNL     1       4.138   6.447  17.470  0.00  0.00    +0.000 A 
ATOM      3  C   UNL     1       4.328   5.320  18.275  0.00  0.00    +0.000 A 
ATOM      4  C   UNL     1       3.640   5.179  19.482  0.00  0.00    +0.000 A 
ATOM      5  C   UNL     1       2.750   6.195  19.857  0.00  0.00    +0.000 A 
ATOM      6  N   UNL     1       1.991   6.310  20.996  0.00  0.00    +0.000 N 
ATOM      7  C   UNL     1       1.280   7.476  20.986  0.00  0.00    +0.000 A 
ATOM      8  C   UNL     1       1.556   8.161  19.815  0.00  0.00    +0.000 A 
ATOM      9  C   UNL     1       2.513   7.336  19.085  0.00  0.00    +0.000 A 
ATOM     10  C   UNL     1       3.234   7.463  17.871  0.00  0.00    +0.000 A 
ATOM     11  H   UNL     1       2.003   5.644  21.756  0.00  0.00    +0.000 HD
BRANCH   2  13
ATOM     12  N   UNL     1       5.494   6.634  15.253  0.00  0.00    +0.000 NA
ATOM     13  C   UNL     1       4.874   6.568  16.232  0.00  0.00    +0.000 C 
ENDBRANCH   2  13
ENDBRANCH   1   8
BRANCH   1  14
ATOM     14  N   UNL     1      -0.224   9.965  20.070  0.00  0.00    +0.000 NA
ATOM     15  C   UNL     1       0.035  10.869  21.224  0.00  0.00    +0.000 C 
ATOM     16  C   UNL     1       0.760  12.199  20.872  0.00  0.00    +0.000 C 
ATOM     17  N   UNL     1       0.381  12.808  19.565  0.00  0.00    +0.000 N 
ATOM     18  C   UNL     1      -0.333  11.976  18.568  0.00  0.00    +0.000 C 
ATOM     19  C   UNL     1      -1.071  10.782  19.177  0.00  0.00    +0.000 C 
BRANCH  17  20
ATOM     20  C   UNL     1       1.212  13.825  19.053  0.00  0.00    +0.000 A 
ATOM     21  C   UNL     1       0.816  15.174  19.040  0.00  0.00    +0.000 A 
ATOM     22  C   UNL     1       1.655  16.188  18.558  0.00  0.00    +0.000 A 
ATOM     23  C   UNL     1       2.909  15.869  18.065  0.00  0.00    +0.000 A 
ATOM     24  F   UNL     1       3.719  16.838  17.619  0.00  0.00    +0.000 F 
ATOM     25  C   UNL     1       3.328  14.553  18.021  0.00  0.00    +0.000 A 
ATOM     26  C   UNL     1       2.481  13.547  18.497  0.00  0.00    +0.000 A 
ENDBRANCH  17  20
ENDBRANCH   1  14
TORSDOF 4
ENDMDL
MODEL 7
REMARK VINA RESULT:      -6.9      3.147      8.408
REMARK  Name = 
REMARK  4 active torsions:
REMARK  status: ('A' for Active; 'I' for Inactive)
REMARK    1  A    between atoms: C_2  and  C_3
REMARK    2  A    between atoms: C_9  and  C_10
REMARK    3  A    between atoms: C_10  and  N_11
REMARK    4  A    between atoms: N_14  and  C_15
REMARK                            x       y       z     vdW  Elec       q    Type
REMARK                         _______ _______ _______ _____ _____    ______ ____
ROOT
ATOM      1  C   UNL     1       3.545   5.955  19.679  0.00  0.00    +0.000 C 
ENDROOT
BRANCH   1   8
ATOM      2  C   UNL     1       0.641   9.318  21.499  0.00  0.00    +0.000 A 
ATOM      3  C   UNL     1       0.210  10.212  20.514  0.00  0.00    +0.000 A 
ATOM      4  C   UNL     1       0.592  10.045  19.181  0.00  0.00    +0.000 A 
ATOM      5  C   UNL     1       1.411   8.953  18.860  0.00  0.00    +0.000 A 
ATOM      6  N   UNL     1       1.946   8.594  17.648  0.00  0.00    +0.000 N 
ATOM      7  C   UNL     1       2.718   7.474  17.775  0.00  0.00    +0.000 A 
ATOM      8  C   UNL     1       2.700   7.063  19.096  0.00  0.00    +0.000 A 
ATOM      9  C   UNL     1       1.859   8.023  19.803  0.00  0.00    +0.000 A 
ATOM     10  C   UNL     1       1.470   8.222  21.151  0.00  0.00    +0.000 A 
ATOM     11  H   UNL     1       1.823   9.120  16.794  0.00  0.00    +0.000 HD
BRANCH   2  13
ATOM     12  N   UNL     1      -0.048   9.712  23.981  0.00  0.00    +0.000 NA
ATOM     13  C   UNL     1       0.237   9.526  22.871  0.00  0.00    +0.000 C 
ENDBRANCH   2  13
ENDBRANCH   1   8
BRANCH   1  14
ATOM     14  N   UNL     1       2.925   4.599  19.702  0.00  0.00    +0.000 NA
ATOM     15  C   UNL     1       2.159   4.413  18.439  0.00  0.00    +0.000 C 
ATOM     16  C   UNL     1       3.012   4.455  17.138  0.00  0.00    +0.000 C 
ATOM     17  N   UNL     1       4.369   3.847  17.242  0.00  0.00    +0.000 N 
ATOM     18  C   UNL     1       4.940   3.595  18.587  0.00  0.00    +0.000 C 
ATOM     19  C   UNL     1       3.886   3.478  19.690  0.00  0.00    +0.000 C 
BRANCH  17  20
ATOM     20  C   UNL     1       5.291   4.127  16.213  0.00  0.00    +0.000 A 
ATOM     21  C   UNL     1       5.054   3.748  14.879  0.00  0.00    +0.000 A 
ATOM     22  C   UNL     1       5.957   4.052  13.851  0.00  0.00    +0.000 A 
ATOM     23  C   UNL     1       7.126   4.737  14.141  0.00  0.00    +0.000 A 
ATOM     24  F   UNL     1       7.982   5.044  13.158  0.00  0.00    +0.000 F 
ATOM     25  C   UNL     1       7.421   5.097  15.442  0.00  0.00    +0.000 A 
ATOM     26  C   UNL     1       6.518   4.782  16.463  0.00  0.00    +0.000 A 
ENDBRANCH  17  20
ENDBRANCH   1  14
TORSDOF 4
ENDMDL
MODEL 8
REMARK VINA RESULT:      -6.8      4.283      6.562
REMARK  Name = 
REMARK  4 active torsions:
REMARK  status: ('A' for Active; 'I' for Inactive)
REMARK    1  A    between atoms: C_2  and  C_3
REMARK    2  A    between atoms: C_9  and  C_10
REMARK    3  A    between atoms: C_10  and  N_11
REMARK    4  A    between atoms: N_14  and  C_15
REMARK                            x       y       z     vdW  Elec       q    Type
REMARK                         _______ _______ _______ _____ _____    ______ ____
ROOT
ATOM      1  C   UNL     1       1.792   8.397  18.757  0.00  0.00    +0.000 C 
ENDROOT
BRANCH   1   8
ATOM      2  C   UNL     1       2.600   3.975  20.444  0.00  0.00    +0.000 A 
ATOM      3  C   UNL     1       3.670   3.362  19.784  0.00  0.00    +0.000 A 
ATOM      4  C   UNL     1       4.388   4.043  18.799  0.00  0.00    +0.000 A 
ATOM      5  C   UNL     1       4.009   5.359  18.497  0.00  0.00    +0.000 A 
ATOM      6  N   UNL     1       4.523   6.218  17.557  0.00  0.00    +0.000 N 
ATOM      7  C   UNL     1       3.843   7.403  17.565  0.00  0.00    +0.000 A 
ATOM      8  C   UNL     1       2.856   7.349  18.533  0.00  0.00    +0.000 A 
ATOM      9  C   UNL     1       2.956   6.023  19.134  0.00  0.00    +0.000 A 
ATOM     10  C   UNL     1       2.234   5.306  20.121  0.00  0.00    +0.000 A 
ATOM     11  H   UNL     1       5.266   5.980  16.916  0.00  0.00    +0.000 HD
BRANCH   2  13
ATOM     12  N   UNL     1       1.297   2.677  22.290  0.00  0.00    +0.000 NA
ATOM     13  C   UNL     1       1.872   3.238  21.451  0.00  0.00    +0.000 C 
ENDBRANCH   2  13
ENDBRANCH   1   8
BRANCH   1  14
ATOM     14  N   UNL     1       1.617   9.399  17.665  0.00  0.00    +0.000 NA
ATOM     15  C   UNL     1       0.168   9.485  17.337  0.00  0.00    +0.000 C 
ATOM     16  C   UNL     1      -0.744   9.976  18.498  0.00  0.00    +0.000 C 
ATOM     17  N   UNL     1      -0.152  11.024  19.378  0.00  0.00    +0.000 N 
ATOM     18  C   UNL     1       1.311  11.251  19.336  0.00  0.00    +0.000 C 
ATOM     19  C   UNL     1       1.969  10.785  18.034  0.00  0.00    +0.000 C 
BRANCH  17  20
ATOM     20  C   UNL     1      -0.790  11.278  20.609  0.00  0.00    +0.000 A 
ATOM     21  C   UNL     1      -1.818  12.231  20.731  0.00  0.00    +0.000 A 
ATOM     22  C   UNL     1      -2.473  12.464  21.948  0.00  0.00    +0.000 A 
ATOM     23  C   UNL     1      -2.101  11.752  23.078  0.00  0.00    +0.000 A 
ATOM     24  F   UNL     1      -2.736  11.960  24.237  0.00  0.00    +0.000 F 
ATOM     25  C   UNL     1      -1.071  10.833  23.017  0.00  0.00    +0.000 A 
ATOM     26  C   UNL     1      -0.419  10.613  21.799  0.00  0.00    +0.000 A 
ENDBRANCH  17  20
ENDBRANCH   1  14
TORSDOF 4
ENDMDL
MODEL 9
REMARK VINA RESULT:      -6.8      3.761      6.862
REMARK  Name = 
REMARK  4 active torsions:
REMARK  status: ('A' for Active; 'I' for Inactive)
REMARK    1  A    between atoms: C_2  and  C_3
REMARK    2  A    between atoms: C_9  and  C_10
REMARK    3  A    between atoms: C_10  and  N_11
REMARK    4  A    between atoms: N_14  and  C_15
REMARK                            x       y       z     vdW  Elec       q    Type
REMARK                         _______ _______ _______ _____ _____    ______ ____
ROOT
ATOM      1  C   UNL     1       1.572   9.503  19.223  0.00  0.00    +0.000 C 
ENDROOT
BRANCH   1   8
ATOM      2  C   UNL     1       4.337   6.046  17.361  0.00  0.00    +0.000 A 
ATOM      3  C   UNL     1       4.399   4.930  18.201  0.00  0.00    +0.000 A 
ATOM      4  C   UNL     1       3.676   4.894  19.396  0.00  0.00    +0.000 A 
ATOM      5  C   UNL     1       2.884   6.004  19.723  0.00  0.00    +0.000 A 
ATOM      6  N   UNL     1       2.119   6.227  20.841  0.00  0.00    +0.000 N 
ATOM      7  C   UNL     1       1.528   7.457  20.782  0.00  0.00    +0.000 A 
ATOM      8  C   UNL     1       1.892   8.076  19.599  0.00  0.00    +0.000 A 
ATOM      9  C   UNL     1       2.777   7.139  18.913  0.00  0.00    +0.000 A 
ATOM     10  C   UNL     1       3.531   7.158  17.713  0.00  0.00    +0.000 A 
ATOM     11  H   UNL     1       2.050   5.587  21.619  0.00  0.00    +0.000 HD
BRANCH   2  13
ATOM     12  N   UNL     1       5.703   6.027  15.142  0.00  0.00    +0.000 NA
ATOM     13  C   UNL     1       5.105   6.056  16.137  0.00  0.00    +0.000 C 
ENDBRANCH   2  13
ENDBRANCH   1   8
BRANCH   1  14
ATOM     14  N   UNL     1       1.064  10.373  20.323  0.00  0.00    +0.000 NA
ATOM     15  C   UNL     1       0.857  11.743  19.778  0.00  0.00    +0.000 C 
ATOM     16  C   UNL     1      -0.202  11.849  18.643  0.00  0.00    +0.000 C 
ATOM     17  N   UNL     1      -1.388  10.956  18.790  0.00  0.00    +0.000 N 
ATOM     18  C   UNL     1      -1.316   9.821  19.739  0.00  0.00    +0.000 C 
ATOM     19  C   UNL     1      -0.269  10.004  20.840  0.00  0.00    +0.000 C 
BRANCH  17  20
ATOM     20  C   UNL     1      -2.213  10.778  17.661  0.00  0.00    +0.000 A 
ATOM     21  C   UNL     1      -3.425  11.476  17.508  0.00  0.00    +0.000 A 
ATOM     22  C   UNL     1      -4.232  11.321  16.373  0.00  0.00    +0.000 A 
ATOM     23  C   UNL     1      -3.846  10.450  15.367  0.00  0.00    +0.000 A 
ATOM     24  F   UNL     1      -4.605  10.314  14.273  0.00  0.00    +0.000 F 
ATOM     25  C   UNL     1      -2.683   9.714  15.489  0.00  0.00    +0.000 A 
ATOM     26  C   UNL     1      -1.888   9.870  16.629  0.00  0.00    +0.000 A 
ENDBRANCH  17  20
ENDBRANCH   1  14
TORSDOF 4
ENDMDL
