MODEL 1
REMARK VINA RESULT:      -8.1      0.000      0.000
REMARK  Name = 
REMARK  4 active torsions:
REMARK  status: ('A' for Active; 'I' for Inactive)
REMARK    1  A    between atoms: C_1  and  C_2
REMARK    2  A    between atoms: N_5  and  C_6
REMARK    3  A    between atoms: N_9  and  S_10
REMARK    4  A    between atoms: S_10  and  C_13
REMARK                            x       y       z     vdW  Elec       q    Type
REMARK                         _______ _______ _______ _____ _____    ______ ____
ROOT
ATOM      1  C   UNL     1       2.943   5.494  18.559  0.00  0.00    +0.000 C 
ATOM      2  C   UNL     1       3.276   6.517  17.464  0.00  0.00    +0.000 C 
ATOM      3  C   UNL     1       4.674   6.433  16.873  0.00  0.00    +0.000 C 
ATOM      4  N   UNL     1       5.764   6.213  17.859  0.00  0.00    +0.000 NA
ATOM      5  C   UNL     1       5.445   5.494  19.123  0.00  0.00    +0.000 C 
ATOM      6  C   UNL     1       4.024   5.657  19.629  0.00  0.00    +0.000 C 
ENDROOT
BRANCH   1  11
ATOM      7  C   UNL     1       1.395   2.475  21.931  0.00  0.00    +0.000 C 
ATOM      8  C   UNL     1       1.648   2.333  20.425  0.00  0.00    +0.000 C 
ATOM      9  C   UNL     1       3.138   2.576  20.131  0.00  0.00    +0.000 C 
ATOM     10  C   UNL     1       3.439   3.049  18.712  0.00  0.00    +0.000 C 
ATOM     11  N   UNL     1       2.549   4.109  18.249  0.00  0.00    +0.000 NA
ATOM     12  C   UNL     1       1.172   3.645  18.264  0.00  0.00    +0.000 C 
ATOM     13  C   UNL     1       0.678   3.232  19.641  0.00  0.00    +0.000 C 
ENDBRANCH   1  11
BRANCH   4  14
ATOM     14  S   UNL     1       7.252   5.651  17.163  0.00  0.00    +0.000 S 
ATOM     15  O   UNL     1       8.040   6.827  16.838  0.00  0.00    +0.000 OA
ATOM     16  O   UNL     1       7.824   4.614  17.992  0.00  0.00    +0.000 OA
BRANCH  14  17
ATOM     17  C   UNL     1       6.754   4.962  15.624  0.00  0.00    +0.000 A 
ATOM     18  C   UNL     1       7.322   5.459  14.443  0.00  0.00    +0.000 A 
ATOM     19  C   UNL     1       7.017   4.855  13.225  0.00  0.00    +0.000 A 
ATOM     20  C   UNL     1       6.163   3.756  13.201  0.00  0.00    +0.000 A 
ATOM     21  F   UNL     1       5.877   3.175  12.030  0.00  0.00    +0.000 F 
ATOM     22  C   UNL     1       5.610   3.249  14.371  0.00  0.00    +0.000 A 
ATOM     23  C   UNL     1       5.914   3.856  15.587  0.00  0.00    +0.000 A 
ATOM     24  F   UNL     1       5.361   3.356  16.700  0.00  0.00    +0.000 F 
ENDBRANCH  14  17
ENDBRANCH   4  14
TORSDOF 3
ENDMDL
MODEL 2
REMARK VINA RESULT:      -7.7      1.042      1.414
REMARK  Name = 
REMARK  4 active torsions:
REMARK  status: ('A' for Active; 'I' for Inactive)
REMARK    1  A    between atoms: C_1  and  C_2
REMARK    2  A    between atoms: N_5  and  C_6
REMARK    3  A    between atoms: N_9  and  S_10
REMARK    4  A    between atoms: S_10  and  C_13
REMARK                            x       y       z     vdW  Elec       q    Type
REMARK                         _______ _______ _______ _____ _____    ______ ____
ROOT
ATOM      1  C   UNL     1       3.108   5.561  18.513  0.00  0.00    +0.000 C 
ATOM      2  C   UNL     1       3.415   6.640  17.466  0.00  0.00    +0.000 C 
ATOM      3  C   UNL     1       4.761   6.534  16.770  0.00  0.00    +0.000 C 
ATOM      4  N   UNL     1       5.905   6.197  17.656  0.00  0.00    +0.000 NA
ATOM      5  C   UNL     1       5.640   5.409  18.891  0.00  0.00    +0.000 C 
ATOM      6  C   UNL     1       4.269   5.601  19.510  0.00  0.00    +0.000 C 
ENDROOT
BRANCH   1  11
ATOM      7  C   UNL     1       1.503   2.449  21.773  0.00  0.00    +0.000 C 
ATOM      8  C   UNL     1       1.696   2.378  20.253  0.00  0.00    +0.000 C 
ATOM      9  C   UNL     1       3.186   2.554  19.918  0.00  0.00    +0.000 C 
ATOM     10  C   UNL     1       3.467   3.087  18.516  0.00  0.00    +0.000 C 
ATOM     11  N   UNL     1       2.624   4.220  18.144  0.00  0.00    +0.000 NA
ATOM     12  C   UNL     1       1.225   3.833  18.185  0.00  0.00    +0.000 C 
ATOM     13  C   UNL     1       0.754   3.372  19.555  0.00  0.00    +0.000 C 
ENDBRANCH   1  11
BRANCH   4  14
ATOM     14  S   UNL     1       7.311   5.617  16.818  0.00  0.00    +0.000 S 
ATOM     15  O   UNL     1       8.017   6.782  16.315  0.00  0.00    +0.000 OA
ATOM     16  O   UNL     1       8.012   4.655  17.636  0.00  0.00    +0.000 OA
BRANCH  14  17
ATOM     17  C   UNL     1       6.645   4.808  15.405  0.00  0.00    +0.000 A 
ATOM     18  C   UNL     1       5.435   4.111  15.530  0.00  0.00    +0.000 A 
ATOM     19  C   UNL     1       4.843   3.554  14.400  0.00  0.00    +0.000 A 
ATOM     20  C   UNL     1       5.454   3.709  13.159  0.00  0.00    +0.000 A 
ATOM     21  F   UNL     1       4.879   3.176  12.074  0.00  0.00    +0.000 F 
ATOM     22  C   UNL     1       6.646   4.412  13.027  0.00  0.00    +0.000 A 
ATOM     23  C   UNL     1       7.238   4.967  14.159  0.00  0.00    +0.000 A 
ATOM     24  F   UNL     1       8.391   5.631  14.009  0.00  0.00    +0.000 F 
ENDBRANCH  14  17
ENDBRANCH   4  14
TORSDOF 3
ENDMDL
MODEL 3
REMARK VINA RESULT:      -7.7      1.936      3.098
REMARK  Name = 
REMARK  4 active torsions:
REMARK  status: ('A' for Active; 'I' for Inactive)
REMARK    1  A    between atoms: C_1  and  C_2
REMARK    2  A    between atoms: N_5  and  C_6
REMARK    3  A    between atoms: N_9  and  S_10
REMARK    4  A    between atoms: S_10  and  C_13
REMARK                            x       y       z     vdW  Elec       q    Type
REMARK                         _______ _______ _______ _____ _____    ______ ____
ROOT
ATOM      1  C   UNL     1       3.074   1.702  19.709  0.00  0.00    +0.000 C 
ATOM      2  C   UNL     1       4.431   2.211  20.215  0.00  0.00    +0.000 C 
ATOM      3  C   UNL     1       4.960   3.474  19.557  0.00  0.00    +0.000 C 
ATOM      4  N   UNL     1       4.794   3.533  18.081  0.00  0.00    +0.000 NA
ATOM      5  C   UNL     1       3.665   2.787  17.462  0.00  0.00    +0.000 C 
ATOM      6  C   UNL     1       3.226   1.534  18.196  0.00  0.00    +0.000 C 
ENDROOT
BRANCH   1  11
ATOM      7  C   UNL     1       2.396   6.423  20.085  0.00  0.00    +0.000 C 
ATOM      8  C   UNL     1       1.517   5.205  20.392  0.00  0.00    +0.000 C 
ATOM      9  C   UNL     1       2.183   4.359  21.491  0.00  0.00    +0.000 C 
ATOM     10  C   UNL     1       1.782   2.887  21.493  0.00  0.00    +0.000 C 
ATOM     11  N   UNL     1       1.797   2.277  20.167  0.00  0.00    +0.000 NA
ATOM     12  C   UNL     1       0.871   2.973  19.289  0.00  0.00    +0.000 C 
ATOM     13  C   UNL     1       1.197   4.445  19.095  0.00  0.00    +0.000 C 
ENDBRANCH   1  11
BRANCH   4  14
ATOM     14  S   UNL     1       4.952   5.126  17.409  0.00  0.00    +0.000 S 
ATOM     15  O   UNL     1       3.614   5.581  17.074  0.00  0.00    +0.000 OA
ATOM     16  O   UNL     1       5.791   5.939  18.260  0.00  0.00    +0.000 OA
BRANCH  14  17
ATOM     17  C   UNL     1       5.767   4.850  15.876  0.00  0.00    +0.000 A 
ATOM     18  C   UNL     1       5.114   4.103  14.885  0.00  0.00    +0.000 A 
ATOM     19  C   UNL     1       5.701   3.964  13.630  0.00  0.00    +0.000 A 
ATOM     20  C   UNL     1       6.923   4.580  13.373  0.00  0.00    +0.000 A 
ATOM     21  F   UNL     1       7.481   4.448  12.164  0.00  0.00    +0.000 F 
ATOM     22  C   UNL     1       7.567   5.334  14.347  0.00  0.00    +0.000 A 
ATOM     23  C   UNL     1       6.980   5.471  15.602  0.00  0.00    +0.000 A 
ATOM     24  F   UNL     1       7.623   6.194  16.527  0.00  0.00    +0.000 F 
ENDBRANCH  14  17
ENDBRANCH   4  14
TORSDOF 3
ENDMDL
MODEL 4
REMARK VINA RESULT:      -7.6      1.921      3.005
REMARK  Name = 
REMARK  4 active torsions:
REMARK  status: ('A' for Active; 'I' for Inactive)
REMARK    1  A    between atoms: C_1  and  C_2
REMARK    2  A    between atoms: N_5  and  C_6
REMARK    3  A    between atoms: N_9  and  S_10
REMARK    4  A    between atoms: S_10  and  C_13
REMARK                            x       y       z     vdW  Elec       q    Type
REMARK                         _______ _______ _______ _____ _____    ______ ____
ROOT
ATOM      1  C   UNL     1       2.005   2.088  18.759  0.00  0.00    +0.000 C 
ATOM      2  C   UNL     1       3.268   1.403  18.220  0.00  0.00    +0.000 C 
ATOM      3  C   UNL     1       4.408   2.323  17.816  0.00  0.00    +0.000 C 
ATOM      4  N   UNL     1       4.001   3.539  17.065  0.00  0.00    +0.000 NA
ATOM      5  C   UNL     1       2.640   4.096  17.295  0.00  0.00    +0.000 C 
ATOM      6  C   UNL     1       1.576   3.086  17.682  0.00  0.00    +0.000 C 
ENDROOT
BRANCH   1  11
ATOM      7  C   UNL     1       2.323   6.720  19.910  0.00  0.00    +0.000 C 
ATOM      8  C   UNL     1       2.149   5.439  20.735  0.00  0.00    +0.000 C 
ATOM      9  C   UNL     1       3.376   4.534  20.537  0.00  0.00    +0.000 C 
ATOM     10  C   UNL     1       3.120   3.050  20.780  0.00  0.00    +0.000 C 
ATOM     11  N   UNL     1       1.897   2.559  20.151  0.00  0.00    +0.000 NA
ATOM     12  C   UNL     1       0.748   3.283  20.665  0.00  0.00    +0.000 C 
ATOM     13  C   UNL     1       0.799   4.780  20.407  0.00  0.00    +0.000 C 
ENDBRANCH   1  11
BRANCH   4  14
ATOM     14  S   UNL     1       5.205   4.789  17.027  0.00  0.00    +0.000 S 
ATOM     15  O   UNL     1       4.500   6.058  16.976  0.00  0.00    +0.000 OA
ATOM     16  O   UNL     1       6.188   4.559  18.061  0.00  0.00    +0.000 OA
BRANCH  14  17
ATOM     17  C   UNL     1       5.958   4.591  15.450  0.00  0.00    +0.000 A 
ATOM     18  C   UNL     1       5.346   3.754  14.507  0.00  0.00    +0.000 A 
ATOM     19  C   UNL     1       5.872   3.668  13.220  0.00  0.00    +0.000 A 
ATOM     20  C   UNL     1       6.991   4.425  12.885  0.00  0.00    +0.000 A 
ATOM     21  F   UNL     1       7.490   4.344  11.646  0.00  0.00    +0.000 F 
ATOM     22  C   UNL     1       7.593   5.268  13.813  0.00  0.00    +0.000 A 
ATOM     23  C   UNL     1       7.067   5.352  15.099  0.00  0.00    +0.000 A 
ATOM     24  F   UNL     1       7.669   6.163  15.979  0.00  0.00    +0.000 F 
ENDBRANCH  14  17
ENDBRANCH   4  14
TORSDOF 3
ENDMDL
MODEL 5
REMARK VINA RESULT:      -7.5      2.766      4.291
REMARK  Name = 
REMARK  4 active torsions:
REMARK  status: ('A' for Active; 'I' for Inactive)
REMARK    1  A    between atoms: C_1  and  C_2
REMARK    2  A    between atoms: N_5  and  C_6
REMARK    3  A    between atoms: N_9  and  S_10
REMARK    4  A    between atoms: S_10  and  C_13
REMARK                            x       y       z     vdW  Elec       q    Type
REMARK                         _______ _______ _______ _____ _____    ______ ____
ROOT
ATOM      1  C   UNL     1       2.986   2.238  19.831  0.00  0.00    +0.000 C 
ATOM      2  C   UNL     1       4.308   2.898  20.245  0.00  0.00    +0.000 C 
ATOM      3  C   UNL     1       5.016   3.709  19.172  0.00  0.00    +0.000 C 
ATOM      4  N   UNL     1       5.037   3.087  17.822  0.00  0.00    +0.000 NA
ATOM      5  C   UNL     1       3.935   2.160  17.449  0.00  0.00    +0.000 C 
ATOM      6  C   UNL     1       3.307   1.392  18.597  0.00  0.00    +0.000 C 
ENDROOT
BRANCH   1  11
ATOM      7  C   UNL     1       2.777   6.858  18.608  0.00  0.00    +0.000 C 
ATOM      8  C   UNL     1       1.723   5.838  19.054  0.00  0.00    +0.000 C 
ATOM      9  C   UNL     1       2.048   5.357  20.478  0.00  0.00    +0.000 C 
ATOM     10  C   UNL     1       1.494   3.979  20.829  0.00  0.00    +0.000 C 
ATOM     11  N   UNL     1       1.714   2.980  19.786  0.00  0.00    +0.000 NA
ATOM     12  C   UNL     1       1.074   3.400  18.552  0.00  0.00    +0.000 C 
ATOM     13  C   UNL     1       1.595   4.720  18.007  0.00  0.00    +0.000 C 
ENDBRANCH   1  11
BRANCH   4  14
ATOM     14  S   UNL     1       5.407   4.192  16.535  0.00  0.00    +0.000 S 
ATOM     15  O   UNL     1       6.306   3.502  15.627  0.00  0.00    +0.000 OA
ATOM     16  O   UNL     1       4.189   4.780  16.025  0.00  0.00    +0.000 OA
BRANCH  14  17
ATOM     17  C   UNL     1       6.373   5.434  17.320  0.00  0.00    +0.000 A 
ATOM     18  C   UNL     1       7.326   5.051  18.274  0.00  0.00    +0.000 A 
ATOM     19  C   UNL     1       8.169   6.011  18.827  0.00  0.00    +0.000 A 
ATOM     20  C   UNL     1       8.062   7.336  18.415  0.00  0.00    +0.000 A 
ATOM     21  F   UNL     1       8.878   8.255  18.946  0.00  0.00    +0.000 F 
ATOM     22  C   UNL     1       7.129   7.719  17.459  0.00  0.00    +0.000 A 
ATOM     23  C   UNL     1       6.285   6.758  16.908  0.00  0.00    +0.000 A 
ATOM     24  F   UNL     1       5.388   7.152  15.995  0.00  0.00    +0.000 F 
ENDBRANCH  14  17
ENDBRANCH   4  14
TORSDOF 3
ENDMDL
MODEL 6
REMARK VINA RESULT:      -7.4      3.143      4.027
REMARK  Name = 
REMARK  4 active torsions:
REMARK  status: ('A' for Active; 'I' for Inactive)
REMARK    1  A    between atoms: C_1  and  C_2
REMARK    2  A    between atoms: N_5  and  C_6
REMARK    3  A    between atoms: N_9  and  S_10
REMARK    4  A    between atoms: S_10  and  C_13
REMARK                            x       y       z     vdW  Elec       q    Type
REMARK                         _______ _______ _______ _____ _____    ______ ____
ROOT
ATOM      1  C   UNL     1       1.455   5.047  19.333  0.00  0.00    +0.000 C 
ATOM      2  C   UNL     1       1.701   4.995  17.819  0.00  0.00    +0.000 C 
ATOM      3  C   UNL     1       3.132   4.727  17.383  0.00  0.00    +0.000 C 
ATOM      4  N   UNL     1       4.173   5.460  18.149  0.00  0.00    +0.000 NA
ATOM      5  C   UNL     1       3.883   5.841  19.558  0.00  0.00    +0.000 C 
ATOM      6  C   UNL     1       2.423   6.098  19.881  0.00  0.00    +0.000 C 
ENDROOT
BRANCH   1  11
ATOM      7  C   UNL     1       3.979   1.074  18.481  0.00  0.00    +0.000 C 
ATOM      8  C   UNL     1       2.887   1.431  19.497  0.00  0.00    +0.000 C 
ATOM      9  C   UNL     1       1.589   1.781  18.751  0.00  0.00    +0.000 C 
ATOM     10  C   UNL     1       0.637   2.692  19.519  0.00  0.00    +0.000 C 
ATOM     11  N   UNL     1       1.300   3.830  20.149  0.00  0.00    +0.000 NA
ATOM     12  C   UNL     1       2.302   3.364  21.091  0.00  0.00    +0.000 C 
ATOM     13  C   UNL     1       3.396   2.520  20.457  0.00  0.00    +0.000 C 
ENDBRANCH   1  11
BRANCH   4  14
ATOM     14  S   UNL     1       5.774   4.809  17.980  0.00  0.00    +0.000 S 
ATOM     15  O   UNL     1       6.074   4.094  19.208  0.00  0.00    +0.000 OA
ATOM     16  O   UNL     1       5.898   4.131  16.710  0.00  0.00    +0.000 OA
BRANCH  14  17
ATOM     17  C   UNL     1       6.803   6.234  17.985  0.00  0.00    +0.000 A 
ATOM     18  C   UNL     1       6.457   7.324  17.174  0.00  0.00    +0.000 A 
ATOM     19  C   UNL     1       7.203   8.498  17.245  0.00  0.00    +0.000 A 
ATOM     20  C   UNL     1       8.273   8.577  18.131  0.00  0.00    +0.000 A 
ATOM     21  F   UNL     1       8.984   9.709  18.200  0.00  0.00    +0.000 F 
ATOM     22  C   UNL     1       8.612   7.505  18.948  0.00  0.00    +0.000 A 
ATOM     23  C   UNL     1       7.867   6.331  18.875  0.00  0.00    +0.000 A 
ATOM     24  F   UNL     1       8.216   5.308  19.665  0.00  0.00    +0.000 F 
ENDBRANCH  14  17
ENDBRANCH   4  14
TORSDOF 3
ENDMDL
MODEL 7
REMARK VINA RESULT:      -7.3      6.062      7.756
REMARK  Name = 
REMARK  4 active torsions:
REMARK  status: ('A' for Active; 'I' for Inactive)
REMARK    1  A    between atoms: C_1  and  C_2
REMARK    2  A    between atoms: N_5  and  C_6
REMARK    3  A    between atoms: N_9  and  S_10
REMARK    4  A    between atoms: S_10  and  C_13
REMARK                            x       y       z     vdW  Elec       q    Type
REMARK                         _______ _______ _______ _____ _____    ______ ____
ROOT
ATOM      1  C   UNL     1       2.510   6.109  19.234  0.00  0.00    +0.000 C 
ATOM      2  C   UNL     1       2.448   6.983  20.494  0.00  0.00    +0.000 C 
ATOM      3  C   UNL     1       1.499   8.169  20.440  0.00  0.00    +0.000 C 
ATOM      4  N   UNL     1       1.515   8.932  19.165  0.00  0.00    +0.000 NA
ATOM      5  C   UNL     1       1.887   8.218  17.913  0.00  0.00    +0.000 C 
ATOM      6  C   UNL     1       2.850   7.058  18.082  0.00  0.00    +0.000 C 
ENDROOT
BRANCH   1  11
ATOM      7  C   UNL     1       3.680   1.513  18.608  0.00  0.00    +0.000 C 
ATOM      8  C   UNL     1       2.355   2.283  18.536  0.00  0.00    +0.000 C 
ATOM      9  C   UNL     1       2.434   3.332  17.415  0.00  0.00    +0.000 C 
ATOM     10  C   UNL     1       1.496   4.523  17.589  0.00  0.00    +0.000 C 
ATOM     11  N   UNL     1       1.501   5.077  18.940  0.00  0.00    +0.000 NA
ATOM     12  C   UNL     1       1.090   4.063  19.895  0.00  0.00    +0.000 C 
ATOM     13  C   UNL     1       1.995   2.842  19.922  0.00  0.00    +0.000 C 
ENDBRANCH   1  11
BRANCH   4  14
ATOM     14  S   UNL     1       0.132   9.956  18.929  0.00  0.00    +0.000 S 
ATOM     15  O   UNL     1      -0.397   9.659  17.610  0.00  0.00    +0.000 OA
ATOM     16  O   UNL     1      -0.737   9.883  20.081  0.00  0.00    +0.000 OA
BRANCH  14  17
ATOM     17  C   UNL     1       0.825  11.569  18.821  0.00  0.00    +0.000 A 
ATOM     18  C   UNL     1       2.176  11.704  18.470  0.00  0.00    +0.000 A 
ATOM     19  C   UNL     1       2.712  12.975  18.278  0.00  0.00    +0.000 A 
ATOM     20  C   UNL     1       1.895  14.093  18.427  0.00  0.00    +0.000 A 
ATOM     21  F   UNL     1       2.413  15.312  18.237  0.00  0.00    +0.000 F 
ATOM     22  C   UNL     1       0.552  13.963  18.761  0.00  0.00    +0.000 A 
ATOM     23  C   UNL     1       0.018  12.692  18.953  0.00  0.00    +0.000 A 
ATOM     24  F   UNL     1      -1.276  12.591  19.284  0.00  0.00    +0.000 F 
ENDBRANCH  14  17
ENDBRANCH   4  14
TORSDOF 3
ENDMDL
MODEL 8
REMARK VINA RESULT:      -7.3      5.839      7.740
REMARK  Name = 
REMARK  4 active torsions:
REMARK  status: ('A' for Active; 'I' for Inactive)
REMARK    1  A    between atoms: C_1  and  C_2
REMARK    2  A    between atoms: N_5  and  C_6
REMARK    3  A    between atoms: N_9  and  S_10
REMARK    4  A    between atoms: S_10  and  C_13
REMARK                            x       y       z     vdW  Elec       q    Type
REMARK                         _______ _______ _______ _____ _____    ______ ____
ROOT
ATOM      1  C   UNL     1       2.550   5.976  19.316  0.00  0.00    +0.000 C 
ATOM      2  C   UNL     1       2.463   6.777  20.623  0.00  0.00    +0.000 C 
ATOM      3  C   UNL     1       1.550   7.991  20.604  0.00  0.00    +0.000 C 
ATOM      4  N   UNL     1       1.634   8.825  19.376  0.00  0.00    +0.000 NA
ATOM      5  C   UNL     1       2.033   8.174  18.100  0.00  0.00    +0.000 C 
ATOM      6  C   UNL     1       2.958   6.978  18.235  0.00  0.00    +0.000 C 
ENDROOT
BRANCH   1  11
ATOM      7  C   UNL     1       3.612   1.383  18.501  0.00  0.00    +0.000 C 
ATOM      8  C   UNL     1       2.315   2.196  18.414  0.00  0.00    +0.000 C 
ATOM      9  C   UNL     1       2.473   3.299  17.354  0.00  0.00    +0.000 C 
ATOM     10  C   UNL     1       1.563   4.508  17.549  0.00  0.00    +0.000 C 
ATOM     11  N   UNL     1       1.525   4.992  18.926  0.00  0.00    +0.000 NA
ATOM     12  C   UNL     1       1.044   3.944  19.809  0.00  0.00    +0.000 C 
ATOM     13  C   UNL     1       1.911   2.695  19.810  0.00  0.00    +0.000 C 
ENDBRANCH   1  11
BRANCH   4  14
ATOM     14  S   UNL     1       0.289   9.901  19.152  0.00  0.00    +0.000 S 
ATOM     15  O   UNL     1      -0.072   9.842  17.747  0.00  0.00    +0.000 OA
ATOM     16  O   UNL     1      -0.716   9.650  20.160  0.00  0.00    +0.000 OA
BRANCH  14  17
ATOM     17  C   UNL     1       0.987  11.495  19.406  0.00  0.00    +0.000 A 
ATOM     18  C   UNL     1       0.591  12.238  20.527  0.00  0.00    +0.000 A 
ATOM     19  C   UNL     1       1.210  13.455  20.799  0.00  0.00    +0.000 A 
ATOM     20  C   UNL     1       2.223  13.911  19.960  0.00  0.00    +0.000 A 
ATOM     21  F   UNL     1       2.820  15.079  20.228  0.00  0.00    +0.000 F 
ATOM     22  C   UNL     1       2.631  13.170  18.856  0.00  0.00    +0.000 A 
ATOM     23  C   UNL     1       2.009  11.954  18.585  0.00  0.00    +0.000 A 
ATOM     24  F   UNL     1       2.411  11.263  17.510  0.00  0.00    +0.000 F 
ENDBRANCH  14  17
ENDBRANCH   4  14
TORSDOF 3
ENDMDL
MODEL 9
REMARK VINA RESULT:      -7.2      5.903      7.682
REMARK  Name = 
REMARK  4 active torsions:
REMARK  status: ('A' for Active; 'I' for Inactive)
REMARK    1  A    between atoms: C_1  and  C_2
REMARK    2  A    between atoms: N_5  and  C_6
REMARK    3  A    between atoms: N_9  and  S_10
REMARK    4  A    between atoms: S_10  and  C_13
REMARK                            x       y       z     vdW  Elec       q    Type
REMARK                         _______ _______ _______ _____ _____    ______ ____
ROOT
ATOM      1  C   UNL     1       2.510   5.771  19.578  0.00  0.00    +0.000 C 
ATOM      2  C   UNL     1       2.264   6.546  20.880  0.00  0.00    +0.000 C 
ATOM      3  C   UNL     1       1.418   7.803  20.761  0.00  0.00    +0.000 C 
ATOM      4  N   UNL     1       1.723   8.660  19.585  0.00  0.00    +0.000 NA
ATOM      5  C   UNL     1       2.282   8.019  18.364  0.00  0.00    +0.000 C 
ATOM      6  C   UNL     1       3.121   6.777  18.600  0.00  0.00    +0.000 C 
ENDROOT
BRANCH   1  11
ATOM      7  C   UNL     1       3.602   1.266  18.397  0.00  0.00    +0.000 C 
ATOM      8  C   UNL     1       2.322   2.104  18.287  0.00  0.00    +0.000 C 
ATOM      9  C   UNL     1       2.574   3.303  17.358  0.00  0.00    +0.000 C 
ATOM     10  C   UNL     1       1.661   4.501  17.600  0.00  0.00    +0.000 C 
ATOM     11  N   UNL     1       1.514   4.847  19.011  0.00  0.00    +0.000 NA
ATOM     12  C   UNL     1       0.954   3.724  19.743  0.00  0.00    +0.000 C 
ATOM     13  C   UNL     1       1.808   2.468  19.689  0.00  0.00    +0.000 C 
ENDBRANCH   1  11
BRANCH   4  14
ATOM     14  S   UNL     1       0.477   9.803  19.193  0.00  0.00    +0.000 S 
ATOM     15  O   UNL     1       0.202   9.664  17.774  0.00  0.00    +0.000 OA
ATOM     16  O   UNL     1      -0.606   9.698  20.145  0.00  0.00    +0.000 OA
BRANCH  14  17
ATOM     17  C   UNL     1       1.271  11.361  19.382  0.00  0.00    +0.000 A 
ATOM     18  C   UNL     1       1.976  11.899  18.296  0.00  0.00    +0.000 A 
ATOM     19  C   UNL     1       2.521  13.177  18.395  0.00  0.00    +0.000 A 
ATOM     20  C   UNL     1       2.347  13.907  19.567  0.00  0.00    +0.000 A 
ATOM     21  F   UNL     1       2.868  15.136  19.657  0.00  0.00    +0.000 F 
ATOM     22  C   UNL     1       1.635  13.384  20.642  0.00  0.00    +0.000 A 
ATOM     23  C   UNL     1       1.092  12.106  20.541  0.00  0.00    +0.000 A 
ATOM     24  F   UNL     1       0.420  11.619  21.592  0.00  0.00    +0.000 F 
ENDBRANCH  14  17
ENDBRANCH   4  14
TORSDOF 3
ENDMDL
