MODEL 1
REMARK VINA RESULT:      -7.9      0.000      0.000
REMARK  Name = 
REMARK  5 active torsions:
REMARK  status: ('A' for Active; 'I' for Inactive)
REMARK    1  A    between atoms: C_5  and  C_6
REMARK    2  A    between atoms: C_9  and  O_10
REMARK    3  A    between atoms: C_11  and  O_12
REMARK    4  A    between atoms: C_14  and  C_15
REMARK    5  A    between atoms: C_18  and  O_19
REMARK                            x       y       z     vdW  Elec       q    Type
REMARK                         _______ _______ _______ _____ _____    ______ ____
ROOT
ATOM      1  O   UNL     1       0.894   4.010  17.533  0.00  0.00    +0.000 OA
ATOM      2  C   UNL     1       2.110   4.045  17.479  0.00  0.00    +0.000 C 
ATOM      3  O   UNL     1       2.894   3.051  16.972  0.00  0.00    +0.000 OA
ATOM      4  C   UNL     1       4.264   3.430  17.080  0.00  0.00    +0.000 C 
ATOM      5  C   UNL     1       4.224   4.756  17.728  0.00  0.00    +0.000 C 
ATOM      6  C   UNL     1       2.968   5.147  17.954  0.00  0.00    +0.000 C 
ENDROOT
BRANCH   5   7
ATOM      7  C   UNL     1       5.453   5.474  18.041  0.00  0.00    +0.000 A 
ATOM      8  C   UNL     1       5.875   6.536  17.226  0.00  0.00    +0.000 A 
ATOM      9  C   UNL     1       7.039   7.249  17.531  0.00  0.00    +0.000 A 
ATOM     10  C   UNL     1       7.775   6.893  18.654  0.00  0.00    +0.000 A 
ATOM     11  C   UNL     1       7.361   5.833  19.458  0.00  0.00    +0.000 A 
ATOM     12  C   UNL     1       6.210   5.116  19.161  0.00  0.00    +0.000 A 
BRANCH  10  13
ATOM     13  O   UNL     1       8.913   7.557  19.015  0.00  0.00    +0.000 OA
ATOM     14  H   UNL     1       9.210   7.207  19.873  0.00  0.00    +0.000 HD
ENDBRANCH  10  13
BRANCH  11  15
ATOM     15  O   UNL     1       8.090   5.492  20.563  0.00  0.00    +0.000 OA
ATOM     16  H   UNL     1       9.013   5.708  20.324  0.00  0.00    +0.000 HD
ENDBRANCH  11  15
ENDBRANCH   5   7
BRANCH   6  17
ATOM     17  C   UNL     1       2.484   6.384  18.548  0.00  0.00    +0.000 A 
ATOM     18  C   UNL     1       2.327   7.531  17.758  0.00  0.00    +0.000 A 
ATOM     19  C   UNL     1       1.848   8.716  18.322  0.00  0.00    +0.000 A 
ATOM     20  C   UNL     1       1.535   8.751  19.678  0.00  0.00    +0.000 A 
ATOM     21  C   UNL     1       1.695   7.622  20.475  0.00  0.00    +0.000 A 
ATOM     22  C   UNL     1       2.171   6.438  19.911  0.00  0.00    +0.000 A 
BRANCH  20  23
ATOM     23  O   UNL     1       1.062   9.883  20.270  0.00  0.00    +0.000 OA
ATOM     24  H   UNL     1       0.721  10.475  19.579  0.00  0.00    +0.000 HD
ENDBRANCH  20  23
ENDBRANCH   6  17
TORSDOF 5
ENDMDL
MODEL 2
REMARK VINA RESULT:      -7.9      0.255      1.086
REMARK  Name = 
REMARK  5 active torsions:
REMARK  status: ('A' for Active; 'I' for Inactive)
REMARK    1  A    between atoms: C_5  and  C_6
REMARK    2  A    between atoms: C_9  and  O_10
REMARK    3  A    between atoms: C_11  and  O_12
REMARK    4  A    between atoms: C_14  and  C_15
REMARK    5  A    between atoms: C_18  and  O_19
REMARK                            x       y       z     vdW  Elec       q    Type
REMARK                         _______ _______ _______ _____ _____    ______ ____
ROOT
ATOM      1  O   UNL     1       0.820   3.795  17.775  0.00  0.00    +0.000 OA
ATOM      2  C   UNL     1       2.031   3.859  17.658  0.00  0.00    +0.000 C 
ATOM      3  O   UNL     1       2.808   2.893  17.091  0.00  0.00    +0.000 OA
ATOM      4  C   UNL     1       4.174   3.303  17.134  0.00  0.00    +0.000 C 
ATOM      5  C   UNL     1       4.138   4.616  17.809  0.00  0.00    +0.000 C 
ATOM      6  C   UNL     1       2.887   4.973  18.108  0.00  0.00    +0.000 C 
ENDROOT
BRANCH   5   7
ATOM      7  C   UNL     1       5.365   5.357  18.072  0.00  0.00    +0.000 A 
ATOM      8  C   UNL     1       5.770   6.380  17.200  0.00  0.00    +0.000 A 
ATOM      9  C   UNL     1       6.932   7.115  17.454  0.00  0.00    +0.000 A 
ATOM     10  C   UNL     1       7.684   6.820  18.584  0.00  0.00    +0.000 A 
ATOM     11  C   UNL     1       7.288   5.799  19.445  0.00  0.00    +0.000 A 
ATOM     12  C   UNL     1       6.138   5.060  19.198  0.00  0.00    +0.000 A 
BRANCH  10  13
ATOM     13  O   UNL     1       8.821   7.509  18.898  0.00  0.00    +0.000 OA
ATOM     14  H   UNL     1       9.325   6.986  19.545  0.00  0.00    +0.000 HD
ENDBRANCH  10  13
BRANCH  11  15
ATOM     15  O   UNL     1       8.031   5.518  20.557  0.00  0.00    +0.000 OA
ATOM     16  H   UNL     1       8.908   5.908  20.369  0.00  0.00    +0.000 HD
ENDBRANCH  11  15
ENDBRANCH   5   7
BRANCH   6  17
ATOM     17  C   UNL     1       2.407   6.187  18.751  0.00  0.00    +0.000 A 
ATOM     18  C   UNL     1       2.073   6.180  20.112  0.00  0.00    +0.000 A 
ATOM     19  C   UNL     1       1.627   7.348  20.735  0.00  0.00    +0.000 A 
ATOM     20  C   UNL     1       1.511   8.519  19.991  0.00  0.00    +0.000 A 
ATOM     21  C   UNL     1       1.831   8.537  18.638  0.00  0.00    +0.000 A 
ATOM     22  C   UNL     1       2.278   7.371  18.016  0.00  0.00    +0.000 A 
BRANCH  20  23
ATOM     23  O   UNL     1       1.084   9.682  20.558  0.00  0.00    +0.000 OA
ATOM     24  H   UNL     1       0.265   9.505  21.049  0.00  0.00    +0.000 HD
ENDBRANCH  20  23
ENDBRANCH   6  17
TORSDOF 5
ENDMDL
MODEL 3
REMARK VINA RESULT:      -7.5      2.059      5.235
REMARK  Name = 
REMARK  5 active torsions:
REMARK  status: ('A' for Active; 'I' for Inactive)
REMARK    1  A    between atoms: C_5  and  C_6
REMARK    2  A    between atoms: C_9  and  O_10
REMARK    3  A    between atoms: C_11  and  O_12
REMARK    4  A    between atoms: C_14  and  C_15
REMARK    5  A    between atoms: C_18  and  O_19
REMARK                            x       y       z     vdW  Elec       q    Type
REMARK                         _______ _______ _______ _____ _____    ______ ____
ROOT
ATOM      1  O   UNL     1       3.726   1.179  18.477  0.00  0.00    +0.000 OA
ATOM      2  C   UNL     1       3.090   2.130  18.896  0.00  0.00    +0.000 C 
ATOM      3  O   UNL     1       1.982   2.036  19.687  0.00  0.00    +0.000 OA
ATOM      4  C   UNL     1       1.497   3.346  19.974  0.00  0.00    +0.000 C 
ATOM      5  C   UNL     1       2.422   4.242  19.252  0.00  0.00    +0.000 C 
ATOM      6  C   UNL     1       3.378   3.551  18.627  0.00  0.00    +0.000 C 
ENDROOT
BRANCH   5   7
ATOM      7  C   UNL     1       2.236   5.688  19.276  0.00  0.00    +0.000 A 
ATOM      8  C   UNL     1       2.329   6.429  18.088  0.00  0.00    +0.000 A 
ATOM      9  C   UNL     1       2.129   7.813  18.094  0.00  0.00    +0.000 A 
ATOM     10  C   UNL     1       1.835   8.448  19.294  0.00  0.00    +0.000 A 
ATOM     11  C   UNL     1       1.751   7.714  20.475  0.00  0.00    +0.000 A 
ATOM     12  C   UNL     1       1.953   6.340  20.480  0.00  0.00    +0.000 A 
BRANCH  10  13
ATOM     13  O   UNL     1       1.614   9.794  19.368  0.00  0.00    +0.000 OA
ATOM     14  H   UNL     1       2.156  10.153  20.091  0.00  0.00    +0.000 HD
ENDBRANCH  10  13
BRANCH  11  15
ATOM     15  O   UNL     1       1.458   8.345  21.651  0.00  0.00    +0.000 OA
ATOM     16  H   UNL     1       1.258   7.620  22.275  0.00  0.00    +0.000 HD
ENDBRANCH  11  15
ENDBRANCH   5   7
BRANCH   6  17
ATOM     17  C   UNL     1       4.492   4.040  17.828  0.00  0.00    +0.000 A 
ATOM     18  C   UNL     1       4.421   4.012  16.429  0.00  0.00    +0.000 A 
ATOM     19  C   UNL     1       5.482   4.495  15.659  0.00  0.00    +0.000 A 
ATOM     20  C   UNL     1       6.614   4.998  16.293  0.00  0.00    +0.000 A 
ATOM     21  C   UNL     1       6.700   5.024  17.682  0.00  0.00    +0.000 A 
ATOM     22  C   UNL     1       5.639   4.543  18.450  0.00  0.00    +0.000 A 
BRANCH  20  23
ATOM     23  O   UNL     1       7.671   5.483  15.583  0.00  0.00    +0.000 OA
ATOM     24  H   UNL     1       7.368   6.241  15.055  0.00  0.00    +0.000 HD
ENDBRANCH  20  23
ENDBRANCH   6  17
TORSDOF 5
ENDMDL
MODEL 4
REMARK VINA RESULT:      -7.5      2.074      5.307
REMARK  Name = 
REMARK  5 active torsions:
REMARK  status: ('A' for Active; 'I' for Inactive)
REMARK    1  A    between atoms: C_5  and  C_6
REMARK    2  A    between atoms: C_9  and  O_10
REMARK    3  A    between atoms: C_11  and  O_12
REMARK    4  A    between atoms: C_14  and  C_15
REMARK    5  A    between atoms: C_18  and  O_19
REMARK                            x       y       z     vdW  Elec       q    Type
REMARK                         _______ _______ _______ _____ _____    ______ ____
ROOT
ATOM      1  O   UNL     1       3.716   1.193  18.456  0.00  0.00    +0.000 OA
ATOM      2  C   UNL     1       3.080   2.145  18.874  0.00  0.00    +0.000 C 
ATOM      3  O   UNL     1       1.971   2.052  19.662  0.00  0.00    +0.000 OA
ATOM      4  C   UNL     1       1.486   3.363  19.947  0.00  0.00    +0.000 C 
ATOM      5  C   UNL     1       2.414   4.258  19.228  0.00  0.00    +0.000 C 
ATOM      6  C   UNL     1       3.371   3.565  18.606  0.00  0.00    +0.000 C 
ENDROOT
BRANCH   5   7
ATOM      7  C   UNL     1       2.230   5.703  19.252  0.00  0.00    +0.000 A 
ATOM      8  C   UNL     1       2.312   6.443  18.062  0.00  0.00    +0.000 A 
ATOM      9  C   UNL     1       2.112   7.828  18.068  0.00  0.00    +0.000 A 
ATOM     10  C   UNL     1       1.831   8.464  19.270  0.00  0.00    +0.000 A 
ATOM     11  C   UNL     1       1.758   7.732  20.453  0.00  0.00    +0.000 A 
ATOM     12  C   UNL     1       1.959   6.358  20.457  0.00  0.00    +0.000 A 
BRANCH  10  13
ATOM     13  O   UNL     1       1.612   9.811  19.343  0.00  0.00    +0.000 OA
ATOM     14  H   UNL     1       0.742   9.999  18.953  0.00  0.00    +0.000 HD
ENDBRANCH  10  13
BRANCH  11  15
ATOM     15  O   UNL     1       1.477   8.366  21.630  0.00  0.00    +0.000 OA
ATOM     16  H   UNL     1       2.159   8.042  22.252  0.00  0.00    +0.000 HD
ENDBRANCH  11  15
ENDBRANCH   5   7
BRANCH   6  17
ATOM     17  C   UNL     1       4.487   4.053  17.809  0.00  0.00    +0.000 A 
ATOM     18  C   UNL     1       5.628   4.570  18.438  0.00  0.00    +0.000 A 
ATOM     19  C   UNL     1       6.707   5.025  17.676  0.00  0.00    +0.000 A 
ATOM     20  C   UNL     1       6.638   4.967  16.287  0.00  0.00    +0.000 A 
ATOM     21  C   UNL     1       5.507   4.464  15.651  0.00  0.00    +0.000 A 
ATOM     22  C   UNL     1       4.430   4.008  16.412  0.00  0.00    +0.000 A 
BRANCH  20  23
ATOM     23  O   UNL     1       7.667   5.396  15.505  0.00  0.00    +0.000 OA
ATOM     24  H   UNL     1       7.331   6.073  14.894  0.00  0.00    +0.000 HD
ENDBRANCH  20  23
ENDBRANCH   6  17
TORSDOF 5
ENDMDL
MODEL 5
REMARK VINA RESULT:      -7.3      2.129      5.447
REMARK  Name = 
REMARK  5 active torsions:
REMARK  status: ('A' for Active; 'I' for Inactive)
REMARK    1  A    between atoms: C_5  and  C_6
REMARK    2  A    between atoms: C_9  and  O_10
REMARK    3  A    between atoms: C_11  and  O_12
REMARK    4  A    between atoms: C_14  and  C_15
REMARK    5  A    between atoms: C_18  and  O_19
REMARK                            x       y       z     vdW  Elec       q    Type
REMARK                         _______ _______ _______ _____ _____    ______ ____
ROOT
ATOM      1  O   UNL     1       4.407   2.042  19.865  0.00  0.00    +0.000 OA
ATOM      2  C   UNL     1       3.676   2.995  20.068  0.00  0.00    +0.000 C 
ATOM      3  O   UNL     1       2.635   3.002  20.950  0.00  0.00    +0.000 OA
ATOM      4  C   UNL     1       1.999   4.277  20.916  0.00  0.00    +0.000 C 
ATOM      5  C   UNL     1       2.757   5.035  19.901  0.00  0.00    +0.000 C 
ATOM      6  C   UNL     1       3.760   4.309  19.403  0.00  0.00    +0.000 C 
ENDROOT
BRANCH   5   7
ATOM      7  C   UNL     1       2.384   6.401  19.553  0.00  0.00    +0.000 A 
ATOM      8  C   UNL     1       2.537   6.857  18.235  0.00  0.00    +0.000 A 
ATOM      9  C   UNL     1       2.160   8.157  17.883  0.00  0.00    +0.000 A 
ATOM     10  C   UNL     1       1.631   8.994  18.857  0.00  0.00    +0.000 A 
ATOM     11  C   UNL     1       1.488   8.545  20.167  0.00  0.00    +0.000 A 
ATOM     12  C   UNL     1       1.863   7.257  20.527  0.00  0.00    +0.000 A 
BRANCH  10  13
ATOM     13  O   UNL     1       1.231  10.270  18.576  0.00  0.00    +0.000 OA
ATOM     14  H   UNL     1       1.502  10.482  17.667  0.00  0.00    +0.000 HD
ENDBRANCH  10  13
BRANCH  11  15
ATOM     15  O   UNL     1       0.963   9.374  21.118  0.00  0.00    +0.000 OA
ATOM     16  H   UNL     1       0.023   9.470  20.867  0.00  0.00    +0.000 HD
ENDBRANCH  11  15
ENDBRANCH   5   7
BRANCH   6  17
ATOM     17  C   UNL     1       4.754   4.678  18.406  0.00  0.00    +0.000 A 
ATOM     18  C   UNL     1       5.888   5.411  18.780  0.00  0.00    +0.000 A 
ATOM     19  C   UNL     1       6.852   5.754  17.828  0.00  0.00    +0.000 A 
ATOM     20  C   UNL     1       6.674   5.366  16.504  0.00  0.00    +0.000 A 
ATOM     21  C   UNL     1       5.548   4.645  16.118  0.00  0.00    +0.000 A 
ATOM     22  C   UNL     1       4.586   4.301  17.069  0.00  0.00    +0.000 A 
BRANCH  20  23
ATOM     23  O   UNL     1       7.589   5.675  15.543  0.00  0.00    +0.000 OA
ATOM     24  H   UNL     1       8.306   5.021  15.577  0.00  0.00    +0.000 HD
ENDBRANCH  20  23
ENDBRANCH   6  17
TORSDOF 5
ENDMDL
MODEL 6
REMARK VINA RESULT:      -7.3      2.115      5.399
REMARK  Name = 
REMARK  5 active torsions:
REMARK  status: ('A' for Active; 'I' for Inactive)
REMARK    1  A    between atoms: C_5  and  C_6
REMARK    2  A    between atoms: C_9  and  O_10
REMARK    3  A    between atoms: C_11  and  O_12
REMARK    4  A    between atoms: C_14  and  C_15
REMARK    5  A    between atoms: C_18  and  O_19
REMARK                            x       y       z     vdW  Elec       q    Type
REMARK                         _______ _______ _______ _____ _____    ______ ____
ROOT
ATOM      1  O   UNL     1       4.407   2.019  19.883  0.00  0.00    +0.000 OA
ATOM      2  C   UNL     1       3.676   2.972  20.084  0.00  0.00    +0.000 C 
ATOM      3  O   UNL     1       2.633   2.979  20.963  0.00  0.00    +0.000 OA
ATOM      4  C   UNL     1       1.998   4.256  20.928  0.00  0.00    +0.000 C 
ATOM      5  C   UNL     1       2.759   5.013  19.916  0.00  0.00    +0.000 C 
ATOM      6  C   UNL     1       3.763   4.286  19.420  0.00  0.00    +0.000 C 
ENDROOT
BRANCH   5   7
ATOM      7  C   UNL     1       2.389   6.379  19.567  0.00  0.00    +0.000 A 
ATOM      8  C   UNL     1       2.551   6.838  18.250  0.00  0.00    +0.000 A 
ATOM      9  C   UNL     1       2.176   8.138  17.898  0.00  0.00    +0.000 A 
ATOM     10  C   UNL     1       1.641   8.974  18.869  0.00  0.00    +0.000 A 
ATOM     11  C   UNL     1       1.489   8.522  20.179  0.00  0.00    +0.000 A 
ATOM     12  C   UNL     1       1.862   7.234  20.539  0.00  0.00    +0.000 A 
BRANCH  10  13
ATOM     13  O   UNL     1       1.242  10.251  18.588  0.00  0.00    +0.000 OA
ATOM     14  H   UNL     1       1.815  10.864  19.079  0.00  0.00    +0.000 HD
ENDBRANCH  10  13
BRANCH  11  15
ATOM     15  O   UNL     1       0.958   9.350  21.127  0.00  0.00    +0.000 OA
ATOM     16  H   UNL     1       1.713   9.575  21.706  0.00  0.00    +0.000 HD
ENDBRANCH  11  15
ENDBRANCH   5   7
BRANCH   6  17
ATOM     17  C   UNL     1       4.760   4.654  18.426  0.00  0.00    +0.000 A 
ATOM     18  C   UNL     1       4.593   4.278  17.086  0.00  0.00    +0.000 A 
ATOM     19  C   UNL     1       5.541   4.643  16.127  0.00  0.00    +0.000 A 
ATOM     20  C   UNL     1       6.657   5.379  16.514  0.00  0.00    +0.000 A 
ATOM     21  C   UNL     1       6.839   5.752  17.842  0.00  0.00    +0.000 A 
ATOM     22  C   UNL     1       5.891   5.388  18.800  0.00  0.00    +0.000 A 
BRANCH  20  23
ATOM     23  O   UNL     1       7.605   5.760  15.613  0.00  0.00    +0.000 OA
ATOM     24  H   UNL     1       7.243   5.652  14.718  0.00  0.00    +0.000 HD
ENDBRANCH  20  23
ENDBRANCH   6  17
TORSDOF 5
ENDMDL
MODEL 7
REMARK VINA RESULT:      -7.3      1.838      2.181
REMARK  Name = 
REMARK  5 active torsions:
REMARK  status: ('A' for Active; 'I' for Inactive)
REMARK    1  A    between atoms: C_5  and  C_6
REMARK    2  A    between atoms: C_9  and  O_10
REMARK    3  A    between atoms: C_11  and  O_12
REMARK    4  A    between atoms: C_14  and  C_15
REMARK    5  A    between atoms: C_18  and  O_19
REMARK                            x       y       z     vdW  Elec       q    Type
REMARK                         _______ _______ _______ _____ _____    ______ ____
ROOT
ATOM      1  O   UNL     1       0.721   3.040  20.283  0.00  0.00    +0.000 OA
ATOM      2  C   UNL     1       1.701   2.898  19.574  0.00  0.00    +0.000 C 
ATOM      3  O   UNL     1       2.214   1.695  19.189  0.00  0.00    +0.000 OA
ATOM      4  C   UNL     1       3.364   1.912  18.374  0.00  0.00    +0.000 C 
ATOM      5  C   UNL     1       3.501   3.381  18.325  0.00  0.00    +0.000 C 
ATOM      6  C   UNL     1       2.523   3.983  19.007  0.00  0.00    +0.000 C 
ENDROOT
BRANCH   5   7
ATOM      7  C   UNL     1       4.598   4.007  17.597  0.00  0.00    +0.000 A 
ATOM      8  C   UNL     1       4.545   4.113  16.199  0.00  0.00    +0.000 A 
ATOM      9  C   UNL     1       5.579   4.734  15.491  0.00  0.00    +0.000 A 
ATOM     10  C   UNL     1       6.664   5.246  16.191  0.00  0.00    +0.000 A 
ATOM     11  C   UNL     1       6.722   5.132  17.579  0.00  0.00    +0.000 A 
ATOM     12  C   UNL     1       5.702   4.514  18.289  0.00  0.00    +0.000 A 
BRANCH  10  13
ATOM     13  O   UNL     1       7.701   5.876  15.563  0.00  0.00    +0.000 OA
ATOM     14  H   UNL     1       7.433   6.063  14.647  0.00  0.00    +0.000 HD
ENDBRANCH  10  13
BRANCH  11  15
ATOM     15  O   UNL     1       7.792   5.642  18.260  0.00  0.00    +0.000 OA
ATOM     16  H   UNL     1       7.435   6.425  18.725  0.00  0.00    +0.000 HD
ENDBRANCH  11  15
ENDBRANCH   5   7
BRANCH   6  17
ATOM     17  C   UNL     1       2.274   5.404  19.193  0.00  0.00    +0.000 A 
ATOM     18  C   UNL     1       2.366   6.285  18.106  0.00  0.00    +0.000 A 
ATOM     19  C   UNL     1       2.113   7.648  18.279  0.00  0.00    +0.000 A 
ATOM     20  C   UNL     1       1.775   8.126  19.542  0.00  0.00    +0.000 A 
ATOM     21  C   UNL     1       1.689   7.264  20.630  0.00  0.00    +0.000 A 
ATOM     22  C   UNL     1       1.940   5.902  20.457  0.00  0.00    +0.000 A 
BRANCH  20  23
ATOM     23  O   UNL     1       1.516   9.446  19.756  0.00  0.00    +0.000 OA
ATOM     24  H   UNL     1       0.577   9.544  19.986  0.00  0.00    +0.000 HD
ENDBRANCH  20  23
ENDBRANCH   6  17
TORSDOF 5
ENDMDL
MODEL 8
REMARK VINA RESULT:      -7.2      1.803      2.367
REMARK  Name = 
REMARK  5 active torsions:
REMARK  status: ('A' for Active; 'I' for Inactive)
REMARK    1  A    between atoms: C_5  and  C_6
REMARK    2  A    between atoms: C_9  and  O_10
REMARK    3  A    between atoms: C_11  and  O_12
REMARK    4  A    between atoms: C_14  and  C_15
REMARK    5  A    between atoms: C_18  and  O_19
REMARK                            x       y       z     vdW  Elec       q    Type
REMARK                         _______ _______ _______ _____ _____    ______ ____
ROOT
ATOM      1  O   UNL     1       0.719   2.932  20.213  0.00  0.00    +0.000 OA
ATOM      2  C   UNL     1       1.710   2.827  19.512  0.00  0.00    +0.000 C 
ATOM      3  O   UNL     1       2.246   1.644  19.097  0.00  0.00    +0.000 OA
ATOM      4  C   UNL     1       3.403   1.904  18.304  0.00  0.00    +0.000 C 
ATOM      5  C   UNL     1       3.519   3.376  18.302  0.00  0.00    +0.000 C 
ATOM      6  C   UNL     1       2.523   3.941  18.990  0.00  0.00    +0.000 C 
ENDROOT
BRANCH   5   7
ATOM      7  C   UNL     1       4.615   4.040  17.609  0.00  0.00    +0.000 A 
ATOM      8  C   UNL     1       4.566   4.211  16.216  0.00  0.00    +0.000 A 
ATOM      9  C   UNL     1       5.600   4.870  15.542  0.00  0.00    +0.000 A 
ATOM     10  C   UNL     1       6.679   5.353  16.270  0.00  0.00    +0.000 A 
ATOM     11  C   UNL     1       6.733   5.175  17.650  0.00  0.00    +0.000 A 
ATOM     12  C   UNL     1       5.714   4.519  18.328  0.00  0.00    +0.000 A 
BRANCH  10  13
ATOM     13  O   UNL     1       7.715   6.017  15.675  0.00  0.00    +0.000 OA
ATOM     14  H   UNL     1       8.128   6.594  16.339  0.00  0.00    +0.000 HD
ENDBRANCH  10  13
BRANCH  11  15
ATOM     15  O   UNL     1       7.798   5.658  18.358  0.00  0.00    +0.000 OA
ATOM     16  H   UNL     1       8.231   6.288  17.749  0.00  0.00    +0.000 HD
ENDBRANCH  11  15
ENDBRANCH   5   7
BRANCH   6  17
ATOM     17  C   UNL     1       2.251   5.352  19.217  0.00  0.00    +0.000 A 
ATOM     18  C   UNL     1       1.863   5.800  20.488  0.00  0.00    +0.000 A 
ATOM     19  C   UNL     1       1.615   7.156  20.713  0.00  0.00    +0.000 A 
ATOM     20  C   UNL     1       1.750   8.060  19.663  0.00  0.00    +0.000 A 
ATOM     21  C   UNL     1       2.126   7.628  18.395  0.00  0.00    +0.000 A 
ATOM     22  C   UNL     1       2.375   6.273  18.171  0.00  0.00    +0.000 A 
BRANCH  20  23
ATOM     23  O   UNL     1       1.522   9.392  19.838  0.00  0.00    +0.000 OA
ATOM     24  H   UNL     1       1.342   9.791  18.971  0.00  0.00    +0.000 HD
ENDBRANCH  20  23
ENDBRANCH   6  17
TORSDOF 5
ENDMDL
MODEL 9
REMARK VINA RESULT:      -7.2      1.981      5.283
REMARK  Name = 
REMARK  5 active torsions:
REMARK  status: ('A' for Active; 'I' for Inactive)
REMARK    1  A    between atoms: C_5  and  C_6
REMARK    2  A    between atoms: C_9  and  O_10
REMARK    3  A    between atoms: C_11  and  O_12
REMARK    4  A    between atoms: C_14  and  C_15
REMARK    5  A    between atoms: C_18  and  O_19
REMARK                            x       y       z     vdW  Elec       q    Type
REMARK                         _______ _______ _______ _____ _____    ______ ____
ROOT
ATOM      1  O   UNL     1       3.778   1.212  18.388  0.00  0.00    +0.000 OA
ATOM      2  C   UNL     1       3.109   2.124  18.841  0.00  0.00    +0.000 C 
ATOM      3  O   UNL     1       1.994   1.962  19.609  0.00  0.00    +0.000 OA
ATOM      4  C   UNL     1       1.467   3.243  19.949  0.00  0.00    +0.000 C 
ATOM      5  C   UNL     1       2.375   4.197  19.285  0.00  0.00    +0.000 C 
ATOM      6  C   UNL     1       3.360   3.564  18.644  0.00  0.00    +0.000 C 
ENDROOT
BRANCH   5   7
ATOM      7  C   UNL     1       2.148   5.634  19.374  0.00  0.00    +0.000 A 
ATOM      8  C   UNL     1       1.713   6.204  20.581  0.00  0.00    +0.000 A 
ATOM      9  C   UNL     1       1.516   7.585  20.687  0.00  0.00    +0.000 A 
ATOM     10  C   UNL     1       1.755   8.388  19.579  0.00  0.00    +0.000 A 
ATOM     11  C   UNL     1       2.177   7.822  18.378  0.00  0.00    +0.000 A 
ATOM     12  C   UNL     1       2.372   6.452  18.263  0.00  0.00    +0.000 A 
BRANCH  10  13
ATOM     13  O   UNL     1       1.595   9.745  19.619  0.00  0.00    +0.000 OA
ATOM     14  H   UNL     1       0.797   9.941  20.140  0.00  0.00    +0.000 HD
ENDBRANCH  10  13
BRANCH  11  15
ATOM     15  O   UNL     1       2.414   8.620  17.295  0.00  0.00    +0.000 OA
ATOM     16  H   UNL     1       3.380   8.776  17.312  0.00  0.00    +0.000 HD
ENDBRANCH  11  15
ENDBRANCH   5   7
BRANCH   6  17
ATOM     17  C   UNL     1       4.470   4.121  17.886  0.00  0.00    +0.000 A 
ATOM     18  C   UNL     1       4.423   4.152  16.486  0.00  0.00    +0.000 A 
ATOM     19  C   UNL     1       5.481   4.701  15.756  0.00  0.00    +0.000 A 
ATOM     20  C   UNL     1       6.586   5.211  16.431  0.00  0.00    +0.000 A 
ATOM     21  C   UNL     1       6.649   5.178  17.821  0.00  0.00    +0.000 A 
ATOM     22  C   UNL     1       5.592   4.631  18.549  0.00  0.00    +0.000 A 
BRANCH  20  23
ATOM     23  O   UNL     1       7.638   5.758  15.761  0.00  0.00    +0.000 OA
ATOM     24  H   UNL     1       8.352   5.100  15.715  0.00  0.00    +0.000 HD
ENDBRANCH  20  23
ENDBRANCH   6  17
TORSDOF 5
ENDMDL
