MODEL 1
REMARK VINA RESULT:      -8.6      0.000      0.000
REMARK  Name = 
REMARK  2 active torsions:
REMARK  status: ('A' for Active; 'I' for Inactive)
REMARK    1  A    between atoms: C_2  and  C_4
REMARK    2  A    between atoms: N_12  and  C_13
REMARK                            x       y       z     vdW  Elec       q    Type
REMARK                         _______ _______ _______ _____ _____    ______ ____
ROOT
ATOM      1  C   UNL     1       6.823   4.543  15.988  0.00  0.00    +0.000 A 
ATOM      2  N   UNL     1       7.887   4.728  16.833  0.00  0.00    +0.000 NA
ATOM      3  C   UNL     1       7.649   4.644  18.156  0.00  0.00    +0.000 A 
ATOM      4  N   UNL     1       6.481   4.393  18.776  0.00  0.00    +0.000 NA
ATOM      5  C   UNL     1       5.478   4.220  17.897  0.00  0.00    +0.000 A 
ATOM      6  C   UNL     1       5.557   4.276  16.510  0.00  0.00    +0.000 A 
ATOM      7  N   UNL     1       4.318   4.046  15.957  0.00  0.00    +0.000 NA
ATOM      8  C   UNL     1       3.508   3.862  16.975  0.00  0.00    +0.000 A 
ATOM      9  N   UNL     1       4.158   3.951  18.175  0.00  0.00    +0.000 N 
ENDROOT
BRANCH   9  10
ATOM     10  C   UNL     1       3.590   3.825  19.503  0.00  0.00    +0.000 C 
ATOM     11  C   UNL     1       3.305   2.363  19.912  0.00  0.00    +0.000 C 
ATOM     12  C   UNL     1       1.858   2.420  20.438  0.00  0.00    +0.000 C 
ATOM     13  C   UNL     1       1.808   3.252  21.732  0.00  0.00    +0.000 C 
ATOM     14  C   UNL     1       1.998   4.691  21.230  0.00  0.00    +0.000 C 
ATOM     15  C   UNL     1       2.205   4.501  19.715  0.00  0.00    +0.000 C 
ATOM     16  C   UNL     1       1.211   3.369  19.434  0.00  0.00    +0.000 C 
ENDBRANCH   9  10
BRANCH   1  18
ATOM     17  N   UNL     1       6.481   3.669  13.764  0.00  0.00    +0.000 N 
ATOM     18  C   UNL     1       7.085   4.637  14.528  0.00  0.00    +0.000 C 
ATOM     19  O   UNL     1       7.781   5.492  14.001  0.00  0.00    +0.000 OA
ATOM     20  H   UNL     1       6.620   3.681  12.764  0.00  0.00    +0.000 HD
ATOM     21  H   UNL     1       5.907   2.956  14.199  0.00  0.00    +0.000 HD
ENDBRANCH   1  18
TORSDOF 2
ENDMDL
MODEL 2
REMARK VINA RESULT:      -7.6      1.002      1.045
REMARK  Name = 
REMARK  2 active torsions:
REMARK  status: ('A' for Active; 'I' for Inactive)
REMARK    1  A    between atoms: C_2  and  C_4
REMARK    2  A    between atoms: N_12  and  C_13
REMARK                            x       y       z     vdW  Elec       q    Type
REMARK                         _______ _______ _______ _____ _____    ______ ____
ROOT
ATOM      1  C   UNL     1       6.429   5.118  16.613  0.00  0.00    +0.000 A 
ATOM      2  N   UNL     1       7.311   5.487  17.597  0.00  0.00    +0.000 NA
ATOM      3  C   UNL     1       6.983   5.183  18.867  0.00  0.00    +0.000 A 
ATOM      4  N   UNL     1       5.884   4.547  19.313  0.00  0.00    +0.000 NA
ATOM      5  C   UNL     1       5.061   4.210  18.304  0.00  0.00    +0.000 A 
ATOM      6  C   UNL     1       5.250   4.451  16.949  0.00  0.00    +0.000 A 
ATOM      7  N   UNL     1       4.188   3.956  16.228  0.00  0.00    +0.000 NA
ATOM      8  C   UNL     1       3.373   3.435  17.117  0.00  0.00    +0.000 A 
ATOM      9  N   UNL     1       3.854   3.556  18.392  0.00  0.00    +0.000 N 
ENDROOT
BRANCH   9  10
ATOM     10  C   UNL     1       3.224   3.120  19.622  0.00  0.00    +0.000 C 
ATOM     11  C   UNL     1       2.062   2.126  19.398  0.00  0.00    +0.000 C 
ATOM     12  C   UNL     1       0.924   2.717  20.254  0.00  0.00    +0.000 C 
ATOM     13  C   UNL     1       1.295   2.624  21.745  0.00  0.00    +0.000 C 
ATOM     14  C   UNL     1       2.375   3.703  21.905  0.00  0.00    +0.000 C 
ATOM     15  C   UNL     1       2.544   4.234  20.468  0.00  0.00    +0.000 C 
ATOM     16  C   UNL     1       1.089   4.209  19.985  0.00  0.00    +0.000 C 
ENDBRANCH   9  10
BRANCH   1  18
ATOM     17  N   UNL     1       5.745   5.878  14.427  0.00  0.00    +0.000 N 
ATOM     18  C   UNL     1       6.789   5.454  15.210  0.00  0.00    +0.000 C 
ATOM     19  O   UNL     1       7.916   5.374  14.745  0.00  0.00    +0.000 OA
ATOM     20  H   UNL     1       5.927   6.123  13.465  0.00  0.00    +0.000 HD
ATOM     21  H   UNL     1       4.809   5.941  14.810  0.00  0.00    +0.000 HD
ENDBRANCH   1  18
TORSDOF 2
ENDMDL
MODEL 3
REMARK VINA RESULT:      -7.6      1.263      1.311
REMARK  Name = 
REMARK  2 active torsions:
REMARK  status: ('A' for Active; 'I' for Inactive)
REMARK    1  A    between atoms: C_2  and  C_4
REMARK    2  A    between atoms: N_12  and  C_13
REMARK                            x       y       z     vdW  Elec       q    Type
REMARK                         _______ _______ _______ _____ _____    ______ ____
ROOT
ATOM      1  C   UNL     1       6.136   5.280  15.628  0.00  0.00    +0.000 A 
ATOM      2  N   UNL     1       6.230   6.587  16.032  0.00  0.00    +0.000 NA
ATOM      3  C   UNL     1       5.588   6.934  17.164  0.00  0.00    +0.000 A 
ATOM      4  N   UNL     1       4.852   6.151  17.975  0.00  0.00    +0.000 NA
ATOM      5  C   UNL     1       4.799   4.884  17.529  0.00  0.00    +0.000 A 
ATOM      6  C   UNL     1       5.399   4.369  16.386  0.00  0.00    +0.000 A 
ATOM      7  N   UNL     1       5.114   3.028  16.266  0.00  0.00    +0.000 NA
ATOM      8  C   UNL     1       4.358   2.736  17.300  0.00  0.00    +0.000 A 
ATOM      9  N   UNL     1       4.139   3.822  18.103  0.00  0.00    +0.000 N 
ENDROOT
BRANCH   9  10
ATOM     10  C   UNL     1       3.342   3.884  19.312  0.00  0.00    +0.000 C 
ATOM     11  C   UNL     1       3.202   2.520  20.025  0.00  0.00    +0.000 C 
ATOM     12  C   UNL     1       1.686   2.413  20.283  0.00  0.00    +0.000 C 
ATOM     13  C   UNL     1       1.256   3.483  21.302  0.00  0.00    +0.000 C 
ATOM     14  C   UNL     1       1.325   4.786  20.491  0.00  0.00    +0.000 C 
ATOM     15  C   UNL     1       1.858   4.310  19.125  0.00  0.00    +0.000 C 
ATOM     16  C   UNL     1       1.119   2.974  18.983  0.00  0.00    +0.000 C 
ENDBRANCH   9  10
BRANCH   1  18
ATOM     17  N   UNL     1       6.358   3.774  13.755  0.00  0.00    +0.000 N 
ATOM     18  C   UNL     1       6.843   4.897  14.378  0.00  0.00    +0.000 C 
ATOM     19  O   UNL     1       7.790   5.506  13.902  0.00  0.00    +0.000 OA
ATOM     20  H   UNL     1       6.796   3.464  12.900  0.00  0.00    +0.000 HD
ATOM     21  H   UNL     1       5.576   3.265  14.151  0.00  0.00    +0.000 HD
ENDBRANCH   1  18
TORSDOF 2
ENDMDL
MODEL 4
REMARK VINA RESULT:      -7.3      2.935      6.405
REMARK  Name = 
REMARK  2 active torsions:
REMARK  status: ('A' for Active; 'I' for Inactive)
REMARK    1  A    between atoms: C_2  and  C_4
REMARK    2  A    between atoms: N_12  and  C_13
REMARK                            x       y       z     vdW  Elec       q    Type
REMARK                         _______ _______ _______ _____ _____    ______ ____
ROOT
ATOM      1  C   UNL     1       2.699   3.210  20.024  0.00  0.00    +0.000 A 
ATOM      2  N   UNL     1       2.072   2.142  19.435  0.00  0.00    +0.000 NA
ATOM      3  C   UNL     1       2.514   1.755  18.223  0.00  0.00    +0.000 A 
ATOM      4  N   UNL     1       3.515   2.286  17.496  0.00  0.00    +0.000 NA
ATOM      5  C   UNL     1       4.090   3.326  18.125  0.00  0.00    +0.000 A 
ATOM      6  C   UNL     1       3.753   3.847  19.369  0.00  0.00    +0.000 A 
ATOM      7  N   UNL     1       4.570   4.911  19.673  0.00  0.00    +0.000 NA
ATOM      8  C   UNL     1       5.377   5.039  18.643  0.00  0.00    +0.000 A 
ATOM      9  N   UNL     1       5.135   4.101  17.678  0.00  0.00    +0.000 N 
ENDROOT
BRANCH   9  10
ATOM     10  C   UNL     1       5.807   3.947  16.403  0.00  0.00    +0.000 C 
ATOM     11  C   UNL     1       7.168   4.676  16.335  0.00  0.00    +0.000 C 
ATOM     12  C   UNL     1       7.082   5.457  15.008  0.00  0.00    +0.000 C 
ATOM     13  C   UNL     1       7.057   4.471  13.827  0.00  0.00    +0.000 C 
ATOM     14  C   UNL     1       5.647   3.867  13.906  0.00  0.00    +0.000 C 
ATOM     15  C   UNL     1       5.061   4.528  15.168  0.00  0.00    +0.000 C 
ATOM     16  C   UNL     1       5.636   5.943  15.039  0.00  0.00    +0.000 C 
ENDBRANCH   9  10
BRANCH   1  18
ATOM     17  N   UNL     1       2.208   4.994  21.575  0.00  0.00    +0.000 N 
ATOM     18  C   UNL     1       2.210   3.638  21.362  0.00  0.00    +0.000 C 
ATOM     19  O   UNL     1       1.829   2.876  22.238  0.00  0.00    +0.000 OA
ATOM     20  H   UNL     1       1.886   5.346  22.464  0.00  0.00    +0.000 HD
ATOM     21  H   UNL     1       2.528   5.627  20.851  0.00  0.00    +0.000 HD
ENDBRANCH   1  18
TORSDOF 2
ENDMDL
MODEL 5
REMARK VINA RESULT:      -7.1      3.117      6.208
REMARK  Name = 
REMARK  2 active torsions:
REMARK  status: ('A' for Active; 'I' for Inactive)
REMARK    1  A    between atoms: C_2  and  C_4
REMARK    2  A    between atoms: N_12  and  C_13
REMARK                            x       y       z     vdW  Elec       q    Type
REMARK                         _______ _______ _______ _____ _____    ______ ____
ROOT
ATOM      1  C   UNL     1       2.704   2.812  20.592  0.00  0.00    +0.000 A 
ATOM      2  N   UNL     1       3.709   2.134  21.234  0.00  0.00    +0.000 NA
ATOM      3  C   UNL     1       4.897   2.048  20.604  0.00  0.00    +0.000 A 
ATOM      4  N   UNL     1       5.240   2.552  19.405  0.00  0.00    +0.000 NA
ATOM      5  C   UNL     1       4.216   3.204  18.827  0.00  0.00    +0.000 A 
ATOM      6  C   UNL     1       2.936   3.380  19.340  0.00  0.00    +0.000 A 
ATOM      7  N   UNL     1       2.168   4.103  18.455  0.00  0.00    +0.000 NA
ATOM      8  C   UNL     1       2.954   4.354  17.432  0.00  0.00    +0.000 A 
ATOM      9  N   UNL     1       4.208   3.838  17.606  0.00  0.00    +0.000 N 
ENDROOT
BRANCH   9  10
ATOM     10  C   UNL     1       5.327   3.898  16.686  0.00  0.00    +0.000 C 
ATOM     11  C   UNL     1       6.489   4.783  17.192  0.00  0.00    +0.000 C 
ATOM     12  C   UNL     1       6.797   5.684  15.979  0.00  0.00    +0.000 C 
ATOM     13  C   UNL     1       7.365   4.832  14.830  0.00  0.00    +0.000 C 
ATOM     14  C   UNL     1       6.136   4.064  14.323  0.00  0.00    +0.000 C 
ATOM     15  C   UNL     1       5.026   4.516  15.291  0.00  0.00    +0.000 C 
ATOM     16  C   UNL     1       5.393   5.994  15.471  0.00  0.00    +0.000 C 
ENDBRANCH   9  10
BRANCH   1  18
ATOM     17  N   UNL     1       0.381   3.470  20.547  0.00  0.00    +0.000 N 
ATOM     18  C   UNL     1       1.392   2.906  21.286  0.00  0.00    +0.000 C 
ATOM     19  O   UNL     1       1.182   2.525  22.428  0.00  0.00    +0.000 OA
ATOM     20  H   UNL     1      -0.533   3.560  20.964  0.00  0.00    +0.000 HD
ATOM     21  H   UNL     1       0.555   3.790  19.602  0.00  0.00    +0.000 HD
ENDBRANCH   1  18
TORSDOF 2
ENDMDL
MODEL 6
REMARK VINA RESULT:      -6.9      1.900      3.127
REMARK  Name = 
REMARK  2 active torsions:
REMARK  status: ('A' for Active; 'I' for Inactive)
REMARK    1  A    between atoms: C_2  and  C_4
REMARK    2  A    between atoms: N_12  and  C_13
REMARK                            x       y       z     vdW  Elec       q    Type
REMARK                         _______ _______ _______ _____ _____    ______ ____
ROOT
ATOM      1  C   UNL     1       6.870   6.354  17.290  0.00  0.00    +0.000 A 
ATOM      2  N   UNL     1       6.969   5.951  15.983  0.00  0.00    +0.000 NA
ATOM      3  C   UNL     1       6.088   5.027  15.551  0.00  0.00    +0.000 A 
ATOM      4  N   UNL     1       5.097   4.436  16.245  0.00  0.00    +0.000 NA
ATOM      5  C   UNL     1       5.051   4.873  17.516  0.00  0.00    +0.000 A 
ATOM      6  C   UNL     1       5.882   5.813  18.113  0.00  0.00    +0.000 A 
ATOM      7  N   UNL     1       5.521   5.995  19.428  0.00  0.00    +0.000 NA
ATOM      8  C   UNL     1       4.505   5.187  19.628  0.00  0.00    +0.000 A 
ATOM      9  N   UNL     1       4.173   4.486  18.502  0.00  0.00    +0.000 N 
ENDROOT
BRANCH   9  10
ATOM     10  C   UNL     1       3.127   3.494  18.351  0.00  0.00    +0.000 C 
ATOM     11  C   UNL     1       1.819   4.067  17.760  0.00  0.00    +0.000 C 
ATOM     12  C   UNL     1       0.737   3.535  18.721  0.00  0.00    +0.000 C 
ATOM     13  C   UNL     1       0.638   2.005  18.596  0.00  0.00    +0.000 C 
ATOM     14  C   UNL     1       1.917   1.513  19.290  0.00  0.00    +0.000 C 
ATOM     15  C   UNL     1       2.629   2.827  19.665  0.00  0.00    +0.000 C 
ATOM     16  C   UNL     1       1.431   3.693  20.071  0.00  0.00    +0.000 C 
ENDBRANCH   9  10
BRANCH   1  18
ATOM     17  N   UNL     1       8.451   7.081  18.963  0.00  0.00    +0.000 N 
ATOM     18  C   UNL     1       7.843   7.372  17.767  0.00  0.00    +0.000 C 
ATOM     19  O   UNL     1       8.113   8.406  17.173  0.00  0.00    +0.000 OA
ATOM     20  H   UNL     1       9.123   7.734  19.338  0.00  0.00    +0.000 HD
ATOM     21  H   UNL     1       8.225   6.226  19.458  0.00  0.00    +0.000 HD
ENDBRANCH   1  18
TORSDOF 2
ENDMDL
MODEL 7
REMARK VINA RESULT:      -6.8      4.710      7.018
REMARK  Name = 
REMARK  2 active torsions:
REMARK  status: ('A' for Active; 'I' for Inactive)
REMARK    1  A    between atoms: C_2  and  C_4
REMARK    2  A    between atoms: N_12  and  C_13
REMARK                            x       y       z     vdW  Elec       q    Type
REMARK                         _______ _______ _______ _____ _____    ______ ____
ROOT
ATOM      1  C   UNL     1       1.161   9.221  20.091  0.00  0.00    +0.000 A 
ATOM      2  N   UNL     1       1.166  10.187  19.118  0.00  0.00    +0.000 NA
ATOM      3  C   UNL     1       1.745   9.878  17.941  0.00  0.00    +0.000 A 
ATOM      4  N   UNL     1       2.329   8.720  17.581  0.00  0.00    +0.000 NA
ATOM      5  C   UNL     1       2.291   7.814  18.575  0.00  0.00    +0.000 A 
ATOM      6  C   UNL     1       1.737   7.975  19.839  0.00  0.00    +0.000 A 
ATOM      7  N   UNL     1       1.894   6.823  20.574  0.00  0.00    +0.000 NA
ATOM      8  C   UNL     1       2.530   5.987  19.784  0.00  0.00    +0.000 A 
ATOM      9  N   UNL     1       2.791   6.532  18.558  0.00  0.00    +0.000 N 
ENDROOT
BRANCH   9  10
ATOM     10  C   UNL     1       3.488   5.919  17.445  0.00  0.00    +0.000 C 
ATOM     11  C   UNL     1       3.514   4.375  17.514  0.00  0.00    +0.000 C 
ATOM     12  C   UNL     1       4.998   4.038  17.270  0.00  0.00    +0.000 C 
ATOM     13  C   UNL     1       5.386   4.416  15.829  0.00  0.00    +0.000 C 
ATOM     14  C   UNL     1       5.436   5.950  15.872  0.00  0.00    +0.000 C 
ATOM     15  C   UNL     1       4.998   6.267  17.315  0.00  0.00    +0.000 C 
ATOM     16  C   UNL     1       5.692   5.131  18.076  0.00  0.00    +0.000 C 
ENDBRANCH   9  10
BRANCH   1  18
ATOM     17  N   UNL     1      -0.399   8.653  21.843  0.00  0.00    +0.000 N 
ATOM     18  C   UNL     1       0.524   9.562  21.390  0.00  0.00    +0.000 C 
ATOM     19  O   UNL     1       0.771  10.567  22.041  0.00  0.00    +0.000 OA
ATOM     20  H   UNL     1      -0.865   8.829  22.721  0.00  0.00    +0.000 HD
ATOM     21  H   UNL     1      -0.608   7.822  21.302  0.00  0.00    +0.000 HD
ENDBRANCH   1  18
TORSDOF 2
ENDMDL
MODEL 8
REMARK VINA RESULT:      -6.8      4.990      6.422
REMARK  Name = 
REMARK  2 active torsions:
REMARK  status: ('A' for Active; 'I' for Inactive)
REMARK    1  A    between atoms: C_2  and  C_4
REMARK    2  A    between atoms: N_12  and  C_13
REMARK                            x       y       z     vdW  Elec       q    Type
REMARK                         _______ _______ _______ _____ _____    ______ ____
ROOT
ATOM      1  C   UNL     1       1.079  10.131  19.613  0.00  0.00    +0.000 A 
ATOM      2  N   UNL     1       0.591  10.240  20.891  0.00  0.00    +0.000 NA
ATOM      3  C   UNL     1       0.710   9.163  21.692  0.00  0.00    +0.000 A 
ATOM      4  N   UNL     1       1.258   7.968  21.403  0.00  0.00    +0.000 NA
ATOM      5  C   UNL     1       1.717   7.924  20.140  0.00  0.00    +0.000 A 
ATOM      6  C   UNL     1       1.671   8.940  19.192  0.00  0.00    +0.000 A 
ATOM      7  N   UNL     1       2.242   8.515  18.015  0.00  0.00    +0.000 NA
ATOM      8  C   UNL     1       2.620   7.276  18.236  0.00  0.00    +0.000 A 
ATOM      9  N   UNL     1       2.332   6.868  19.509  0.00  0.00    +0.000 N 
ENDROOT
BRANCH   9  10
ATOM     10  C   UNL     1       2.580   5.568  20.101  0.00  0.00    +0.000 C 
ATOM     11  C   UNL     1       3.586   4.711  19.298  0.00  0.00    +0.000 C 
ATOM     12  C   UNL     1       2.868   3.352  19.174  0.00  0.00    +0.000 C 
ATOM     13  C   UNL     1       2.749   2.699  20.561  0.00  0.00    +0.000 C 
ATOM     14  C   UNL     1       1.668   3.541  21.254  0.00  0.00    +0.000 C 
ATOM     15  C   UNL     1       1.350   4.622  20.202  0.00  0.00    +0.000 C 
ATOM     16  C   UNL     1       1.431   3.794  18.914  0.00  0.00    +0.000 C 
ENDBRANCH   9  10
BRANCH   1  18
ATOM     17  N   UNL     1       2.047  11.593  17.954  0.00  0.00    +0.000 N 
ATOM     18  C   UNL     1       0.947  11.319  18.728  0.00  0.00    +0.000 C 
ATOM     19  O   UNL     1      -0.046  12.028  18.663  0.00  0.00    +0.000 OA
ATOM     20  H   UNL     1       2.017  12.387  17.331  0.00  0.00    +0.000 HD
ATOM     21  H   UNL     1       2.872  11.008  18.011  0.00  0.00    +0.000 HD
ENDBRANCH   1  18
TORSDOF 2
ENDMDL
MODEL 9
REMARK VINA RESULT:      -6.8      3.191      6.177
REMARK  Name = 
REMARK  2 active torsions:
REMARK  status: ('A' for Active; 'I' for Inactive)
REMARK    1  A    between atoms: C_2  and  C_4
REMARK    2  A    between atoms: N_12  and  C_13
REMARK                            x       y       z     vdW  Elec       q    Type
REMARK                         _______ _______ _______ _____ _____    ______ ____
ROOT
ATOM      1  C   UNL     1       2.683   3.004  20.532  0.00  0.00    +0.000 A 
ATOM      2  N   UNL     1       3.679   2.167  20.965  0.00  0.00    +0.000 NA
ATOM      3  C   UNL     1       4.880   2.270  20.363  0.00  0.00    +0.000 A 
ATOM      4  N   UNL     1       5.244   3.106  19.372  0.00  0.00    +0.000 NA
ATOM      5  C   UNL     1       4.227   3.900  18.992  0.00  0.00    +0.000 A 
ATOM      6  C   UNL     1       2.936   3.917  19.508  0.00  0.00    +0.000 A 
ATOM      7  N   UNL     1       2.182   4.869  18.861  0.00  0.00    +0.000 NA
ATOM      8  C   UNL     1       2.986   5.410  17.974  0.00  0.00    +0.000 A 
ATOM      9  N   UNL     1       4.240   4.865  18.013  0.00  0.00    +0.000 N 
ENDROOT
BRANCH   9  10
ATOM     10  C   UNL     1       5.376   5.194  17.175  0.00  0.00    +0.000 C 
ATOM     11  C   UNL     1       5.055   6.252  16.094  0.00  0.00    +0.000 C 
ATOM     12  C   UNL     1       5.620   5.621  14.806  0.00  0.00    +0.000 C 
ATOM     13  C   UNL     1       7.154   5.541  14.896  0.00  0.00    +0.000 C 
ATOM     14  C   UNL     1       7.387   4.409  15.907  0.00  0.00    +0.000 C 
ATOM     15  C   UNL     1       5.955   4.025  16.328  0.00  0.00    +0.000 C 
ATOM     16  C   UNL     1       5.221   4.159  14.988  0.00  0.00    +0.000 C 
ENDBRANCH   9  10
BRANCH   1  18
ATOM     17  N   UNL     1       0.282   3.232  20.413  0.00  0.00    +0.000 N 
ATOM     18  C   UNL     1       1.357   2.890  21.196  0.00  0.00    +0.000 C 
ATOM     19  O   UNL     1       1.188   2.526  22.350  0.00  0.00    +0.000 OA
ATOM     20  H   UNL     1      -0.645   3.173  20.807  0.00  0.00    +0.000 HD
ATOM     21  H   UNL     1       0.421   3.538  19.457  0.00  0.00    +0.000 HD
ENDBRANCH   1  18
TORSDOF 2
ENDMDL
