MODEL 1
REMARK VINA RESULT:      -9.2      0.000      0.000
REMARK  Name = 
REMARK  1 active torsions:
REMARK  status: ('A' for Active; 'I' for Inactive)
REMARK    1  A    between atoms: C_10  and  C_11
REMARK                            x       y       z     vdW  Elec       q    Type
REMARK                         _______ _______ _______ _____ _____    ______ ____
ROOT
ATOM      1  N   UNL     1      -1.971  13.942  22.157  0.00  0.00    +0.000 N 
ATOM      2  C   UNL     1      -1.345  12.669  21.930  0.00  0.00    +0.000 A 
ATOM      3  N   UNL     1      -0.860  12.260  20.706  0.00  0.00    +0.000 NA
ATOM      4  C   UNL     1      -0.325  10.997  20.782  0.00  0.00    +0.000 A 
ATOM      5  C   UNL     1      -0.396  10.412  21.997  0.00  0.00    +0.000 A 
ATOM      6  S   UNL     1      -1.139  11.461  23.122  0.00  0.00    +0.000 S 
ATOM      7  C   UNL     1       0.215   9.036  21.994  0.00  0.00    +0.000 C 
ATOM      8  C   UNL     1       0.762   8.937  20.507  0.00  0.00    +0.000 A 
ATOM      9  C   UNL     1       1.541   7.908  19.833  0.00  0.00    +0.000 A 
ATOM     10  C   UNL     1       2.120   7.957  18.421  0.00  0.00    +0.000 A 
ATOM     11  C   UNL     1       1.616   9.177  17.795  0.00  0.00    +0.000 A 
ATOM     12  C   UNL     1       0.777  10.180  18.472  0.00  0.00    +0.000 A 
ATOM     13  C   UNL     1       0.411  10.076  19.831  0.00  0.00    +0.000 A 
ATOM     14  H   UNL     1      -2.174  14.580  21.369  0.00  0.00    +0.000 HD
ATOM     15  H   UNL     1      -2.305  14.233  23.092  0.00  0.00    +0.000 HD
ENDROOT
BRANCH  10  16
ATOM     16  C   UNL     1       3.288   6.766  17.870  0.00  0.00    +0.000 A 
ATOM     17  C   UNL     1       2.514   5.614  17.961  0.00  0.00    +0.000 A 
ATOM     18  C   UNL     1       2.971   4.362  18.107  0.00  0.00    +0.000 A 
ATOM     19  C   UNL     1       3.824   4.020  17.153  0.00  0.00    +0.000 A 
ATOM     20  C   UNL     1       4.869   4.878  16.984  0.00  0.00    +0.000 A 
ATOM     21  C   UNL     1       5.959   4.157  16.428  0.00  0.00    +0.000 A 
ATOM     22  C   UNL     1       7.196   4.694  16.394  0.00  0.00    +0.000 A 
ATOM     23  C   UNL     1       7.335   5.983  16.884  0.00  0.00    +0.000 A 
ATOM     24  C   UNL     1       6.185   6.813  17.373  0.00  0.00    +0.000 A 
ATOM     25  C   UNL     1       4.783   6.294  17.476  0.00  0.00    +0.000 A 
ENDBRANCH  10  16
TORSDOF 1
ENDMDL
MODEL 2
REMARK VINA RESULT:      -9.0      4.629      8.225
REMARK  Name = 
REMARK  1 active torsions:
REMARK  status: ('A' for Active; 'I' for Inactive)
REMARK    1  A    between atoms: C_10  and  C_11
REMARK                            x       y       z     vdW  Elec       q    Type
REMARK                         _______ _______ _______ _____ _____    ______ ____
ROOT
ATOM      1  N   UNL     1       4.046   0.876  18.357  0.00  0.00    +0.000 N 
ATOM      2  C   UNL     1       3.561   2.129  18.866  0.00  0.00    +0.000 A 
ATOM      3  N   UNL     1       3.723   3.335  18.218  0.00  0.00    +0.000 NA
ATOM      4  C   UNL     1       3.169   4.365  18.940  0.00  0.00    +0.000 A 
ATOM      5  C   UNL     1       2.610   4.009  20.117  0.00  0.00    +0.000 A 
ATOM      6  S   UNL     1       2.747   2.323  20.357  0.00  0.00    +0.000 S 
ATOM      7  C   UNL     1       2.024   5.193  20.840  0.00  0.00    +0.000 C 
ATOM      8  C   UNL     1       2.274   6.358  19.792  0.00  0.00    +0.000 A 
ATOM      9  C   UNL     1       1.886   7.761  19.800  0.00  0.00    +0.000 A 
ATOM     10  C   UNL     1       2.077   8.784  18.683  0.00  0.00    +0.000 A 
ATOM     11  C   UNL     1       2.873   8.137  17.643  0.00  0.00    +0.000 A 
ATOM     12  C   UNL     1       3.312   6.731  17.678  0.00  0.00    +0.000 A 
ATOM     13  C   UNL     1       2.958   5.848  18.720  0.00  0.00    +0.000 A 
ATOM     14  H   UNL     1       4.636   0.843  17.509  0.00  0.00    +0.000 HD
ATOM     15  H   UNL     1       3.889  -0.018  18.853  0.00  0.00    +0.000 HD
ENDROOT
BRANCH  10  16
ATOM     16  C   UNL     1       1.283  10.351  18.732  0.00  0.00    +0.000 A 
ATOM     17  C   UNL     1      -0.041   9.951  18.597  0.00  0.00    +0.000 A 
ATOM     18  C   UNL     1      -1.050  10.696  18.122  0.00  0.00    +0.000 A 
ATOM     19  C   UNL     1      -1.194  11.834  18.786  0.00  0.00    +0.000 A 
ATOM     20  C   UNL     1      -0.064  12.589  18.881  0.00  0.00    +0.000 A 
ATOM     21  C   UNL     1      -0.442  13.949  19.039  0.00  0.00    +0.000 A 
ATOM     22  C   UNL     1       0.465  14.938  18.903  0.00  0.00    +0.000 A 
ATOM     23  C   UNL     1       1.773  14.560  18.646  0.00  0.00    +0.000 A 
ATOM     24  C   UNL     1       2.226  13.131  18.585  0.00  0.00    +0.000 A 
ATOM     25  C   UNL     1       1.290  11.967  18.694  0.00  0.00    +0.000 A 
ENDBRANCH  10  16
TORSDOF 1
ENDMDL
MODEL 3
REMARK VINA RESULT:      -8.9      1.200      1.793
REMARK  Name = 
REMARK  1 active torsions:
REMARK  status: ('A' for Active; 'I' for Inactive)
REMARK    1  A    between atoms: C_10  and  C_11
REMARK                            x       y       z     vdW  Elec       q    Type
REMARK                         _______ _______ _______ _____ _____    ______ ____
ROOT
ATOM      1  N   UNL     1      -2.995  12.440  23.165  0.00  0.00    +0.000 N 
ATOM      2  C   UNL     1      -2.119  11.924  22.149  0.00  0.00    +0.000 A 
ATOM      3  N   UNL     1      -1.250  10.872  22.347  0.00  0.00    +0.000 NA
ATOM      4  C   UNL     1      -0.530  10.603  21.208  0.00  0.00    +0.000 A 
ATOM      5  C   UNL     1      -0.791  11.410  20.156  0.00  0.00    +0.000 A 
ATOM      6  S   UNL     1      -1.992  12.552  20.564  0.00  0.00    +0.000 S 
ATOM      7  C   UNL     1       0.035  11.044  18.951  0.00  0.00    +0.000 C 
ATOM      8  C   UNL     1       0.809   9.762  19.476  0.00  0.00    +0.000 A 
ATOM      9  C   UNL     1       1.718   8.844  18.806  0.00  0.00    +0.000 A 
ATOM     10  C   UNL     1       2.328   7.563  19.370  0.00  0.00    +0.000 A 
ATOM     11  C   UNL     1       1.956   7.499  20.781  0.00  0.00    +0.000 A 
ATOM     12  C   UNL     1       1.083   8.471  21.462  0.00  0.00    +0.000 A 
ATOM     13  C   UNL     1       0.477   9.552  20.788  0.00  0.00    +0.000 A 
ATOM     14  H   UNL     1      -2.937  12.095  24.138  0.00  0.00    +0.000 HD
ATOM     15  H   UNL     1      -3.654  13.215  22.982  0.00  0.00    +0.000 HD
ENDROOT
BRANCH  10  16
ATOM     16  C   UNL     1       3.161   6.413  18.335  0.00  0.00    +0.000 A 
ATOM     17  C   UNL     1       2.331   5.308  18.491  0.00  0.00    +0.000 A 
ATOM     18  C   UNL     1       2.680   4.025  18.317  0.00  0.00    +0.000 A 
ATOM     19  C   UNL     1       3.185   3.796  17.114  0.00  0.00    +0.000 A 
ATOM     20  C   UNL     1       4.220   4.608  16.763  0.00  0.00    +0.000 A 
ATOM     21  C   UNL     1       5.027   3.927  15.813  0.00  0.00    +0.000 A 
ATOM     22  C   UNL     1       6.251   4.391  15.487  0.00  0.00    +0.000 A 
ATOM     23  C   UNL     1       6.655   5.573  16.089  0.00  0.00    +0.000 A 
ATOM     24  C   UNL     1       5.785   6.375  17.009  0.00  0.00    +0.000 A 
ATOM     25  C   UNL     1       4.425   5.927  17.452  0.00  0.00    +0.000 A 
ENDBRANCH  10  16
TORSDOF 1
ENDMDL
MODEL 4
REMARK VINA RESULT:      -8.8      4.626      8.401
REMARK  Name = 
REMARK  1 active torsions:
REMARK  status: ('A' for Active; 'I' for Inactive)
REMARK    1  A    between atoms: C_10  and  C_11
REMARK                            x       y       z     vdW  Elec       q    Type
REMARK                         _______ _______ _______ _____ _____    ______ ____
ROOT
ATOM      1  N   UNL     1       4.845   2.080  19.898  0.00  0.00    +0.000 N 
ATOM      2  C   UNL     1       4.465   3.338  19.317  0.00  0.00    +0.000 A 
ATOM      3  N   UNL     1       3.576   4.215  19.900  0.00  0.00    +0.000 NA
ATOM      4  C   UNL     1       3.394   5.330  19.117  0.00  0.00    +0.000 A 
ATOM      5  C   UNL     1       4.084   5.339  17.956  0.00  0.00    +0.000 A 
ATOM      6  S   UNL     1       5.024   3.921  17.810  0.00  0.00    +0.000 S 
ATOM      7  C   UNL     1       3.832   6.594  17.164  0.00  0.00    +0.000 C 
ATOM      8  C   UNL     1       2.888   7.405  18.149  0.00  0.00    +0.000 A 
ATOM      9  C   UNL     1       2.327   8.745  18.060  0.00  0.00    +0.000 A 
ATOM     10  C   UNL     1       1.514   9.484  19.121  0.00  0.00    +0.000 A 
ATOM     11  C   UNL     1       1.261   8.535  20.202  0.00  0.00    +0.000 A 
ATOM     12  C   UNL     1       1.786   7.160  20.249  0.00  0.00    +0.000 A 
ATOM     13  C   UNL     1       2.637   6.635  19.253  0.00  0.00    +0.000 A 
ATOM     14  H   UNL     1       4.379   1.731  20.753  0.00  0.00    +0.000 HD
ATOM     15  H   UNL     1       5.533   1.451  19.450  0.00  0.00    +0.000 HD
ENDROOT
BRANCH  10  16
ATOM     16  C   UNL     1       1.171  11.202  18.978  0.00  0.00    +0.000 A 
ATOM     17  C   UNL     1      -0.217  11.162  18.906  0.00  0.00    +0.000 A 
ATOM     18  C   UNL     1      -1.009  12.090  18.350  0.00  0.00    +0.000 A 
ATOM     19  C   UNL     1      -0.815  13.295  18.865  0.00  0.00    +0.000 A 
ATOM     20  C   UNL     1       0.479  13.722  18.854  0.00  0.00    +0.000 A 
ATOM     21  C   UNL     1       0.485  15.142  18.842  0.00  0.00    +0.000 A 
ATOM     22  C   UNL     1       1.617  15.826  18.574  0.00  0.00    +0.000 A 
ATOM     23  C   UNL     1       2.764  15.079  18.355  0.00  0.00    +0.000 A 
ATOM     24  C   UNL     1       2.816  13.585  18.471  0.00  0.00    +0.000 A 
ATOM     25  C   UNL     1       1.608  12.739  18.735  0.00  0.00    +0.000 A 
ENDBRANCH  10  16
TORSDOF 1
ENDMDL
MODEL 5
REMARK VINA RESULT:      -8.7      4.116      8.843
REMARK  Name = 
REMARK  1 active torsions:
REMARK  status: ('A' for Active; 'I' for Inactive)
REMARK    1  A    between atoms: C_10  and  C_11
REMARK                            x       y       z     vdW  Elec       q    Type
REMARK                         _______ _______ _______ _____ _____    ______ ____
ROOT
ATOM      1  N   UNL     1       5.580   3.253  16.406  0.00  0.00    +0.000 N 
ATOM      2  C   UNL     1       4.793   4.046  17.308  0.00  0.00    +0.000 A 
ATOM      3  N   UNL     1       4.406   5.344  17.051  0.00  0.00    +0.000 NA
ATOM      4  C   UNL     1       3.673   5.859  18.093  0.00  0.00    +0.000 A 
ATOM      5  C   UNL     1       3.497   5.026  19.142  0.00  0.00    +0.000 A 
ATOM      6  S   UNL     1       4.250   3.523  18.843  0.00  0.00    +0.000 S 
ATOM      7  C   UNL     1       2.681   5.665  20.234  0.00  0.00    +0.000 C 
ATOM      8  C   UNL     1       2.316   7.063  19.579  0.00  0.00    +0.000 A 
ATOM      9  C   UNL     1       1.474   8.156  20.045  0.00  0.00    +0.000 A 
ATOM     10  C   UNL     1       1.091   9.423  19.285  0.00  0.00    +0.000 A 
ATOM     11  C   UNL     1       1.857   9.423  18.041  0.00  0.00    +0.000 A 
ATOM     12  C   UNL     1       2.754   8.336  17.610  0.00  0.00    +0.000 A 
ATOM     13  C   UNL     1       2.925   7.150  18.355  0.00  0.00    +0.000 A 
ATOM     14  H   UNL     1       5.979   3.668  15.547  0.00  0.00    +0.000 HD
ATOM     15  H   UNL     1       5.836   2.273  16.614  0.00  0.00    +0.000 HD
ENDROOT
BRANCH  10  16
ATOM     16  C   UNL     1      -0.172  10.495  19.871  0.00  0.00    +0.000 A 
ATOM     17  C   UNL     1      -0.601  11.038  18.665  0.00  0.00    +0.000 A 
ATOM     18  C   UNL     1      -1.215  12.219  18.502  0.00  0.00    +0.000 A 
ATOM     19  C   UNL     1      -2.314  12.324  19.233  0.00  0.00    +0.000 A 
ATOM     20  C   UNL     1      -2.146  12.068  20.561  0.00  0.00    +0.000 A 
ATOM     21  C   UNL     1      -3.150  12.764  21.285  0.00  0.00    +0.000 A 
ATOM     22  C   UNL     1      -3.069  12.896  22.625  0.00  0.00    +0.000 A 
ATOM     23  C   UNL     1      -1.991  12.290  23.252  0.00  0.00    +0.000 A 
ATOM     24  C   UNL     1      -0.976  11.454  22.531  0.00  0.00    +0.000 A 
ATOM     25  C   UNL     1      -0.966  11.274  21.043  0.00  0.00    +0.000 A 
ENDBRANCH  10  16
TORSDOF 1
ENDMDL
MODEL 6
REMARK VINA RESULT:      -8.6      1.001      1.121
REMARK  Name = 
REMARK  1 active torsions:
REMARK  status: ('A' for Active; 'I' for Inactive)
REMARK    1  A    between atoms: C_10  and  C_11
REMARK                            x       y       z     vdW  Elec       q    Type
REMARK                         _______ _______ _______ _____ _____    ______ ____
ROOT
ATOM      1  N   UNL     1      -1.667  13.746  22.179  0.00  0.00    +0.000 N 
ATOM      2  C   UNL     1      -1.084  12.460  21.913  0.00  0.00    +0.000 A 
ATOM      3  N   UNL     1      -0.512  12.111  20.708  0.00  0.00    +0.000 NA
ATOM      4  C   UNL     1      -0.047  10.819  20.736  0.00  0.00    +0.000 A 
ATOM      5  C   UNL     1      -0.253  10.156  21.895  0.00  0.00    +0.000 A 
ATOM      6  S   UNL     1      -1.042  11.163  23.026  0.00  0.00    +0.000 S 
ATOM      7  C   UNL     1       0.290   8.752  21.842  0.00  0.00    +0.000 C 
ATOM      8  C   UNL     1       0.961   8.728  20.404  0.00  0.00    +0.000 A 
ATOM      9  C   UNL     1       1.747   7.707  19.725  0.00  0.00    +0.000 A 
ATOM     10  C   UNL     1       2.451   7.822  18.375  0.00  0.00    +0.000 A 
ATOM     11  C   UNL     1       2.062   9.108  17.799  0.00  0.00    +0.000 A 
ATOM     12  C   UNL     1       1.215  10.106  18.475  0.00  0.00    +0.000 A 
ATOM     13  C   UNL     1       0.726   9.927  19.786  0.00  0.00    +0.000 A 
ATOM     14  H   UNL     1      -1.768  14.447  21.426  0.00  0.00    +0.000 HD
ATOM     15  H   UNL     1      -2.068  13.989  23.101  0.00  0.00    +0.000 HD
ENDROOT
BRANCH  10  16
ATOM     16  C   UNL     1       3.605   6.610  17.839  0.00  0.00    +0.000 A 
ATOM     17  C   UNL     1       3.804   5.927  19.033  0.00  0.00    +0.000 A 
ATOM     18  C   UNL     1       4.886   5.206  19.362  0.00  0.00    +0.000 A 
ATOM     19  C   UNL     1       5.149   4.255  18.478  0.00  0.00    +0.000 A 
ATOM     20  C   UNL     1       5.252   4.684  17.189  0.00  0.00    +0.000 A 
ATOM     21  C   UNL     1       6.087   3.781  16.479  0.00  0.00    +0.000 A 
ATOM     22  C   UNL     1       6.565   4.097  15.258  0.00  0.00    +0.000 A 
ATOM     23  C   UNL     1       6.170   5.314  14.725  0.00  0.00    +0.000 A 
ATOM     24  C   UNL     1       5.202   6.240  15.399  0.00  0.00    +0.000 A 
ATOM     25  C   UNL     1       4.642   5.989  16.766  0.00  0.00    +0.000 A 
ENDBRANCH  10  16
TORSDOF 1
ENDMDL
MODEL 7
REMARK VINA RESULT:      -8.5      1.357      2.527
REMARK  Name = 
REMARK  1 active torsions:
REMARK  status: ('A' for Active; 'I' for Inactive)
REMARK    1  A    between atoms: C_10  and  C_11
REMARK                            x       y       z     vdW  Elec       q    Type
REMARK                         _______ _______ _______ _____ _____    ______ ____
ROOT
ATOM      1  N   UNL     1      -0.598  15.642  21.420  0.00  0.00    +0.000 N 
ATOM      2  C   UNL     1      -0.401  14.222  21.336  0.00  0.00    +0.000 A 
ATOM      3  N   UNL     1       0.103  13.581  20.224  0.00  0.00    +0.000 NA
ATOM      4  C   UNL     1       0.171  12.224  20.421  0.00  0.00    +0.000 A 
ATOM      5  C   UNL     1      -0.275  11.792  21.621  0.00  0.00    +0.000 A 
ATOM      6  S   UNL     1      -0.792  13.111  22.575  0.00  0.00    +0.000 S 
ATOM      7  C   UNL     1      -0.161  10.296  21.757  0.00  0.00    +0.000 C 
ATOM      8  C   UNL     1       0.544   9.908  20.389  0.00  0.00    +0.000 A 
ATOM      9  C   UNL     1       1.031   8.633  19.884  0.00  0.00    +0.000 A 
ATOM     10  C   UNL     1       1.803   8.379  18.592  0.00  0.00    +0.000 A 
ATOM     11  C   UNL     1       1.833   9.642  17.858  0.00  0.00    +0.000 A 
ATOM     12  C   UNL     1       1.280  10.913  18.356  0.00  0.00    +0.000 A 
ATOM     13  C   UNL     1       0.697  11.041  19.634  0.00  0.00    +0.000 A 
ATOM     14  H   UNL     1      -0.455  16.246  20.593  0.00  0.00    +0.000 HD
ATOM     15  H   UNL     1      -0.956  16.099  22.276  0.00  0.00    +0.000 HD
ENDROOT
BRANCH  10  16
ATOM     16  C   UNL     1       2.581   6.835  18.278  0.00  0.00    +0.000 A 
ATOM     17  C   UNL     1       3.807   7.279  17.797  0.00  0.00    +0.000 A 
ATOM     18  C   UNL     1       4.635   6.600  16.990  0.00  0.00    +0.000 A 
ATOM     19  C   UNL     1       4.970   5.418  17.486  0.00  0.00    +0.000 A 
ATOM     20  C   UNL     1       3.919   4.628  17.843  0.00  0.00    +0.000 A 
ATOM     21  C   UNL     1       4.330   3.271  17.772  0.00  0.00    +0.000 A 
ATOM     22  C   UNL     1       3.425   2.272  17.825  0.00  0.00    +0.000 A 
ATOM     23  C   UNL     1       2.098   2.634  17.991  0.00  0.00    +0.000 A 
ATOM     24  C   UNL     1       1.643   4.051  18.183  0.00  0.00    +0.000 A 
ATOM     25  C   UNL     1       2.568   5.227  18.110  0.00  0.00    +0.000 A 
ENDBRANCH  10  16
TORSDOF 1
ENDMDL
MODEL 8
REMARK VINA RESULT:      -8.5      1.676      3.058
REMARK  Name = 
REMARK  1 active torsions:
REMARK  status: ('A' for Active; 'I' for Inactive)
REMARK    1  A    between atoms: C_10  and  C_11
REMARK                            x       y       z     vdW  Elec       q    Type
REMARK                         _______ _______ _______ _____ _____    ______ ____
ROOT
ATOM      1  N   UNL     1      -2.844  13.642  23.678  0.00  0.00    +0.000 N 
ATOM      2  C   UNL     1      -2.169  12.884  22.661  0.00  0.00    +0.000 A 
ATOM      3  N   UNL     1      -1.269  11.874  22.927  0.00  0.00    +0.000 NA
ATOM      4  C   UNL     1      -0.773  11.334  21.765  0.00  0.00    +0.000 A 
ATOM      5  C   UNL     1      -1.234  11.894  20.625  0.00  0.00    +0.000 A 
ATOM      6  S   UNL     1      -2.348  13.138  20.980  0.00  0.00    +0.000 S 
ATOM      7  C   UNL     1      -0.646  11.241  19.402  0.00  0.00    +0.000 C 
ATOM      8  C   UNL     1       0.224  10.083  20.050  0.00  0.00    +0.000 A 
ATOM      9  C   UNL     1       1.001   9.009  19.448  0.00  0.00    +0.000 A 
ATOM     10  C   UNL     1       1.718   7.866  20.163  0.00  0.00    +0.000 A 
ATOM     11  C   UNL     1       1.617   8.131  21.597  0.00  0.00    +0.000 A 
ATOM     12  C   UNL     1       0.878   9.259  22.190  0.00  0.00    +0.000 A 
ATOM     13  C   UNL     1       0.146  10.183  21.414  0.00  0.00    +0.000 A 
ATOM     14  H   UNL     1      -2.601  13.521  24.676  0.00  0.00    +0.000 HD
ATOM     15  H   UNL     1      -3.533  14.379  23.451  0.00  0.00    +0.000 HD
ENDROOT
BRANCH  10  16
ATOM     16  C   UNL     1       2.352   6.487  19.278  0.00  0.00    +0.000 A 
ATOM     17  C   UNL     1       3.345   7.118  18.536  0.00  0.00    +0.000 A 
ATOM     18  C   UNL     1       3.857   6.689  17.373  0.00  0.00    +0.000 A 
ATOM     19  C   UNL     1       4.344   5.460  17.457  0.00  0.00    +0.000 A 
ATOM     20  C   UNL     1       3.477   4.532  17.952  0.00  0.00    +0.000 A 
ATOM     21  C   UNL     1       3.846   3.256  17.450  0.00  0.00    +0.000 A 
ATOM     22  C   UNL     1       3.016   2.200  17.571  0.00  0.00    +0.000 A 
ATOM     23  C   UNL     1       1.820   2.414  18.237  0.00  0.00    +0.000 A 
ATOM     24  C   UNL     1       1.449   3.719  18.876  0.00  0.00    +0.000 A 
ATOM     25  C   UNL     1       2.290   4.954  18.770  0.00  0.00    +0.000 A 
ENDBRANCH  10  16
TORSDOF 1
ENDMDL
MODEL 9
REMARK VINA RESULT:      -8.4      4.079      8.883
REMARK  Name = 
REMARK  1 active torsions:
REMARK  status: ('A' for Active; 'I' for Inactive)
REMARK    1  A    between atoms: C_10  and  C_11
REMARK                            x       y       z     vdW  Elec       q    Type
REMARK                         _______ _______ _______ _____ _____    ______ ____
ROOT
ATOM      1  N   UNL     1       5.179   3.219  16.232  0.00  0.00    +0.000 N 
ATOM      2  C   UNL     1       4.491   3.982  17.237  0.00  0.00    +0.000 A 
ATOM      3  N   UNL     1       4.108   5.296  17.075  0.00  0.00    +0.000 NA
ATOM      4  C   UNL     1       3.481   5.772  18.200  0.00  0.00    +0.000 A 
ATOM      5  C   UNL     1       3.383   4.894  19.222  0.00  0.00    +0.000 A 
ATOM      6  S   UNL     1       4.077   3.395  18.788  0.00  0.00    +0.000 S 
ATOM      7  C   UNL     1       2.680   5.493  20.411  0.00  0.00    +0.000 C 
ATOM      8  C   UNL     1       2.285   6.926  19.856  0.00  0.00    +0.000 A 
ATOM      9  C   UNL     1       1.510   8.008  20.445  0.00  0.00    +0.000 A 
ATOM     10  C   UNL     1       1.086   9.316  19.781  0.00  0.00    +0.000 A 
ATOM     11  C   UNL     1       1.738   9.362  18.475  0.00  0.00    +0.000 A 
ATOM     12  C   UNL     1       2.571   8.283  17.916  0.00  0.00    +0.000 A 
ATOM     13  C   UNL     1       2.785   7.061  18.587  0.00  0.00    +0.000 A 
ATOM     14  H   UNL     1       5.507   3.668  15.360  0.00  0.00    +0.000 HD
ATOM     15  H   UNL     1       5.433   2.227  16.371  0.00  0.00    +0.000 HD
ENDROOT
BRANCH  10  16
ATOM     16  C   UNL     1      -0.099  10.378  20.527  0.00  0.00    +0.000 A 
ATOM     17  C   UNL     1       0.166  10.126  21.868  0.00  0.00    +0.000 A 
ATOM     18  C   UNL     1      -0.689  10.288  22.889  0.00  0.00    +0.000 A 
ATOM     19  C   UNL     1      -1.174  11.519  22.952  0.00  0.00    +0.000 A 
ATOM     20  C   UNL     1      -1.739  11.973  21.798  0.00  0.00    +0.000 A 
ATOM     21  C   UNL     1      -2.704  12.961  22.126  0.00  0.00    +0.000 A 
ATOM     22  C   UNL     1      -3.590  13.394  21.206  0.00  0.00    +0.000 A 
ATOM     23  C   UNL     1      -3.482  12.861  19.931  0.00  0.00    +0.000 A 
ATOM     24  C   UNL     1      -2.405  11.900  19.522  0.00  0.00    +0.000 A 
ATOM     25  C   UNL     1      -1.397  11.341  20.479  0.00  0.00    +0.000 A 
ENDBRANCH  10  16
TORSDOF 1
ENDMDL
