MODEL 1
REMARK VINA RESULT:      -7.1      0.000      0.000
REMARK  Name = 
REMARK  5 active torsions:
REMARK  status: ('A' for Active; 'I' for Inactive)
REMARK    1  A    between atoms: C_1  and  C_2
REMARK    2  A    between atoms: C_5  and  N_6
REMARK    3  A    between atoms: C_10  and  N_11
REMARK    4  A    between atoms: C_12  and  C_14
REMARK    5  A    between atoms: C_28  and  C_29
REMARK                            x       y       z     vdW  Elec       q    Type
REMARK                         _______ _______ _______ _____ _____    ______ ____
ROOT
ATOM      1  N   UNL     1      -0.265  14.525  20.431  0.00  0.00    +0.000 N 
ATOM      2  N   UNL     1      -0.389  15.766  19.869  0.00  0.00    +0.000 NA
ATOM      3  C   UNL     1       0.755  15.931  19.219  0.00  0.00    +0.000 A 
ATOM      4  C   UNL     1       1.547  14.770  19.193  0.00  0.00    +0.000 A 
ATOM      5  C   UNL     1       0.873  13.858  19.964  0.00  0.00    +0.000 A 
ATOM      6  C   UNL     1       2.746  14.825  18.329  0.00  0.00    +0.000 C 
ATOM      7  S   UNL     1       2.896  16.612  17.964  0.00  0.00    +0.000 S 
ATOM      8  O   UNL     1       3.865  17.182  18.876  0.00  0.00    +0.000 OA
ATOM      9  O   UNL     1       3.015  16.784  16.528  0.00  0.00    +0.000 OA
ATOM     10  C   UNL     1       1.228  17.127  18.488  0.00  0.00    +0.000 C 
ENDROOT
BRANCH   1  15
ATOM     11  C   UNL     1      -3.998  12.456  24.249  0.00  0.00    +0.000 C 
ATOM     12  C   UNL     1      -3.044  13.033  23.237  0.00  0.00    +0.000 A 
ATOM     13  C   UNL     1      -1.772  13.449  23.654  0.00  0.00    +0.000 A 
ATOM     14  C   UNL     1      -0.847  13.946  22.736  0.00  0.00    +0.000 A 
ATOM     15  C   UNL     1      -1.200  14.055  21.386  0.00  0.00    +0.000 A 
ATOM     16  C   UNL     1      -2.487  13.706  20.969  0.00  0.00    +0.000 A 
ATOM     17  C   UNL     1      -3.404  13.160  21.880  0.00  0.00    +0.000 A 
ATOM     18  C   UNL     1      -4.747  12.699  21.379  0.00  0.00    +0.000 C 
ENDBRANCH   1  15
BRANCH   5  19
ATOM     19  N   UNL     1       1.182  12.509  20.137  0.00  0.00    +0.000 N 
ATOM     20  C   UNL     1       0.486  11.487  19.406  0.00  0.00    +0.000 C 
ATOM     21  O   UNL     1      -0.383  11.816  18.621  0.00  0.00    +0.000 OA
ATOM     22  H   UNL     1       2.013  12.280  20.677  0.00  0.00    +0.000 HD
BRANCH  20  23
ATOM     23  C   UNL     1       0.885  10.084  19.636  0.00  0.00    +0.000 A 
ATOM     24  C   UNL     1       1.590   9.417  18.634  0.00  0.00    +0.000 A 
ATOM     25  F   UNL     1       1.775   9.993  17.437  0.00  0.00    +0.000 F 
ATOM     26  C   UNL     1       2.124   8.148  18.844  0.00  0.00    +0.000 A 
ATOM     27  C   UNL     1       1.941   7.518  20.071  0.00  0.00    +0.000 A 
ATOM     28  C   UNL     1       1.192   8.148  21.065  0.00  0.00    +0.000 A 
ATOM     29  C   UNL     1       0.657   9.426  20.850  0.00  0.00    +0.000 A 
ATOM     30 CL   UNL     1      -0.332  10.075  22.108  0.00  0.00    +0.000 Cl
ENDBRANCH  20  23
ENDBRANCH   5  19
TORSDOF 3
ENDMDL
MODEL 2
REMARK VINA RESULT:      -7.1      4.842      7.828
REMARK  Name = 
REMARK  5 active torsions:
REMARK  status: ('A' for Active; 'I' for Inactive)
REMARK    1  A    between atoms: C_1  and  C_2
REMARK    2  A    between atoms: C_5  and  N_6
REMARK    3  A    between atoms: C_10  and  N_11
REMARK    4  A    between atoms: C_12  and  C_14
REMARK    5  A    between atoms: C_28  and  C_29
REMARK                            x       y       z     vdW  Elec       q    Type
REMARK                         _______ _______ _______ _____ _____    ______ ____
ROOT
ATOM      1  N   UNL     1      -5.063  12.245  19.667  0.00  0.00    +0.000 N 
ATOM      2  N   UNL     1      -6.246  11.749  20.139  0.00  0.00    +0.000 NA
ATOM      3  C   UNL     1      -6.331  12.253  21.363  0.00  0.00    +0.000 A 
ATOM      4  C   UNL     1      -5.330  13.200  21.640  0.00  0.00    +0.000 A 
ATOM      5  C   UNL     1      -4.522  13.204  20.533  0.00  0.00    +0.000 A 
ATOM      6  C   UNL     1      -5.475  13.937  22.913  0.00  0.00    +0.000 C 
ATOM      7  S   UNL     1      -6.741  12.961  23.802  0.00  0.00    +0.000 S 
ATOM      8  O   UNL     1      -6.065  12.065  24.717  0.00  0.00    +0.000 OA
ATOM      9  O   UNL     1      -7.786  13.860  24.257  0.00  0.00    +0.000 OA
ATOM     10  C   UNL     1      -7.364  11.992  22.390  0.00  0.00    +0.000 C 
ENDROOT
BRANCH   1  15
ATOM     11  C   UNL     1      -2.851  10.173  14.808  0.00  0.00    +0.000 C 
ATOM     12  C   UNL     1      -3.398  10.743  16.090  0.00  0.00    +0.000 A 
ATOM     13  C   UNL     1      -4.621  11.429  16.067  0.00  0.00    +0.000 A 
ATOM     14  C   UNL     1      -5.179  11.931  17.244  0.00  0.00    +0.000 A 
ATOM     15  C   UNL     1      -4.499  11.772  18.456  0.00  0.00    +0.000 A 
ATOM     16  C   UNL     1      -3.248  11.150  18.481  0.00  0.00    +0.000 A 
ATOM     17  C   UNL     1      -2.706  10.600  17.310  0.00  0.00    +0.000 A 
ATOM     18  C   UNL     1      -1.405   9.847  17.389  0.00  0.00    +0.000 C 
ENDBRANCH   1  15
BRANCH   5  19
ATOM     19  N   UNL     1      -3.467  14.074  20.262  0.00  0.00    +0.000 N 
ATOM     20  C   UNL     1      -2.137  13.796  20.726  0.00  0.00    +0.000 C 
ATOM     21  O   UNL     1      -1.938  12.778  21.361  0.00  0.00    +0.000 OA
ATOM     22  H   UNL     1      -3.635  14.828  19.601  0.00  0.00    +0.000 HD
BRANCH  20  23
ATOM     23  C   UNL     1      -1.073  14.761  20.382  0.00  0.00    +0.000 A 
ATOM     24  C   UNL     1      -0.884  15.869  21.208  0.00  0.00    +0.000 A 
ATOM     25  F   UNL     1      -1.739  16.123  22.209  0.00  0.00    +0.000 F 
ATOM     26  C   UNL     1       0.193  16.734  21.027  0.00  0.00    +0.000 A 
ATOM     27  C   UNL     1       1.094  16.505  19.992  0.00  0.00    +0.000 A 
ATOM     28  C   UNL     1       0.888  15.433  19.123  0.00  0.00    +0.000 A 
ATOM     29  C   UNL     1      -0.196  14.564  19.309  0.00  0.00    +0.000 A 
ATOM     30 CL   UNL     1      -0.413  13.328  18.124  0.00  0.00    +0.000 Cl
ENDBRANCH  20  23
ENDBRANCH   5  19
TORSDOF 3
ENDMDL
MODEL 3
REMARK VINA RESULT:      -6.9      3.436      6.372
REMARK  Name = 
REMARK  5 active torsions:
REMARK  status: ('A' for Active; 'I' for Inactive)
REMARK    1  A    between atoms: C_1  and  C_2
REMARK    2  A    between atoms: C_5  and  N_6
REMARK    3  A    between atoms: C_10  and  N_11
REMARK    4  A    between atoms: C_12  and  C_14
REMARK    5  A    between atoms: C_28  and  C_29
REMARK                            x       y       z     vdW  Elec       q    Type
REMARK                         _______ _______ _______ _____ _____    ______ ____
ROOT
ATOM      1  N   UNL     1      -0.943  11.889  22.206  0.00  0.00    +0.000 N 
ATOM      2  N   UNL     1      -2.139  11.732  22.849  0.00  0.00    +0.000 NA
ATOM      3  C   UNL     1      -2.362  12.923  23.390  0.00  0.00    +0.000 A 
ATOM      4  C   UNL     1      -1.440  13.899  22.975  0.00  0.00    +0.000 A 
ATOM      5  C   UNL     1      -0.534  13.229  22.194  0.00  0.00    +0.000 A 
ATOM      6  C   UNL     1      -1.739  15.287  23.388  0.00  0.00    +0.000 C 
ATOM      7  S   UNL     1      -3.032  15.057  24.662  0.00  0.00    +0.000 S 
ATOM      8  O   UNL     1      -2.401  15.097  25.964  0.00  0.00    +0.000 OA
ATOM      9  O   UNL     1      -4.159  15.914  24.340  0.00  0.00    +0.000 OA
ATOM     10  C   UNL     1      -3.472  13.330  24.280  0.00  0.00    +0.000 C 
ENDROOT
BRANCH   1  15
ATOM     11  C   UNL     1       2.024   7.499  20.035  0.00  0.00    +0.000 C 
ATOM     12  C   UNL     1       1.209   8.640  20.583  0.00  0.00    +0.000 A 
ATOM     13  C   UNL     1       0.983   8.719  21.965  0.00  0.00    +0.000 A 
ATOM     14  C   UNL     1       0.271   9.787  22.511  0.00  0.00    +0.000 A 
ATOM     15  C   UNL     1      -0.246  10.779  21.670  0.00  0.00    +0.000 A 
ATOM     16  C   UNL     1      -0.084  10.676  20.286  0.00  0.00    +0.000 A 
ATOM     17  C   UNL     1       0.673   9.631  19.735  0.00  0.00    +0.000 A 
ATOM     18  C   UNL     1       0.914   9.605  18.250  0.00  0.00    +0.000 C 
ENDBRANCH   1  15
BRANCH   5  19
ATOM     19  N   UNL     1       0.497  13.782  21.436  0.00  0.00    +0.000 N 
ATOM     20  C   UNL     1       0.283  14.193  20.077  0.00  0.00    +0.000 C 
ATOM     21  O   UNL     1      -0.823  14.056  19.590  0.00  0.00    +0.000 OA
ATOM     22  H   UNL     1       1.359  14.026  21.919  0.00  0.00    +0.000 HD
BRANCH  20  23
ATOM     23  C   UNL     1       1.425  14.784  19.350  0.00  0.00    +0.000 A 
ATOM     24  C   UNL     1       2.424  13.936  18.872  0.00  0.00    +0.000 A 
ATOM     25  F   UNL     1       2.417  12.634  19.190  0.00  0.00    +0.000 F 
ATOM     26  C   UNL     1       3.446  14.409  18.053  0.00  0.00    +0.000 A 
ATOM     27  C   UNL     1       3.489  15.757  17.713  0.00  0.00    +0.000 A 
ATOM     28  C   UNL     1       2.529  16.629  18.227  0.00  0.00    +0.000 A 
ATOM     29  C   UNL     1       1.500  16.149  19.050  0.00  0.00    +0.000 A 
ATOM     30 CL   UNL     1       0.420  17.324  19.708  0.00  0.00    +0.000 Cl
ENDBRANCH  20  23
ENDBRANCH   5  19
TORSDOF 3
ENDMDL
MODEL 4
REMARK VINA RESULT:      -6.9      4.528      7.163
REMARK  Name = 
REMARK  5 active torsions:
REMARK  status: ('A' for Active; 'I' for Inactive)
REMARK    1  A    between atoms: C_1  and  C_2
REMARK    2  A    between atoms: C_5  and  N_6
REMARK    3  A    between atoms: C_10  and  N_11
REMARK    4  A    between atoms: C_12  and  C_14
REMARK    5  A    between atoms: C_28  and  C_29
REMARK                            x       y       z     vdW  Elec       q    Type
REMARK                         _______ _______ _______ _____ _____    ______ ____
ROOT
ATOM      1  N   UNL     1      -4.695  12.224  19.713  0.00  0.00    +0.000 N 
ATOM      2  N   UNL     1      -6.029  12.158  20.007  0.00  0.00    +0.000 NA
ATOM      3  C   UNL     1      -6.085  12.517  21.283  0.00  0.00    +0.000 A 
ATOM      4  C   UNL     1      -4.856  12.983  21.780  0.00  0.00    +0.000 A 
ATOM      5  C   UNL     1      -3.964  12.809  20.755  0.00  0.00    +0.000 A 
ATOM      6  C   UNL     1      -4.890  13.574  23.136  0.00  0.00    +0.000 C 
ATOM      7  S   UNL     1      -6.527  13.050  23.762  0.00  0.00    +0.000 S 
ATOM      8  O   UNL     1      -6.345  11.869  24.580  0.00  0.00    +0.000 OA
ATOM      9  O   UNL     1      -7.228  14.218  24.263  0.00  0.00    +0.000 OA
ATOM     10  C   UNL     1      -7.267  12.549  22.173  0.00  0.00    +0.000 C 
ENDROOT
BRANCH   1  15
ATOM     11  C   UNL     1      -2.704  10.000  14.826  0.00  0.00    +0.000 C 
ATOM     12  C   UNL     1      -3.193  10.611  16.113  0.00  0.00    +0.000 A 
ATOM     13  C   UNL     1      -4.418  11.294  16.125  0.00  0.00    +0.000 A 
ATOM     14  C   UNL     1      -4.922  11.833  17.309  0.00  0.00    +0.000 A 
ATOM     15  C   UNL     1      -4.187  11.714  18.493  0.00  0.00    +0.000 A 
ATOM     16  C   UNL     1      -2.934  11.094  18.480  0.00  0.00    +0.000 A 
ATOM     17  C   UNL     1      -2.445  10.507  17.303  0.00  0.00    +0.000 A 
ATOM     18  C   UNL     1      -1.140   9.759  17.347  0.00  0.00    +0.000 C 
ENDBRANCH   1  15
BRANCH   5  19
ATOM     19  N   UNL     1      -2.640  13.244  20.705  0.00  0.00    +0.000 N 
ATOM     20  C   UNL     1      -1.614  12.594  21.470  0.00  0.00    +0.000 C 
ATOM     21  O   UNL     1      -1.915  11.643  22.166  0.00  0.00    +0.000 OA
ATOM     22  H   UNL     1      -2.397  13.934  19.998  0.00  0.00    +0.000 HD
BRANCH  20  23
ATOM     23  C   UNL     1      -0.235  13.108  21.347  0.00  0.00    +0.000 A 
ATOM     24  C   UNL     1       0.637  12.478  20.459  0.00  0.00    +0.000 A 
ATOM     25  F   UNL     1       0.271  11.348  19.837  0.00  0.00    +0.000 F 
ATOM     26  C   UNL     1       1.898  13.002  20.186  0.00  0.00    +0.000 A 
ATOM     27  C   UNL     1       2.313  14.168  20.821  0.00  0.00    +0.000 A 
ATOM     28  C   UNL     1       1.475  14.780  21.755  0.00  0.00    +0.000 A 
ATOM     29  C   UNL     1       0.205  14.251  22.025  0.00  0.00    +0.000 A 
ATOM     30 CL   UNL     1      -0.712  15.030  23.263  0.00  0.00    +0.000 Cl
ENDBRANCH  20  23
ENDBRANCH   5  19
TORSDOF 3
ENDMDL
MODEL 5
REMARK VINA RESULT:      -6.8      0.580      1.299
REMARK  Name = 
REMARK  5 active torsions:
REMARK  status: ('A' for Active; 'I' for Inactive)
REMARK    1  A    between atoms: C_1  and  C_2
REMARK    2  A    between atoms: C_5  and  N_6
REMARK    3  A    between atoms: C_10  and  N_11
REMARK    4  A    between atoms: C_12  and  C_14
REMARK    5  A    between atoms: C_28  and  C_29
REMARK                            x       y       z     vdW  Elec       q    Type
REMARK                         _______ _______ _______ _____ _____    ______ ____
ROOT
ATOM      1  N   UNL     1      -0.500  14.507  20.708  0.00  0.00    +0.000 N 
ATOM      2  N   UNL     1      -0.643  15.752  20.160  0.00  0.00    +0.000 NA
ATOM      3  C   UNL     1       0.499  15.941  19.512  0.00  0.00    +0.000 A 
ATOM      4  C   UNL     1       1.307  14.792  19.472  0.00  0.00    +0.000 A 
ATOM      5  C   UNL     1       0.648  13.862  20.232  0.00  0.00    +0.000 A 
ATOM      6  C   UNL     1       2.505  14.875  18.608  0.00  0.00    +0.000 C 
ATOM      7  S   UNL     1       2.629  16.668  18.264  0.00  0.00    +0.000 S 
ATOM      8  O   UNL     1       3.590  17.242  19.182  0.00  0.00    +0.000 OA
ATOM      9  O   UNL     1       2.744  16.858  16.829  0.00  0.00    +0.000 OA
ATOM     10  C   UNL     1       0.954  17.153  18.794  0.00  0.00    +0.000 C 
ENDROOT
BRANCH   1  15
ATOM     11  C   UNL     1      -4.357  12.644  24.508  0.00  0.00    +0.000 C 
ATOM     12  C   UNL     1      -3.311  13.121  23.536  0.00  0.00    +0.000 A 
ATOM     13  C   UNL     1      -3.265  12.560  22.251  0.00  0.00    +0.000 A 
ATOM     14  C   UNL     1      -2.338  13.009  21.310  0.00  0.00    +0.000 A 
ATOM     15  C   UNL     1      -1.428  14.013  21.658  0.00  0.00    +0.000 A 
ATOM     16  C   UNL     1      -1.420  14.532  22.955  0.00  0.00    +0.000 A 
ATOM     17  C   UNL     1      -2.382  14.119  23.890  0.00  0.00    +0.000 A 
ATOM     18  C   UNL     1      -2.411  14.772  25.246  0.00  0.00    +0.000 C 
ENDBRANCH   1  15
BRANCH   5  19
ATOM     19  N   UNL     1       0.975  12.516  20.389  0.00  0.00    +0.000 N 
ATOM     20  C   UNL     1       0.408  11.508  19.539  0.00  0.00    +0.000 C 
ATOM     21  O   UNL     1      -0.368  11.846  18.666  0.00  0.00    +0.000 OA
ATOM     22  H   UNL     1       1.741  12.287  21.020  0.00  0.00    +0.000 HD
BRANCH  20  23
ATOM     23  C   UNL     1       0.821  10.107  19.762  0.00  0.00    +0.000 A 
ATOM     24  C   UNL     1       1.519   9.447  18.750  0.00  0.00    +0.000 A 
ATOM     25  F   UNL     1       1.686  10.027  17.553  0.00  0.00    +0.000 F 
ATOM     26  C   UNL     1       2.065   8.182  18.953  0.00  0.00    +0.000 A 
ATOM     27  C   UNL     1       1.902   7.549  20.180  0.00  0.00    +0.000 A 
ATOM     28  C   UNL     1       1.159   8.171  21.184  0.00  0.00    +0.000 A 
ATOM     29  C   UNL     1       0.612   9.445  20.978  0.00  0.00    +0.000 A 
ATOM     30 CL   UNL     1      -0.368  10.085  22.248  0.00  0.00    +0.000 Cl
ENDBRANCH  20  23
ENDBRANCH   5  19
TORSDOF 3
ENDMDL
MODEL 6
REMARK VINA RESULT:      -6.8      4.855      7.650
REMARK  Name = 
REMARK  5 active torsions:
REMARK  status: ('A' for Active; 'I' for Inactive)
REMARK    1  A    between atoms: C_1  and  C_2
REMARK    2  A    between atoms: C_5  and  N_6
REMARK    3  A    between atoms: C_10  and  N_11
REMARK    4  A    between atoms: C_12  and  C_14
REMARK    5  A    between atoms: C_28  and  C_29
REMARK                            x       y       z     vdW  Elec       q    Type
REMARK                         _______ _______ _______ _____ _____    ______ ____
ROOT
ATOM      1  N   UNL     1      -5.098  12.149  19.701  0.00  0.00    +0.000 N 
ATOM      2  N   UNL     1      -6.420  11.930  19.968  0.00  0.00    +0.000 NA
ATOM      3  C   UNL     1      -6.539  12.258  21.248  0.00  0.00    +0.000 A 
ATOM      4  C   UNL     1      -5.378  12.849  21.776  0.00  0.00    +0.000 A 
ATOM      5  C   UNL     1      -4.454  12.793  20.765  0.00  0.00    +0.000 A 
ATOM      6  C   UNL     1      -5.502  13.409  23.139  0.00  0.00    +0.000 C 
ATOM      7  S   UNL     1      -7.080  12.695  23.725  0.00  0.00    +0.000 S 
ATOM      8  O   UNL     1      -6.781  11.529  24.529  0.00  0.00    +0.000 OA
ATOM      9  O   UNL     1      -7.916  13.769  24.231  0.00  0.00    +0.000 OA
ATOM     10  C   UNL     1      -7.732  12.143  22.116  0.00  0.00    +0.000 C 
ENDROOT
BRANCH   1  15
ATOM     11  C   UNL     1      -2.805  10.249  14.809  0.00  0.00    +0.000 C 
ATOM     12  C   UNL     1      -3.373  10.774  16.100  0.00  0.00    +0.000 A 
ATOM     13  C   UNL     1      -4.598  11.458  16.082  0.00  0.00    +0.000 A 
ATOM     14  C   UNL     1      -5.175  11.918  17.266  0.00  0.00    +0.000 A 
ATOM     15  C   UNL     1      -4.514  11.720  18.483  0.00  0.00    +0.000 A 
ATOM     16  C   UNL     1      -3.262  11.099  18.506  0.00  0.00    +0.000 A 
ATOM     17  C   UNL     1      -2.700  10.591  17.325  0.00  0.00    +0.000 A 
ATOM     18  C   UNL     1      -1.399   9.838  17.399  0.00  0.00    +0.000 C 
ENDBRANCH   1  15
BRANCH   5  19
ATOM     19  N   UNL     1      -3.187  13.374  20.747  0.00  0.00    +0.000 N 
ATOM     20  C   UNL     1      -2.143  12.910  21.617  0.00  0.00    +0.000 C 
ATOM     21  O   UNL     1      -2.379  11.989  22.375  0.00  0.00    +0.000 OA
ATOM     22  H   UNL     1      -2.979  14.030  19.998  0.00  0.00    +0.000 HD
BRANCH  20  23
ATOM     23  C   UNL     1      -0.825  13.570  21.523  0.00  0.00    +0.000 A 
ATOM     24  C   UNL     1      -0.651  14.806  22.146  0.00  0.00    +0.000 A 
ATOM     25  F   UNL     1      -1.696  15.441  22.695  0.00  0.00    +0.000 F 
ATOM     26  C   UNL     1       0.602  15.409  22.223  0.00  0.00    +0.000 A 
ATOM     27  C   UNL     1       1.706  14.781  21.654  0.00  0.00    +0.000 A 
ATOM     28  C   UNL     1       1.539  13.571  20.979  0.00  0.00    +0.000 A 
ATOM     29  C   UNL     1       0.277  12.966  20.905  0.00  0.00    +0.000 A 
ATOM     30 CL   UNL     1       0.162  11.521  19.968  0.00  0.00    +0.000 Cl
ENDBRANCH  20  23
ENDBRANCH   5  19
TORSDOF 3
ENDMDL
MODEL 7
REMARK VINA RESULT:      -6.7      2.797      5.386
REMARK  Name = 
REMARK  5 active torsions:
REMARK  status: ('A' for Active; 'I' for Inactive)
REMARK    1  A    between atoms: C_1  and  C_2
REMARK    2  A    between atoms: C_5  and  N_6
REMARK    3  A    between atoms: C_10  and  N_11
REMARK    4  A    between atoms: C_12  and  C_14
REMARK    5  A    between atoms: C_28  and  C_29
REMARK                            x       y       z     vdW  Elec       q    Type
REMARK                         _______ _______ _______ _____ _____    ______ ____
ROOT
ATOM      1  N   UNL     1       0.884  12.758  19.798  0.00  0.00    +0.000 N 
ATOM      2  N   UNL     1       1.828  13.609  20.303  0.00  0.00    +0.000 NA
ATOM      3  C   UNL     1       1.496  14.786  19.788  0.00  0.00    +0.000 A 
ATOM      4  C   UNL     1       0.266  14.763  19.108  0.00  0.00    +0.000 A 
ATOM      5  C   UNL     1      -0.134  13.452  19.132  0.00  0.00    +0.000 A 
ATOM      6  C   UNL     1      -0.255  16.076  18.673  0.00  0.00    +0.000 C 
ATOM      7  S   UNL     1       1.197  17.171  18.871  0.00  0.00    +0.000 S 
ATOM      8  O   UNL     1       1.842  17.309  17.581  0.00  0.00    +0.000 OA
ATOM      9  O   UNL     1       0.801  18.332  19.647  0.00  0.00    +0.000 OA
ATOM     10  C   UNL     1       2.211  16.075  19.916  0.00  0.00    +0.000 C 
ENDROOT
BRANCH   1  15
ATOM     11  C   UNL     1       1.559   7.105  20.412  0.00  0.00    +0.000 C 
ATOM     12  C   UNL     1       1.350   8.584  20.222  0.00  0.00    +0.000 A 
ATOM     13  C   UNL     1       0.953   9.366  21.316  0.00  0.00    +0.000 A 
ATOM     14  C   UNL     1       0.793  10.746  21.186  0.00  0.00    +0.000 A 
ATOM     15  C   UNL     1       1.008  11.354  19.945  0.00  0.00    +0.000 A 
ATOM     16  C   UNL     1       1.339  10.577  18.832  0.00  0.00    +0.000 A 
ATOM     17  C   UNL     1       1.548   9.196  18.968  0.00  0.00    +0.000 A 
ATOM     18  C   UNL     1       2.004   8.404  17.772  0.00  0.00    +0.000 C 
ENDBRANCH   1  15
BRANCH   5  19
ATOM     19  N   UNL     1      -1.358  12.936  18.708  0.00  0.00    +0.000 N 
ATOM     20  C   UNL     1      -2.370  12.550  19.651  0.00  0.00    +0.000 C 
ATOM     21  O   UNL     1      -2.146  12.685  20.839  0.00  0.00    +0.000 OA
ATOM     22  H   UNL     1      -1.571  12.984  17.714  0.00  0.00    +0.000 HD
BRANCH  20  23
ATOM     23  C   UNL     1      -3.644  12.028  19.117  0.00  0.00    +0.000 A 
ATOM     24  C   UNL     1      -4.829  12.676  19.465  0.00  0.00    +0.000 A 
ATOM     25  F   UNL     1      -4.822  13.662  20.374  0.00  0.00    +0.000 F 
ATOM     26  C   UNL     1      -6.045  12.328  18.880  0.00  0.00    +0.000 A 
ATOM     27  C   UNL     1      -6.089  11.303  17.941  0.00  0.00    +0.000 A 
ATOM     28  C   UNL     1      -4.922  10.608  17.622  0.00  0.00    +0.000 A 
ATOM     29  C   UNL     1      -3.701  10.962  18.212  0.00  0.00    +0.000 A 
ATOM     30 CL   UNL     1      -2.336   9.979  17.821  0.00  0.00    +0.000 Cl
ENDBRANCH  20  23
ENDBRANCH   5  19
TORSDOF 3
ENDMDL
MODEL 8
REMARK VINA RESULT:      -6.6      2.838      5.492
REMARK  Name = 
REMARK  5 active torsions:
REMARK  status: ('A' for Active; 'I' for Inactive)
REMARK    1  A    between atoms: C_1  and  C_2
REMARK    2  A    between atoms: C_5  and  N_6
REMARK    3  A    between atoms: C_10  and  N_11
REMARK    4  A    between atoms: C_12  and  C_14
REMARK    5  A    between atoms: C_28  and  C_29
REMARK                            x       y       z     vdW  Elec       q    Type
REMARK                         _______ _______ _______ _____ _____    ______ ____
ROOT
ATOM      1  N   UNL     1       1.228  12.835  19.214  0.00  0.00    +0.000 N 
ATOM      2  N   UNL     1       2.180  13.660  19.744  0.00  0.00    +0.000 NA
ATOM      3  C   UNL     1       1.718  14.877  19.487  0.00  0.00    +0.000 A 
ATOM      4  C   UNL     1       0.414  14.872  18.963  0.00  0.00    +0.000 A 
ATOM      5  C   UNL     1       0.094  13.549  18.805  0.00  0.00    +0.000 A 
ATOM      6  C   UNL     1      -0.233  16.195  18.829  0.00  0.00    +0.000 C 
ATOM      7  S   UNL     1       1.169  17.351  19.043  0.00  0.00    +0.000 S 
ATOM      8  O   UNL     1       1.633  17.752  17.731  0.00  0.00    +0.000 OA
ATOM      9  O   UNL     1       0.812  18.332  20.052  0.00  0.00    +0.000 OA
ATOM     10  C   UNL     1       2.370  16.178  19.753  0.00  0.00    +0.000 C 
ENDROOT
BRANCH   1  15
ATOM     11  C   UNL     1       1.945   7.178  18.688  0.00  0.00    +0.000 C 
ATOM     12  C   UNL     1       1.783   8.665  18.861  0.00  0.00    +0.000 A 
ATOM     13  C   UNL     1       2.182   9.522  17.824  0.00  0.00    +0.000 A 
ATOM     14  C   UNL     1       2.005  10.901  17.932  0.00  0.00    +0.000 A 
ATOM     15  C   UNL     1       1.447  11.440  19.097  0.00  0.00    +0.000 A 
ATOM     16  C   UNL     1       1.108  10.603  20.162  0.00  0.00    +0.000 A 
ATOM     17  C   UNL     1       1.238   9.211  20.040  0.00  0.00    +0.000 A 
ATOM     18  C   UNL     1       0.768   8.330  21.167  0.00  0.00    +0.000 C 
ENDBRANCH   1  15
BRANCH   5  19
ATOM     19  N   UNL     1      -1.143  13.017  18.444  0.00  0.00    +0.000 N 
ATOM     20  C   UNL     1      -2.035  12.473  19.429  0.00  0.00    +0.000 C 
ATOM     21  O   UNL     1      -1.696  12.485  20.597  0.00  0.00    +0.000 OA
ATOM     22  H   UNL     1      -1.460  13.165  17.489  0.00  0.00    +0.000 HD
BRANCH  20  23
ATOM     23  C   UNL     1      -3.334  11.945  18.965  0.00  0.00    +0.000 A 
ATOM     24  C   UNL     1      -4.503  12.559  19.413  0.00  0.00    +0.000 A 
ATOM     25  F   UNL     1      -4.450  13.514  20.352  0.00  0.00    +0.000 F 
ATOM     26  C   UNL     1      -5.749  12.208  18.899  0.00  0.00    +0.000 A 
ATOM     27  C   UNL     1      -5.841  11.213  17.931  0.00  0.00    +0.000 A 
ATOM     28  C   UNL     1      -4.686  10.551  17.512  0.00  0.00    +0.000 A 
ATOM     29  C   UNL     1      -3.434  10.907  18.030  0.00  0.00    +0.000 A 
ATOM     30 CL   UNL     1      -2.083   9.963  17.516  0.00  0.00    +0.000 Cl
ENDBRANCH  20  23
ENDBRANCH   5  19
TORSDOF 3
ENDMDL
MODEL 9
REMARK VINA RESULT:      -6.6      3.484      6.461
REMARK  Name = 
REMARK  5 active torsions:
REMARK  status: ('A' for Active; 'I' for Inactive)
REMARK    1  A    between atoms: C_1  and  C_2
REMARK    2  A    between atoms: C_5  and  N_6
REMARK    3  A    between atoms: C_10  and  N_11
REMARK    4  A    between atoms: C_12  and  C_14
REMARK    5  A    between atoms: C_28  and  C_29
REMARK                            x       y       z     vdW  Elec       q    Type
REMARK                         _______ _______ _______ _____ _____    ______ ____
ROOT
ATOM      1  N   UNL     1      -0.977  11.921  22.123  0.00  0.00    +0.000 N 
ATOM      2  N   UNL     1      -2.136  11.726  22.821  0.00  0.00    +0.000 NA
ATOM      3  C   UNL     1      -2.378  12.914  23.361  0.00  0.00    +0.000 A 
ATOM      4  C   UNL     1      -1.514  13.918  22.895  0.00  0.00    +0.000 A 
ATOM      5  C   UNL     1      -0.619  13.274  22.080  0.00  0.00    +0.000 A 
ATOM      6  C   UNL     1      -1.845  15.299  23.309  0.00  0.00    +0.000 C 
ATOM      7  S   UNL     1      -3.069  15.035  24.643  0.00  0.00    +0.000 S 
ATOM      8  O   UNL     1      -2.381  15.113  25.915  0.00  0.00    +0.000 OA
ATOM      9  O   UNL     1      -4.240  15.847  24.366  0.00  0.00    +0.000 OA
ATOM     10  C   UNL     1      -3.461  13.289  24.298  0.00  0.00    +0.000 C 
ENDROOT
BRANCH   1  15
ATOM     11  C   UNL     1       2.043   7.624  19.838  0.00  0.00    +0.000 C 
ATOM     12  C   UNL     1       1.212   8.737  20.422  0.00  0.00    +0.000 A 
ATOM     13  C   UNL     1       1.161   8.895  21.814  0.00  0.00    +0.000 A 
ATOM     14  C   UNL     1       0.438   9.942  22.387  0.00  0.00    +0.000 A 
ATOM     15  C   UNL     1      -0.264  10.831  21.565  0.00  0.00    +0.000 A 
ATOM     16  C   UNL     1      -0.275  10.644  20.180  0.00  0.00    +0.000 A 
ATOM     17  C   UNL     1       0.490   9.622  19.596  0.00  0.00    +0.000 A 
ATOM     18  C   UNL     1       0.539   9.511  18.096  0.00  0.00    +0.000 C 
ENDBRANCH   1  15
BRANCH   5  19
ATOM     19  N   UNL     1       0.355  13.856  21.270  0.00  0.00    +0.000 N 
ATOM     20  C   UNL     1       0.060  14.260  19.925  0.00  0.00    +0.000 C 
ATOM     21  O   UNL     1      -1.066  14.091  19.495  0.00  0.00    +0.000 OA
ATOM     22  H   UNL     1       1.233  14.125  21.708  0.00  0.00    +0.000 HD
BRANCH  20  23
ATOM     23  C   UNL     1       1.145  14.884  19.140  0.00  0.00    +0.000 A 
ATOM     24  C   UNL     1       1.119  16.265  18.945  0.00  0.00    +0.000 A 
ATOM     25  F   UNL     1       0.060  16.986  19.342  0.00  0.00    +0.000 F 
ATOM     26  C   UNL     1       2.184  16.933  18.346  0.00  0.00    +0.000 A 
ATOM     27  C   UNL     1       3.293  16.213  17.914  0.00  0.00    +0.000 A 
ATOM     28  C   UNL     1       3.311  14.825  18.050  0.00  0.00    +0.000 A 
ATOM     29  C   UNL     1       2.238  14.156  18.656  0.00  0.00    +0.000 A 
ATOM     30 CL   UNL     1       2.318  12.432  18.690  0.00  0.00    +0.000 Cl
ENDBRANCH  20  23
ENDBRANCH   5  19
TORSDOF 3
ENDMDL
