MODEL 1
REMARK VINA RESULT:      -7.8      0.000      0.000
REMARK  Name = 
REMARK  7 active torsions:
REMARK  status: ('A' for Active; 'I' for Inactive)
REMARK    1  A    between atoms: C_1  and  O_2
REMARK    2  A    between atoms: O_2  and  C_3
REMARK    3  A    between atoms: C_6  and  C_7
REMARK    4  A    between atoms: C_9  and  C_10
REMARK    5  A    between atoms: C_14  and  S_15
REMARK    6  A    between atoms: S_15  and  N_18
REMARK    7  A    between atoms: C_25  and  C_26
REMARK                            x       y       z     vdW  Elec       q    Type
REMARK                         _______ _______ _______ _____ _____    ______ ____
ROOT
ATOM      1  C   UNL     1       0.337  10.615  20.515  0.00  0.00    +0.000 A 
ATOM      2  C   UNL     1       0.592  10.074  19.234  0.00  0.00    +0.000 A 
ATOM      3  C   UNL     1      -0.296  10.202  18.173  0.00  0.00    +0.000 A 
ATOM      4  C   UNL     1      -1.485  10.929  18.312  0.00  0.00    +0.000 A 
ATOM      5  C   UNL     1      -1.691  11.614  19.585  0.00  0.00    +0.000 A 
ATOM      6  C   UNL     1      -0.771  11.449  20.713  0.00  0.00    +0.000 A 
ENDROOT
BRANCH   4   7
ATOM      7  C   UNL     1      -2.384  10.852  17.109  0.00  0.00    +0.000 A 
ATOM      8  C   UNL     1      -2.299  10.189  15.895  0.00  0.00    +0.000 A 
ATOM      9  C   UNL     1      -3.524  10.412  15.218  0.00  0.00    +0.000 A 
ATOM     10  C   UNL     1      -3.985   9.882  13.898  0.00  0.00    +0.000 C 
ATOM     11  N   UNL     1      -4.306  11.204  15.963  0.00  0.00    +0.000 NA
ATOM     12  O   UNL     1      -3.599  11.476  17.141  0.00  0.00    +0.000 OA
ENDBRANCH   4   7
BRANCH   6  13
ATOM     13  S   UNL     1      -0.906  12.434  22.430  0.00  0.00    +0.000 S 
ATOM     14  O   UNL     1      -1.020  11.445  23.496  0.00  0.00    +0.000 OA
ATOM     15  O   UNL     1       0.260  13.330  22.393  0.00  0.00    +0.000 OA
BRANCH  13  16
ATOM     16  N   UNL     1      -2.400  13.470  22.395  0.00  0.00    +0.000 N 
ATOM     17  C   UNL     1      -2.172  14.355  23.583  0.00  0.00    +0.000 C 
ATOM     18  C   UNL     1      -3.420  15.153  23.794  0.00  0.00    +0.000 C 
ATOM     19  O   UNL     1      -4.258  14.264  24.537  0.00  0.00    +0.000 OA
ATOM     20  C   UNL     1      -4.645  13.224  23.686  0.00  0.00    +0.000 A 
ATOM     21  C   UNL     1      -5.995  12.919  23.946  0.00  0.00    +0.000 A 
ATOM     22  C   UNL     1      -6.820  12.647  22.886  0.00  0.00    +0.000 A 
ATOM     23  C   UNL     1      -6.273  12.658  21.597  0.00  0.00    +0.000 A 
ATOM     24  C   UNL     1      -7.326  12.819  20.507  0.00  0.00    +0.000 C 
ATOM     25  C   UNL     1      -4.811  12.675  21.403  0.00  0.00    +0.000 A 
ATOM     26  C   UNL     1      -3.914  12.922  22.490  0.00  0.00    +0.000 A 
ENDBRANCH  13  16
ENDBRANCH   6  13
BRANCH   1  28
ATOM     27  C   UNL     1       1.032   8.903  21.954  0.00  0.00    +0.000 C 
ATOM     28  O   UNL     1       1.138  10.281  21.576  0.00  0.00    +0.000 OA
ENDBRANCH   1  28
TORSDOF 4
ENDMDL
MODEL 2
REMARK VINA RESULT:      -7.7      4.194      6.573
REMARK  Name = 
REMARK  7 active torsions:
REMARK  status: ('A' for Active; 'I' for Inactive)
REMARK    1  A    between atoms: C_1  and  O_2
REMARK    2  A    between atoms: O_2  and  C_3
REMARK    3  A    between atoms: C_6  and  C_7
REMARK    4  A    between atoms: C_9  and  C_10
REMARK    5  A    between atoms: C_14  and  S_15
REMARK    6  A    between atoms: S_15  and  N_18
REMARK    7  A    between atoms: C_25  and  C_26
REMARK                            x       y       z     vdW  Elec       q    Type
REMARK                         _______ _______ _______ _____ _____    ______ ____
ROOT
ATOM      1  C   UNL     1       1.784   9.376  18.357  0.00  0.00    +0.000 A 
ATOM      2  C   UNL     1       2.463   8.519  17.460  0.00  0.00    +0.000 A 
ATOM      3  C   UNL     1       2.977   7.286  17.842  0.00  0.00    +0.000 A 
ATOM      4  C   UNL     1       2.799   6.802  19.145  0.00  0.00    +0.000 A 
ATOM      5  C   UNL     1       1.975   7.611  20.038  0.00  0.00    +0.000 A 
ATOM      6  C   UNL     1       1.464   8.927  19.644  0.00  0.00    +0.000 A 
ENDROOT
BRANCH   4   7
ATOM      7  C   UNL     1       3.532   5.518  19.417  0.00  0.00    +0.000 A 
ATOM      8  C   UNL     1       3.121   4.236  19.745  0.00  0.00    +0.000 A 
ATOM      9  C   UNL     1       4.281   3.422  19.755  0.00  0.00    +0.000 A 
ATOM     10  C   UNL     1       4.403   1.951  19.992  0.00  0.00    +0.000 C 
ATOM     11  N   UNL     1       5.355   4.176  19.484  0.00  0.00    +0.000 NA
ATOM     12  O   UNL     1       4.890   5.478  19.271  0.00  0.00    +0.000 OA
ENDBRANCH   4   7
BRANCH   6  13
ATOM     13  S   UNL     1       0.239  10.034  20.745  0.00  0.00    +0.000 S 
ATOM     14  O   UNL     1      -0.739   9.137  21.350  0.00  0.00    +0.000 OA
ATOM     15  O   UNL     1       1.159  10.792  21.606  0.00  0.00    +0.000 OA
BRANCH  13  16
ATOM     16  N   UNL     1      -0.609  11.222  19.661  0.00  0.00    +0.000 N 
ATOM     17  C   UNL     1      -0.964  12.307  20.634  0.00  0.00    +0.000 C 
ATOM     18  C   UNL     1      -1.837  13.286  19.916  0.00  0.00    +0.000 C 
ATOM     19  O   UNL     1      -3.136  12.694  20.003  0.00  0.00    +0.000 OA
ATOM     20  C   UNL     1      -3.146  11.555  19.193  0.00  0.00    +0.000 A 
ATOM     21  C   UNL     1      -4.390  11.490  18.535  0.00  0.00    +0.000 A 
ATOM     22  C   UNL     1      -4.415  11.106  17.219  0.00  0.00    +0.000 A 
ATOM     23  C   UNL     1      -3.204  10.767  16.602  0.00  0.00    +0.000 A 
ATOM     24  C   UNL     1      -3.277  10.825  15.081  0.00  0.00    +0.000 C 
ATOM     25  C   UNL     1      -1.986  10.552  17.407  0.00  0.00    +0.000 A 
ATOM     26  C   UNL     1      -1.931  10.909  18.792  0.00  0.00    +0.000 A 
ENDBRANCH  13  16
ENDBRANCH   6  13
BRANCH   1  28
ATOM     27  C   UNL     1       2.607  11.550  18.080  0.00  0.00    +0.000 C 
ATOM     28  O   UNL     1       1.486  10.662  17.989  0.00  0.00    +0.000 OA
ENDBRANCH   1  28
TORSDOF 4
ENDMDL
MODEL 3
REMARK VINA RESULT:      -7.6      3.593      5.708
REMARK  Name = 
REMARK  7 active torsions:
REMARK  status: ('A' for Active; 'I' for Inactive)
REMARK    1  A    between atoms: C_1  and  O_2
REMARK    2  A    between atoms: O_2  and  C_3
REMARK    3  A    between atoms: C_6  and  C_7
REMARK    4  A    between atoms: C_9  and  C_10
REMARK    5  A    between atoms: C_14  and  S_15
REMARK    6  A    between atoms: S_15  and  N_18
REMARK    7  A    between atoms: C_25  and  C_26
REMARK                            x       y       z     vdW  Elec       q    Type
REMARK                         _______ _______ _______ _____ _____    ______ ____
ROOT
ATOM      1  C   UNL     1       1.349  10.393  18.744  0.00  0.00    +0.000 A 
ATOM      2  C   UNL     1       1.832   9.394  17.868  0.00  0.00    +0.000 A 
ATOM      3  C   UNL     1       2.114   8.099  18.286  0.00  0.00    +0.000 A 
ATOM      4  C   UNL     1       1.879   7.700  19.608  0.00  0.00    +0.000 A 
ATOM      5  C   UNL     1       1.245   8.680  20.486  0.00  0.00    +0.000 A 
ATOM      6  C   UNL     1       0.982  10.055  20.053  0.00  0.00    +0.000 A 
ENDROOT
BRANCH   4   7
ATOM      7  C   UNL     1       2.363   6.310  19.914  0.00  0.00    +0.000 A 
ATOM      8  C   UNL     1       1.826   5.247  20.621  0.00  0.00    +0.000 A 
ATOM      9  C   UNL     1       2.709   4.152  20.450  0.00  0.00    +0.000 A 
ATOM     10  C   UNL     1       2.583   2.748  20.951  0.00  0.00    +0.000 C 
ATOM     11  N   UNL     1       3.755   4.535  19.707  0.00  0.00    +0.000 NA
ATOM     12  O   UNL     1       3.539   5.876  19.370  0.00  0.00    +0.000 OA
ENDBRANCH   4   7
BRANCH   6  13
ATOM     13  S   UNL     1       0.015  11.409  21.134  0.00  0.00    +0.000 S 
ATOM     14  O   UNL     1      -0.776  10.693  22.129  0.00  0.00    +0.000 OA
ATOM     15  O   UNL     1       1.090  12.312  21.575  0.00  0.00    +0.000 OA
BRANCH  13  16
ATOM     16  N   UNL     1      -1.087  12.354  20.040  0.00  0.00    +0.000 N 
ATOM     17  C   UNL     1      -1.590  13.414  20.972  0.00  0.00    +0.000 C 
ATOM     18  C   UNL     1      -2.661  14.173  20.255  0.00  0.00    +0.000 C 
ATOM     19  O   UNL     1      -3.823  13.362  20.447  0.00  0.00    +0.000 OA
ATOM     20  C   UNL     1      -3.661  12.191  19.702  0.00  0.00    +0.000 A 
ATOM     21  C   UNL     1      -4.901  11.862  19.120  0.00  0.00    +0.000 A 
ATOM     22  C   UNL     1      -4.916  11.397  17.830  0.00  0.00    +0.000 A 
ATOM     23  C   UNL     1      -3.694  11.245  17.163  0.00  0.00    +0.000 A 
ATOM     24  C   UNL     1      -3.848  11.193  15.648  0.00  0.00    +0.000 C 
ATOM     25  C   UNL     1      -2.421  11.305  17.907  0.00  0.00    +0.000 A 
ATOM     26  C   UNL     1      -2.368  11.752  19.265  0.00  0.00    +0.000 A 
ENDBRANCH  13  16
ENDBRANCH   6  13
BRANCH   1  28
ATOM     27  C   UNL     1       2.581  12.308  18.198  0.00  0.00    +0.000 C 
ATOM     28  O   UNL     1       1.290  11.699  18.335  0.00  0.00    +0.000 OA
ENDBRANCH   1  28
TORSDOF 4
ENDMDL
MODEL 4
REMARK VINA RESULT:      -7.4      9.996     12.060
REMARK  Name = 
REMARK  7 active torsions:
REMARK  status: ('A' for Active; 'I' for Inactive)
REMARK    1  A    between atoms: C_1  and  O_2
REMARK    2  A    between atoms: O_2  and  C_3
REMARK    3  A    between atoms: C_6  and  C_7
REMARK    4  A    between atoms: C_9  and  C_10
REMARK    5  A    between atoms: C_14  and  S_15
REMARK    6  A    between atoms: S_15  and  N_18
REMARK    7  A    between atoms: C_25  and  C_26
REMARK                            x       y       z     vdW  Elec       q    Type
REMARK                         _______ _______ _______ _____ _____    ______ ____
ROOT
ATOM      1  C   UNL     1       9.951  12.520  20.097  0.00  0.00    +0.000 A 
ATOM      2  C   UNL     1       9.630  11.338  20.803  0.00  0.00    +0.000 A 
ATOM      3  C   UNL     1       9.172  10.188  20.174  0.00  0.00    +0.000 A 
ATOM      4  C   UNL     1       9.052  10.127  18.780  0.00  0.00    +0.000 A 
ATOM      5  C   UNL     1       9.517  11.290  18.029  0.00  0.00    +0.000 A 
ATOM      6  C   UNL     1       9.967  12.515  18.696  0.00  0.00    +0.000 A 
ENDROOT
BRANCH   4   7
ATOM      7  C   UNL     1       8.418   8.857  18.283  0.00  0.00    +0.000 A 
ATOM      8  C   UNL     1       8.441   7.543  18.724  0.00  0.00    +0.000 A 
ATOM      9  C   UNL     1       7.541   6.819  17.903  0.00  0.00    +0.000 A 
ATOM     10  C   UNL     1       7.142   5.379  17.977  0.00  0.00    +0.000 C 
ATOM     11  N   UNL     1       7.021   7.639  16.981  0.00  0.00    +0.000 NA
ATOM     12  O   UNL     1       7.563   8.907  17.218  0.00  0.00    +0.000 OA
ENDBRANCH   4   7
BRANCH   6  13
ATOM     13  S   UNL     1      10.729  14.090  17.762  0.00  0.00    +0.000 S 
ATOM     14  O   UNL     1      11.833  14.590  18.574  0.00  0.00    +0.000 OA
ATOM     15  O   UNL     1      10.998  13.576  16.409  0.00  0.00    +0.000 OA
BRANCH  13  16
ATOM     16  N   UNL     1       9.444  15.367  17.622  0.00  0.00    +0.000 N 
ATOM     17  C   UNL     1      10.177  16.579  18.114  0.00  0.00    +0.000 C 
ATOM     18  C   UNL     1       9.182  17.690  18.230  0.00  0.00    +0.000 C 
ATOM     19  O   UNL     1       8.578  17.459  19.506  0.00  0.00    +0.000 OA
ATOM     20  C   UNL     1       7.802  16.300  19.412  0.00  0.00    +0.000 A 
ATOM     21  C   UNL     1       6.612  16.505  20.137  0.00  0.00    +0.000 A 
ATOM     22  C   UNL     1       5.436  16.038  19.609  0.00  0.00    +0.000 A 
ATOM     23  C   UNL     1       5.480  15.353  18.388  0.00  0.00    +0.000 A 
ATOM     24  C   UNL     1       4.129  15.309  17.685  0.00  0.00    +0.000 C 
ATOM     25  C   UNL     1       6.767  14.897  17.830  0.00  0.00    +0.000 A 
ATOM     26  C   UNL     1       8.016  15.335  18.373  0.00  0.00    +0.000 A 
ENDBRANCH  13  16
ENDBRANCH   6  13
BRANCH   1  28
ATOM     27  C   UNL     1       9.276  13.912  21.855  0.00  0.00    +0.000 C 
ATOM     28  O   UNL     1      10.193  13.685  20.777  0.00  0.00    +0.000 OA
ENDBRANCH   1  28
TORSDOF 4
ENDMDL
MODEL 5
REMARK VINA RESULT:      -7.4      9.850     11.856
REMARK  Name = 
REMARK  7 active torsions:
REMARK  status: ('A' for Active; 'I' for Inactive)
REMARK    1  A    between atoms: C_1  and  O_2
REMARK    2  A    between atoms: O_2  and  C_3
REMARK    3  A    between atoms: C_6  and  C_7
REMARK    4  A    between atoms: C_9  and  C_10
REMARK    5  A    between atoms: C_14  and  S_15
REMARK    6  A    between atoms: S_15  and  N_18
REMARK    7  A    between atoms: C_25  and  C_26
REMARK                            x       y       z     vdW  Elec       q    Type
REMARK                         _______ _______ _______ _____ _____    ______ ____
ROOT
ATOM      1  C   UNL     1       7.294   6.498  18.290  0.00  0.00    +0.000 A 
ATOM      2  C   UNL     1       8.405   6.985  19.017  0.00  0.00    +0.000 A 
ATOM      3  C   UNL     1       8.857   8.294  18.910  0.00  0.00    +0.000 A 
ATOM      4  C   UNL     1       8.191   9.224  18.102  0.00  0.00    +0.000 A 
ATOM      5  C   UNL     1       6.959   8.773  17.460  0.00  0.00    +0.000 A 
ATOM      6  C   UNL     1       6.504   7.383  17.546  0.00  0.00    +0.000 A 
ENDROOT
BRANCH   4   7
ATOM      7  C   UNL     1       8.893  10.550  18.004  0.00  0.00    +0.000 A 
ATOM      8  C   UNL     1      10.207  10.950  18.184  0.00  0.00    +0.000 A 
ATOM      9  C   UNL     1      10.273  12.320  17.828  0.00  0.00    +0.000 A 
ATOM     10  C   UNL     1      11.458  13.231  17.784  0.00  0.00    +0.000 C 
ATOM     11  N   UNL     1       9.052  12.749  17.482  0.00  0.00    +0.000 NA
ATOM     12  O   UNL     1       8.194  11.648  17.588  0.00  0.00    +0.000 OA
ENDBRANCH   4   7
BRANCH   6  13
ATOM     13  S   UNL     1       4.785   6.715  16.812  0.00  0.00    +0.000 S 
ATOM     14  O   UNL     1       3.744   7.656  17.208  0.00  0.00    +0.000 OA
ATOM     15  O   UNL     1       5.085   6.523  15.385  0.00  0.00    +0.000 OA
BRANCH  13  16
ATOM     16  N   UNL     1       4.438   5.081  17.529  0.00  0.00    +0.000 N 
ATOM     17  C   UNL     1       4.375   4.227  16.298  0.00  0.00    +0.000 C 
ATOM     18  C   UNL     1       3.912   2.868  16.718  0.00  0.00    +0.000 C 
ATOM     19  O   UNL     1       2.490   3.008  16.772  0.00  0.00    +0.000 OA
ATOM     20  C   UNL     1       2.178   3.835  17.854  0.00  0.00    +0.000 A 
ATOM     21  C   UNL     1       1.029   3.322  18.487  0.00  0.00    +0.000 A 
ATOM     22  C   UNL     1       0.979   3.328  19.857  0.00  0.00    +0.000 A 
ATOM     23  C   UNL     1       2.061   3.872  20.560  0.00  0.00    +0.000 A 
ATOM     24  C   UNL     1       2.120   3.407  22.010  0.00  0.00    +0.000 C 
ATOM     25  C   UNL     1       3.086   4.669  19.860  0.00  0.00    +0.000 A 
ATOM     26  C   UNL     1       3.152   4.715  18.431  0.00  0.00    +0.000 A 
ENDBRANCH  13  16
ENDBRANCH   6  13
BRANCH   1  28
ATOM     27  C   UNL     1       7.816   4.431  17.319  0.00  0.00    +0.000 C 
ATOM     28  O   UNL     1       7.020   5.155  18.267  0.00  0.00    +0.000 OA
ENDBRANCH   1  28
TORSDOF 4
ENDMDL
MODEL 6
REMARK VINA RESULT:      -7.2      3.765      5.419
REMARK  Name = 
REMARK  7 active torsions:
REMARK  status: ('A' for Active; 'I' for Inactive)
REMARK    1  A    between atoms: C_1  and  O_2
REMARK    2  A    between atoms: O_2  and  C_3
REMARK    3  A    between atoms: C_6  and  C_7
REMARK    4  A    between atoms: C_9  and  C_10
REMARK    5  A    between atoms: C_14  and  S_15
REMARK    6  A    between atoms: S_15  and  N_18
REMARK    7  A    between atoms: C_25  and  C_26
REMARK                            x       y       z     vdW  Elec       q    Type
REMARK                         _______ _______ _______ _____ _____    ______ ____
ROOT
ATOM      1  C   UNL     1       0.623   8.520  21.122  0.00  0.00    +0.000 A 
ATOM      2  C   UNL     1       1.180   7.226  21.247  0.00  0.00    +0.000 A 
ATOM      3  C   UNL     1       2.004   6.667  20.278  0.00  0.00    +0.000 A 
ATOM      4  C   UNL     1       2.369   7.390  19.136  0.00  0.00    +0.000 A 
ATOM      5  C   UNL     1       1.919   8.777  19.066  0.00  0.00    +0.000 A 
ATOM      6  C   UNL     1       1.022   9.354  20.070  0.00  0.00    +0.000 A 
ENDROOT
BRANCH   4   7
ATOM      7  C   UNL     1       3.154   6.585  18.137  0.00  0.00    +0.000 A 
ATOM      8  C   UNL     1       4.162   6.898  17.240  0.00  0.00    +0.000 A 
ATOM      9  C   UNL     1       4.585   5.679  16.655  0.00  0.00    +0.000 A 
ATOM     10  C   UNL     1       5.680   5.433  15.666  0.00  0.00    +0.000 C 
ATOM     11  N   UNL     1       3.846   4.673  17.140  0.00  0.00    +0.000 NA
ATOM     12  O   UNL     1       2.958   5.235  18.065  0.00  0.00    +0.000 OA
ENDBRANCH   4   7
BRANCH   6  13
ATOM     13  S   UNL     1       0.463  11.257  20.120  0.00  0.00    +0.000 S 
ATOM     14  O   UNL     1       1.192  11.901  21.207  0.00  0.00    +0.000 OA
ATOM     15  O   UNL     1       0.681  11.704  18.735  0.00  0.00    +0.000 OA
BRANCH  13  16
ATOM     16  N   UNL     1      -1.323  11.335  20.451  0.00  0.00    +0.000 N 
ATOM     17  C   UNL     1      -1.860  11.673  19.093  0.00  0.00    +0.000 C 
ATOM     18  C   UNL     1      -3.322  11.952  19.245  0.00  0.00    +0.000 C 
ATOM     19  O   UNL     1      -3.354  13.318  19.668  0.00  0.00    +0.000 OA
ATOM     20  C   UNL     1      -2.848  13.378  20.969  0.00  0.00    +0.000 A 
ATOM     21  C   UNL     1      -3.619  14.301  21.702  0.00  0.00    +0.000 A 
ATOM     22  C   UNL     1      -3.946  13.998  22.998  0.00  0.00    +0.000 A 
ATOM     23  C   UNL     1      -3.471  12.797  23.541  0.00  0.00    +0.000 A 
ATOM     24  C   UNL     1      -4.260  12.346  24.764  0.00  0.00    +0.000 C 
ATOM     25  C   UNL     1      -2.424  12.023  22.848  0.00  0.00    +0.000 A 
ATOM     26  C   UNL     1      -2.031  12.329  21.506  0.00  0.00    +0.000 A 
ENDBRANCH  13  16
ENDBRANCH   6  13
BRANCH   1  28
ATOM     27  C   UNL     1       0.181   9.412  23.243  0.00  0.00    +0.000 C 
ATOM     28  O   UNL     1      -0.346   8.940  21.996  0.00  0.00    +0.000 OA
ENDBRANCH   1  28
TORSDOF 4
ENDMDL
MODEL 7
REMARK VINA RESULT:      -7.2      7.126     11.284
REMARK  Name = 
REMARK  7 active torsions:
REMARK  status: ('A' for Active; 'I' for Inactive)
REMARK    1  A    between atoms: C_1  and  O_2
REMARK    2  A    between atoms: O_2  and  C_3
REMARK    3  A    between atoms: C_6  and  C_7
REMARK    4  A    between atoms: C_9  and  C_10
REMARK    5  A    between atoms: C_14  and  S_15
REMARK    6  A    between atoms: S_15  and  N_18
REMARK    7  A    between atoms: C_25  and  C_26
REMARK                            x       y       z     vdW  Elec       q    Type
REMARK                         _______ _______ _______ _____ _____    ______ ____
ROOT
ATOM      1  C   UNL     1       2.354   4.345  20.861  0.00  0.00    +0.000 A 
ATOM      2  C   UNL     1       1.304   5.262  21.097  0.00  0.00    +0.000 A 
ATOM      3  C   UNL     1       1.207   6.480  20.436  0.00  0.00    +0.000 A 
ATOM      4  C   UNL     1       2.134   6.842  19.450  0.00  0.00    +0.000 A 
ATOM      5  C   UNL     1       3.138   5.843  19.095  0.00  0.00    +0.000 A 
ATOM      6  C   UNL     1       3.260   4.573  19.818  0.00  0.00    +0.000 A 
ENDROOT
BRANCH   4   7
ATOM      7  C   UNL     1       1.953   8.243  18.936  0.00  0.00    +0.000 A 
ATOM      8  C   UNL     1       1.320   9.369  19.437  0.00  0.00    +0.000 A 
ATOM      9  C   UNL     1       1.601  10.431  18.542  0.00  0.00    +0.000 A 
ATOM     10  C   UNL     1       1.211  11.872  18.632  0.00  0.00    +0.000 C 
ATOM     11  N   UNL     1       2.339   9.971  17.524  0.00  0.00    +0.000 NA
ATOM     12  O   UNL     1       2.561   8.612  17.769  0.00  0.00    +0.000 OA
ENDBRANCH   4   7
BRANCH   6  13
ATOM     13  S   UNL     1       4.509   3.113  19.324  0.00  0.00    +0.000 S 
ATOM     14  O   UNL     1       5.159   2.659  20.549  0.00  0.00    +0.000 OA
ATOM     15  O   UNL     1       3.653   2.184  18.570  0.00  0.00    +0.000 OA
BRANCH  13  16
ATOM     16  N   UNL     1       5.756   3.770  18.177  0.00  0.00    +0.000 N 
ATOM     17  C   UNL     1       6.298   4.926  18.963  0.00  0.00    +0.000 C 
ATOM     18  C   UNL     1       7.221   5.687  18.064  0.00  0.00    +0.000 C 
ATOM     19  O   UNL     1       6.335   6.527  17.319  0.00  0.00    +0.000 OA
ATOM     20  C   UNL     1       5.594   5.715  16.456  0.00  0.00    +0.000 A 
ATOM     21  C   UNL     1       5.463   6.383  15.223  0.00  0.00    +0.000 A 
ATOM     22  C   UNL     1       5.578   5.653  14.068  0.00  0.00    +0.000 A 
ATOM     23  C   UNL     1       5.792   4.273  14.171  0.00  0.00    +0.000 A 
ATOM     24  C   UNL     1       6.367   3.665  12.898  0.00  0.00    +0.000 C 
ATOM     25  C   UNL     1       5.613   3.581  15.461  0.00  0.00    +0.000 A 
ATOM     26  C   UNL     1       5.456   4.306  16.685  0.00  0.00    +0.000 A 
ENDBRANCH  13  16
ENDBRANCH   6  13
BRANCH   1  28
ATOM     27  C   UNL     1       1.370   2.411  21.741  0.00  0.00    +0.000 C 
ATOM     28  O   UNL     1       2.521   3.263  21.685  0.00  0.00    +0.000 OA
ENDBRANCH   1  28
TORSDOF 4
ENDMDL
MODEL 8
REMARK VINA RESULT:      -7.2     10.757     12.738
REMARK  Name = 
REMARK  7 active torsions:
REMARK  status: ('A' for Active; 'I' for Inactive)
REMARK    1  A    between atoms: C_1  and  O_2
REMARK    2  A    between atoms: O_2  and  C_3
REMARK    3  A    between atoms: C_6  and  C_7
REMARK    4  A    between atoms: C_9  and  C_10
REMARK    5  A    between atoms: C_14  and  S_15
REMARK    6  A    between atoms: S_15  and  N_18
REMARK    7  A    between atoms: C_25  and  C_26
REMARK                            x       y       z     vdW  Elec       q    Type
REMARK                         _______ _______ _______ _____ _____    ______ ____
ROOT
ATOM      1  C   UNL     1       9.940  12.670  19.964  0.00  0.00    +0.000 A 
ATOM      2  C   UNL     1       9.424  11.599  20.731  0.00  0.00    +0.000 A 
ATOM      3  C   UNL     1       9.006  10.402  20.164  0.00  0.00    +0.000 A 
ATOM      4  C   UNL     1       9.124  10.174  18.788  0.00  0.00    +0.000 A 
ATOM      5  C   UNL     1       9.788  11.214  18.005  0.00  0.00    +0.000 A 
ATOM      6  C   UNL     1      10.197  12.490  18.598  0.00  0.00    +0.000 A 
ENDROOT
BRANCH   4   7
ATOM      7  C   UNL     1       8.503   8.883  18.333  0.00  0.00    +0.000 A 
ATOM      8  C   UNL     1       8.468   7.603  18.862  0.00  0.00    +0.000 A 
ATOM      9  C   UNL     1       7.615   6.837  18.029  0.00  0.00    +0.000 A 
ATOM     10  C   UNL     1       7.184   5.412  18.171  0.00  0.00    +0.000 C 
ATOM     11  N   UNL     1       7.179   7.599  17.018  0.00  0.00    +0.000 NA
ATOM     12  O   UNL     1       7.728   8.873  17.208  0.00  0.00    +0.000 OA
ENDBRANCH   4   7
BRANCH   6  13
ATOM     13  S   UNL     1      11.212  13.901  17.642  0.00  0.00    +0.000 S 
ATOM     14  O   UNL     1      12.333  14.287  18.492  0.00  0.00    +0.000 OA
ATOM     15  O   UNL     1      11.472  13.292  16.329  0.00  0.00    +0.000 OA
BRANCH  13  16
ATOM     16  N   UNL     1      10.121  15.332  17.382  0.00  0.00    +0.000 N 
ATOM     17  C   UNL     1      11.119  16.445  17.262  0.00  0.00    +0.000 C 
ATOM     18  C   UNL     1      10.356  17.731  17.224  0.00  0.00    +0.000 C 
ATOM     19  O   UNL     1      10.114  18.010  18.606  0.00  0.00    +0.000 OA
ATOM     20  C   UNL     1       9.196  17.070  19.082  0.00  0.00    +0.000 A 
ATOM     21  C   UNL     1       8.299  17.726  19.947  0.00  0.00    +0.000 A 
ATOM     22  C   UNL     1       6.970  17.394  19.888  0.00  0.00    +0.000 A 
ATOM     23  C   UNL     1       6.574  16.397  18.988  0.00  0.00    +0.000 A 
ATOM     24  C   UNL     1       5.085  16.447  18.666  0.00  0.00    +0.000 C 
ATOM     25  C   UNL     1       7.576  15.533  18.336  0.00  0.00    +0.000 A 
ATOM     26  C   UNL     1       8.975  15.826  18.404  0.00  0.00    +0.000 A 
ENDBRANCH  13  16
ENDBRANCH   6  13
BRANCH   1  28
ATOM     27  C   UNL     1       9.748  13.945  21.918  0.00  0.00    +0.000 C 
ATOM     28  O   UNL     1      10.138  13.897  20.539  0.00  0.00    +0.000 OA
ENDBRANCH   1  28
TORSDOF 4
ENDMDL
MODEL 9
REMARK VINA RESULT:      -7.0      2.778      4.320
REMARK  Name = 
REMARK  7 active torsions:
REMARK  status: ('A' for Active; 'I' for Inactive)
REMARK    1  A    between atoms: C_1  and  O_2
REMARK    2  A    between atoms: O_2  and  C_3
REMARK    3  A    between atoms: C_6  and  C_7
REMARK    4  A    between atoms: C_9  and  C_10
REMARK    5  A    between atoms: C_14  and  S_15
REMARK    6  A    between atoms: S_15  and  N_18
REMARK    7  A    between atoms: C_25  and  C_26
REMARK                            x       y       z     vdW  Elec       q    Type
REMARK                         _______ _______ _______ _____ _____    ______ ____
ROOT
ATOM      1  C   UNL     1      -1.482  13.419  20.193  0.00  0.00    +0.000 A 
ATOM      2  C   UNL     1      -0.826  13.113  18.977  0.00  0.00    +0.000 A 
ATOM      3  C   UNL     1      -0.152  11.916  18.768  0.00  0.00    +0.000 A 
ATOM      4  C   UNL     1      -0.133  10.917  19.750  0.00  0.00    +0.000 A 
ATOM      5  C   UNL     1      -0.927  11.162  20.951  0.00  0.00    +0.000 A 
ATOM      6  C   UNL     1      -1.608  12.439  21.185  0.00  0.00    +0.000 A 
ENDROOT
BRANCH   4   7
ATOM      7  C   UNL     1       0.750   9.750  19.406  0.00  0.00    +0.000 A 
ATOM      8  C   UNL     1       1.462   9.394  18.272  0.00  0.00    +0.000 A 
ATOM      9  C   UNL     1       2.207   8.234  18.603  0.00  0.00    +0.000 A 
ATOM     10  C   UNL     1       3.184   7.468  17.769  0.00  0.00    +0.000 C 
ATOM     11  N   UNL     1       1.935   7.875  19.864  0.00  0.00    +0.000 NA
ATOM     12  O   UNL     1       1.031   8.819  20.365  0.00  0.00    +0.000 OA
ENDBRANCH   4   7
BRANCH   6  13
ATOM     13  S   UNL     1      -2.804  12.811  22.723  0.00  0.00    +0.000 S 
ATOM     14  O   UNL     1      -2.913  11.582  23.501  0.00  0.00    +0.000 OA
ATOM     15  O   UNL     1      -2.199  14.005  23.334  0.00  0.00    +0.000 OA
BRANCH  13  16
ATOM     16  N   UNL     1      -4.442  13.282  22.091  0.00  0.00    +0.000 N 
ATOM     17  C   UNL     1      -5.303  13.042  23.295  0.00  0.00    +0.000 C 
ATOM     18  C   UNL     1      -6.727  13.216  22.871  0.00  0.00    +0.000 C 
ATOM     19  O   UNL     1      -7.058  11.946  22.302  0.00  0.00    +0.000 OA
ATOM     20  C   UNL     1      -6.348  11.812  21.105  0.00  0.00    +0.000 A 
ATOM     21  C   UNL     1      -7.191  11.199  20.157  0.00  0.00    +0.000 A 
ATOM     22  C   UNL     1      -7.165  11.657  18.865  0.00  0.00    +0.000 A 
ATOM     23  C   UNL     1      -6.279  12.693  18.544  0.00  0.00    +0.000 A 
ATOM     24  C   UNL     1      -6.659  13.423  17.262  0.00  0.00    +0.000 C 
ATOM     25  C   UNL     1      -5.210  13.084  19.483  0.00  0.00    +0.000 A 
ATOM     26  C   UNL     1      -5.183  12.601  20.830  0.00  0.00    +0.000 A 
ENDBRANCH  13  16
ENDBRANCH   6  13
BRANCH   1  28
ATOM     27  C   UNL     1      -1.043  15.710  19.982  0.00  0.00    +0.000 C 
ATOM     28  O   UNL     1      -1.946  14.688  20.424  0.00  0.00    +0.000 OA
ENDBRANCH   1  28
TORSDOF 4
ENDMDL
