MODEL 1
REMARK VINA RESULT:      -7.9      0.000      0.000
REMARK  Name = 
REMARK  8 active torsions:
REMARK  status: ('A' for Active; 'I' for Inactive)
REMARK    1  A    between atoms: C_1  and  O_2
REMARK    2  A    between atoms: O_2  and  C_3
REMARK    3  A    between atoms: C_6  and  O_7
REMARK    4  A    between atoms: O_7  and  C_8
REMARK    5  A    between atoms: C_9  and  C_10
REMARK    6  A    between atoms: C_12  and  C_13
REMARK    7  A    between atoms: C_19  and  C_20
REMARK    8  A    between atoms: C_22  and  N_23
REMARK                            x       y       z     vdW  Elec       q    Type
REMARK                         _______ _______ _______ _____ _____    ______ ____
ROOT
ATOM      1  C   UNL     1       4.542   4.543  16.557  0.00  0.00    +0.000 A 
ATOM      2  C   UNL     1       3.951   5.680  17.102  0.00  0.00    +0.000 A 
ATOM      3  C   UNL     1       2.968   5.584  18.114  0.00  0.00    +0.000 A 
ATOM      4  C   UNL     1       2.575   4.286  18.506  0.00  0.00    +0.000 A 
ATOM      5  C   UNL     1       3.207   3.185  17.929  0.00  0.00    +0.000 A 
ATOM      6  N   UNL     1       4.167   3.311  16.995  0.00  0.00    +0.000 NA
ENDROOT
BRANCH   1  11
ATOM      7  C   UNL     1       6.019   3.814  13.128  0.00  0.00    +0.000 A 
ATOM      8  C   UNL     1       7.290   4.357  13.215  0.00  0.00    +0.000 A 
ATOM      9  C   UNL     1       7.707   4.979  14.388  0.00  0.00    +0.000 A 
ATOM     10  C   UNL     1       6.870   5.041  15.518  0.00  0.00    +0.000 A 
ATOM     11  C   UNL     1       5.549   4.531  15.451  0.00  0.00    +0.000 A 
ATOM     12  C   UNL     1       5.160   3.931  14.222  0.00  0.00    +0.000 A 
BRANCH   7  14
ATOM     13  C   UNL     1       4.387   3.224  11.507  0.00  0.00    +0.000 C 
ATOM     14  O   UNL     1       5.740   3.201  11.941  0.00  0.00    +0.000 OA
ENDBRANCH   7  14
BRANCH  10  15
ATOM     15  O   UNL     1       7.309   5.612  16.689  0.00  0.00    +0.000 OA
ATOM     16  C   UNL     1       7.679   4.705  17.729  0.00  0.00    +0.000 C 
ENDBRANCH  10  15
ENDBRANCH   1  11
BRANCH   3  17
ATOM     17  C   UNL     1       2.378   6.826  18.685  0.00  0.00    +0.000 A 
ATOM     18  C   UNL     1       2.034   7.936  17.898  0.00  0.00    +0.000 A 
ATOM     19  C   UNL     1       1.566   9.113  18.479  0.00  0.00    +0.000 A 
ATOM     20  C   UNL     1       1.387   9.141  19.847  0.00  0.00    +0.000 A 
ATOM     21  N   UNL     1       1.641   8.089  20.649  0.00  0.00    +0.000 NA
ATOM     22  C   UNL     1       2.134   6.974  20.054  0.00  0.00    +0.000 A 
ENDBRANCH   3  17
BRANCH   5  23
ATOM     23  N   UNL     1       2.817   1.872  18.187  0.00  0.00    +0.000 N 
ATOM     24  H   UNL     1       1.831   1.745  18.385  0.00  0.00    +0.000 HD
ATOM     25  H   UNL     1       3.418   1.484  18.908  0.00  0.00    +0.000 HD
ENDBRANCH   5  23
BRANCH   4  26
ATOM     26  C   UNL     1       1.539   4.035  19.470  0.00  0.00    +0.000 C 
ATOM     27  N   UNL     1       0.743   3.786  20.273  0.00  0.00    +0.000 NA
ENDBRANCH   4  26
TORSDOF 6
ENDMDL
MODEL 2
REMARK VINA RESULT:      -7.6      3.127      7.593
REMARK  Name = 
REMARK  8 active torsions:
REMARK  status: ('A' for Active; 'I' for Inactive)
REMARK    1  A    between atoms: C_1  and  O_2
REMARK    2  A    between atoms: O_2  and  C_3
REMARK    3  A    between atoms: C_6  and  O_7
REMARK    4  A    between atoms: O_7  and  C_8
REMARK    5  A    between atoms: C_9  and  C_10
REMARK    6  A    between atoms: C_12  and  C_13
REMARK    7  A    between atoms: C_19  and  C_20
REMARK    8  A    between atoms: C_22  and  N_23
REMARK                            x       y       z     vdW  Elec       q    Type
REMARK                         _______ _______ _______ _____ _____    ______ ____
ROOT
ATOM      1  C   UNL     1       2.260   6.550  20.039  0.00  0.00    +0.000 A 
ATOM      2  C   UNL     1       3.265   6.348  19.096  0.00  0.00    +0.000 A 
ATOM      3  C   UNL     1       3.925   5.103  18.980  0.00  0.00    +0.000 A 
ATOM      4  C   UNL     1       3.557   4.095  19.897  0.00  0.00    +0.000 A 
ATOM      5  C   UNL     1       2.540   4.352  20.815  0.00  0.00    +0.000 A 
ATOM      6  N   UNL     1       1.905   5.536  20.875  0.00  0.00    +0.000 NA
ENDROOT
BRANCH   1  11
ATOM      7  C   UNL     1       0.324   9.215  21.941  0.00  0.00    +0.000 A 
ATOM      8  C   UNL     1       0.112  10.190  20.980  0.00  0.00    +0.000 A 
ATOM      9  C   UNL     1       0.592  10.015  19.687  0.00  0.00    +0.000 A 
ATOM     10  C   UNL     1       1.268   8.838  19.313  0.00  0.00    +0.000 A 
ATOM     11  C   UNL     1       1.538   7.837  20.280  0.00  0.00    +0.000 A 
ATOM     12  C   UNL     1       1.051   8.076  21.596  0.00  0.00    +0.000 A 
BRANCH   7  14
ATOM     13  C   UNL     1      -1.105  10.601  23.237  0.00  0.00    +0.000 C 
ATOM     14  O   UNL     1      -0.226   9.486  23.161  0.00  0.00    +0.000 OA
ENDBRANCH   7  14
BRANCH  10  15
ATOM     15  O   UNL     1       1.695   8.652  18.020  0.00  0.00    +0.000 OA
ATOM     16  C   UNL     1       2.509   9.690  17.472  0.00  0.00    +0.000 C 
ENDBRANCH  10  15
ENDBRANCH   1  11
BRANCH   3  17
ATOM     17  C   UNL     1       4.977   4.925  17.943  0.00  0.00    +0.000 A 
ATOM     18  C   UNL     1       4.702   4.444  16.654  0.00  0.00    +0.000 A 
ATOM     19  C   UNL     1       5.726   4.208  15.739  0.00  0.00    +0.000 A 
ATOM     20  C   UNL     1       7.018   4.520  16.109  0.00  0.00    +0.000 A 
ATOM     21  N   UNL     1       7.340   5.041  17.308  0.00  0.00    +0.000 NA
ATOM     22  C   UNL     1       6.323   5.219  18.189  0.00  0.00    +0.000 A 
ENDBRANCH   3  17
BRANCH   5  23
ATOM     23  N   UNL     1       2.180   3.450  21.814  0.00  0.00    +0.000 N 
ATOM     24  H   UNL     1       2.947   2.926  22.220  0.00  0.00    +0.000 HD
ATOM     25  H   UNL     1       1.434   2.853  21.469  0.00  0.00    +0.000 HD
ENDBRANCH   5  23
BRANCH   4  26
ATOM     26  C   UNL     1       4.191   2.805  19.943  0.00  0.00    +0.000 C 
ATOM     27  N   UNL     1       4.724   1.782  20.041  0.00  0.00    +0.000 NA
ENDBRANCH   4  26
TORSDOF 6
ENDMDL
MODEL 3
REMARK VINA RESULT:      -7.3      0.868      1.173
REMARK  Name = 
REMARK  8 active torsions:
REMARK  status: ('A' for Active; 'I' for Inactive)
REMARK    1  A    between atoms: C_1  and  O_2
REMARK    2  A    between atoms: O_2  and  C_3
REMARK    3  A    between atoms: C_6  and  O_7
REMARK    4  A    between atoms: O_7  and  C_8
REMARK    5  A    between atoms: C_9  and  C_10
REMARK    6  A    between atoms: C_12  and  C_13
REMARK    7  A    between atoms: C_19  and  C_20
REMARK    8  A    between atoms: C_22  and  N_23
REMARK                            x       y       z     vdW  Elec       q    Type
REMARK                         _______ _______ _______ _____ _____    ______ ____
ROOT
ATOM      1  C   UNL     1       4.543   4.609  16.814  0.00  0.00    +0.000 A 
ATOM      2  C   UNL     1       3.947   5.754  17.335  0.00  0.00    +0.000 A 
ATOM      3  C   UNL     1       2.978   5.676  18.363  0.00  0.00    +0.000 A 
ATOM      4  C   UNL     1       2.607   4.385  18.796  0.00  0.00    +0.000 A 
ATOM      5  C   UNL     1       3.244   3.276  18.243  0.00  0.00    +0.000 A 
ATOM      6  N   UNL     1       4.189   3.386  17.292  0.00  0.00    +0.000 NA
ENDROOT
BRANCH   1  11
ATOM      7  C   UNL     1       5.927   3.940  13.334  0.00  0.00    +0.000 A 
ATOM      8  C   UNL     1       7.235   4.384  13.429  0.00  0.00    +0.000 A 
ATOM      9  C   UNL     1       7.709   4.918  14.623  0.00  0.00    +0.000 A 
ATOM     10  C   UNL     1       6.891   4.985  15.767  0.00  0.00    +0.000 A 
ATOM     11  C   UNL     1       5.535   4.576  15.695  0.00  0.00    +0.000 A 
ATOM     12  C   UNL     1       5.090   4.066  14.444  0.00  0.00    +0.000 A 
BRANCH   7  14
ATOM     13  C   UNL     1       6.328   2.267  11.697  0.00  0.00    +0.000 C 
ATOM     14  O   UNL     1       5.592   3.406  12.123  0.00  0.00    +0.000 OA
ENDBRANCH   7  14
BRANCH  10  15
ATOM     15  O   UNL     1       7.383   5.466  16.957  0.00  0.00    +0.000 OA
ATOM     16  C   UNL     1       7.381   6.887  17.108  0.00  0.00    +0.000 C 
ENDBRANCH  10  15
ENDBRANCH   1  11
BRANCH   3  17
ATOM     17  C   UNL     1       2.382   6.927  18.906  0.00  0.00    +0.000 A 
ATOM     18  C   UNL     1       2.109   7.109  20.270  0.00  0.00    +0.000 A 
ATOM     19  C   UNL     1       1.471   8.260  20.729  0.00  0.00    +0.000 A 
ATOM     20  C   UNL     1       1.169   9.250  19.816  0.00  0.00    +0.000 A 
ATOM     21  N   UNL     1       1.462   9.161  18.504  0.00  0.00    +0.000 NA
ATOM     22  C   UNL     1       2.046   8.009  18.086  0.00  0.00    +0.000 A 
ENDBRANCH   3  17
BRANCH   5  23
ATOM     23  N   UNL     1       2.873   1.966  18.543  0.00  0.00    +0.000 N 
ATOM     24  H   UNL     1       2.117   1.874  19.212  0.00  0.00    +0.000 HD
ATOM     25  H   UNL     1       3.701   1.440  18.808  0.00  0.00    +0.000 HD
ENDBRANCH   5  23
BRANCH   4  26
ATOM     26  C   UNL     1       1.587   4.150  19.782  0.00  0.00    +0.000 C 
ATOM     27  N   UNL     1       0.813   3.960  20.622  0.00  0.00    +0.000 NA
ENDBRANCH   4  26
TORSDOF 6
ENDMDL
MODEL 4
REMARK VINA RESULT:      -7.3      1.555      3.367
REMARK  Name = 
REMARK  8 active torsions:
REMARK  status: ('A' for Active; 'I' for Inactive)
REMARK    1  A    between atoms: C_1  and  O_2
REMARK    2  A    between atoms: O_2  and  C_3
REMARK    3  A    between atoms: C_6  and  O_7
REMARK    4  A    between atoms: O_7  and  C_8
REMARK    5  A    between atoms: C_9  and  C_10
REMARK    6  A    between atoms: C_12  and  C_13
REMARK    7  A    between atoms: C_19  and  C_20
REMARK    8  A    between atoms: C_22  and  N_23
REMARK                            x       y       z     vdW  Elec       q    Type
REMARK                         _______ _______ _______ _____ _____    ______ ____
ROOT
ATOM      1  C   UNL     1       4.476   5.433  16.728  0.00  0.00    +0.000 A 
ATOM      2  C   UNL     1       3.969   4.579  17.704  0.00  0.00    +0.000 A 
ATOM      3  C   UNL     1       3.138   5.060  18.742  0.00  0.00    +0.000 A 
ATOM      4  C   UNL     1       2.892   6.450  18.774  0.00  0.00    +0.000 A 
ATOM      5  C   UNL     1       3.421   7.254  17.766  0.00  0.00    +0.000 A 
ATOM      6  N   UNL     1       4.177   6.760  16.770  0.00  0.00    +0.000 NA
ENDROOT
BRANCH   1  11
ATOM      7  C   UNL     1       5.573   4.035  13.364  0.00  0.00    +0.000 A 
ATOM      8  C   UNL     1       6.950   4.187  13.399  0.00  0.00    +0.000 A 
ATOM      9  C   UNL     1       7.565   4.750  14.512  0.00  0.00    +0.000 A 
ATOM     10  C   UNL     1       6.816   5.143  15.638  0.00  0.00    +0.000 A 
ATOM     11  C   UNL     1       5.402   5.039  15.621  0.00  0.00    +0.000 A 
ATOM     12  C   UNL     1       4.818   4.484  14.449  0.00  0.00    +0.000 A 
BRANCH   7  14
ATOM     13  C   UNL     1       5.838   2.342  11.720  0.00  0.00    +0.000 C 
ATOM     14  O   UNL     1       5.093   3.438  12.235  0.00  0.00    +0.000 OA
ENDBRANCH   7  14
BRANCH  10  15
ATOM     15  O   UNL     1       7.437   5.651  16.754  0.00  0.00    +0.000 OA
ATOM     16  C   UNL     1       7.672   4.726  17.816  0.00  0.00    +0.000 C 
ENDBRANCH  10  15
ENDBRANCH   1  11
BRANCH   3  17
ATOM     17  C   UNL     1       2.600   4.108  19.752  0.00  0.00    +0.000 A 
ATOM     18  C   UNL     1       1.239   3.775  19.834  0.00  0.00    +0.000 A 
ATOM     19  C   UNL     1       0.760   2.947  20.848  0.00  0.00    +0.000 A 
ATOM     20  C   UNL     1       1.669   2.408  21.736  0.00  0.00    +0.000 A 
ATOM     21  N   UNL     1       2.994   2.641  21.673  0.00  0.00    +0.000 NA
ATOM     22  C   UNL     1       3.420   3.484  20.699  0.00  0.00    +0.000 A 
ENDBRANCH   3  17
BRANCH   5  23
ATOM     23  N   UNL     1       3.306   8.643  17.772  0.00  0.00    +0.000 N 
ATOM     24  H   UNL     1       2.662   9.027  17.091  0.00  0.00    +0.000 HD
ATOM     25  H   UNL     1       4.235   9.052  17.712  0.00  0.00    +0.000 HD
ENDBRANCH   5  23
BRANCH   4  26
ATOM     26  C   UNL     1       2.125   7.089  19.809  0.00  0.00    +0.000 C 
ATOM     27  N   UNL     1       1.562   7.638  20.659  0.00  0.00    +0.000 NA
ENDBRANCH   4  26
TORSDOF 6
ENDMDL
MODEL 5
REMARK VINA RESULT:      -7.1      3.272      7.294
REMARK  Name = 
REMARK  8 active torsions:
REMARK  status: ('A' for Active; 'I' for Inactive)
REMARK    1  A    between atoms: C_1  and  O_2
REMARK    2  A    between atoms: O_2  and  C_3
REMARK    3  A    between atoms: C_6  and  O_7
REMARK    4  A    between atoms: O_7  and  C_8
REMARK    5  A    between atoms: C_9  and  C_10
REMARK    6  A    between atoms: C_12  and  C_13
REMARK    7  A    between atoms: C_19  and  C_20
REMARK    8  A    between atoms: C_22  and  N_23
REMARK                            x       y       z     vdW  Elec       q    Type
REMARK                         _______ _______ _______ _____ _____    ______ ____
ROOT
ATOM      1  C   UNL     1       2.457   7.511  19.090  0.00  0.00    +0.000 A 
ATOM      2  C   UNL     1       3.399   7.147  18.132  0.00  0.00    +0.000 A 
ATOM      3  C   UNL     1       4.010   5.871  18.150  0.00  0.00    +0.000 A 
ATOM      4  C   UNL     1       3.662   5.009  19.212  0.00  0.00    +0.000 A 
ATOM      5  C   UNL     1       2.707   5.426  20.138  0.00  0.00    +0.000 A 
ATOM      6  N   UNL     1       2.116   6.632  20.071  0.00  0.00    +0.000 NA
ENDROOT
BRANCH   1  11
ATOM      7  C   UNL     1       1.724  11.165  18.324  0.00  0.00    +0.000 A 
ATOM      8  C   UNL     1       0.708  11.471  19.213  0.00  0.00    +0.000 A 
ATOM      9  C   UNL     1       0.226  10.502  20.088  0.00  0.00    +0.000 A 
ATOM     10  C   UNL     1       0.778   9.208  20.117  0.00  0.00    +0.000 A 
ATOM     11  C   UNL     1       1.792   8.848  19.194  0.00  0.00    +0.000 A 
ATOM     12  C   UNL     1       2.230   9.865  18.301  0.00  0.00    +0.000 A 
BRANCH   7  14
ATOM     13  C   UNL     1       2.346  13.454  18.196  0.00  0.00    +0.000 C 
ATOM     14  O   UNL     1       2.135  12.208  17.544  0.00  0.00    +0.000 OA
ENDBRANCH   7  14
BRANCH  10  15
ATOM     15  O   UNL     1       0.330   8.272  21.019  0.00  0.00    +0.000 OA
ATOM     16  C   UNL     1      -0.384   8.779  22.146  0.00  0.00    +0.000 C 
ENDBRANCH  10  15
ENDBRANCH   1  11
BRANCH   3  17
ATOM     17  C   UNL     1       4.996   5.515  17.093  0.00  0.00    +0.000 A 
ATOM     18  C   UNL     1       4.767   4.502  16.150  0.00  0.00    +0.000 A 
ATOM     19  C   UNL     1       5.749   4.138  15.231  0.00  0.00    +0.000 A 
ATOM     20  C   UNL     1       6.935   4.844  15.227  0.00  0.00    +0.000 A 
ATOM     21  N   UNL     1       7.191   5.867  16.065  0.00  0.00    +0.000 NA
ATOM     22  C   UNL     1       6.228   6.166  16.974  0.00  0.00    +0.000 A 
ENDBRANCH   3  17
BRANCH   5  23
ATOM     23  N   UNL     1       2.374   4.679  21.266  0.00  0.00    +0.000 N 
ATOM     24  H   UNL     1       1.841   3.836  21.085  0.00  0.00    +0.000 HD
ATOM     25  H   UNL     1       1.931   5.288  21.948  0.00  0.00    +0.000 HD
ENDBRANCH   5  23
BRANCH   4  26
ATOM     26  C   UNL     1       4.254   3.712  19.398  0.00  0.00    +0.000 C 
ATOM     27  N   UNL     1       4.696   2.662  19.604  0.00  0.00    +0.000 NA
ENDBRANCH   4  26
TORSDOF 6
ENDMDL
MODEL 6
REMARK VINA RESULT:      -6.7      4.353      7.783
REMARK  Name = 
REMARK  8 active torsions:
REMARK  status: ('A' for Active; 'I' for Inactive)
REMARK    1  A    between atoms: C_1  and  O_2
REMARK    2  A    between atoms: O_2  and  C_3
REMARK    3  A    between atoms: C_6  and  O_7
REMARK    4  A    between atoms: O_7  and  C_8
REMARK    5  A    between atoms: C_9  and  C_10
REMARK    6  A    between atoms: C_12  and  C_13
REMARK    7  A    between atoms: C_19  and  C_20
REMARK    8  A    between atoms: C_22  and  N_23
REMARK                            x       y       z     vdW  Elec       q    Type
REMARK                         _______ _______ _______ _____ _____    ______ ____
ROOT
ATOM      1  C   UNL     1       1.588   8.423  19.302  0.00  0.00    +0.000 A 
ATOM      2  C   UNL     1       1.409   7.180  19.904  0.00  0.00    +0.000 A 
ATOM      3  C   UNL     1       2.191   6.062  19.530  0.00  0.00    +0.000 A 
ATOM      4  C   UNL     1       3.119   6.251  18.483  0.00  0.00    +0.000 A 
ATOM      5  C   UNL     1       3.259   7.520  17.923  0.00  0.00    +0.000 A 
ATOM      6  N   UNL     1       2.527   8.572  18.328  0.00  0.00    +0.000 NA
ENDROOT
BRANCH   1  11
ATOM      7  C   UNL     1      -0.738  11.357  18.633  0.00  0.00    +0.000 A 
ATOM      8  C   UNL     1      -0.801  11.991  19.863  0.00  0.00    +0.000 A 
ATOM      9  C   UNL     1      -0.093  11.485  20.949  0.00  0.00    +0.000 A 
ATOM     10  C   UNL     1       0.727  10.348  20.818  0.00  0.00    +0.000 A 
ATOM     11  C   UNL     1       0.783   9.652  19.585  0.00  0.00    +0.000 A 
ATOM     12  C   UNL     1       0.019  10.192  18.513  0.00  0.00    +0.000 A 
BRANCH   7  14
ATOM     13  C   UNL     1      -2.714  11.413  17.316  0.00  0.00    +0.000 C 
ATOM     14  O   UNL     1      -1.446  11.969  17.639  0.00  0.00    +0.000 OA
ENDBRANCH   7  14
BRANCH  10  15
ATOM     15  O   UNL     1       1.462   9.884  21.884  0.00  0.00    +0.000 OA
ATOM     16  C   UNL     1       0.715   9.325  22.965  0.00  0.00    +0.000 C 
ENDBRANCH  10  15
ENDBRANCH   1  11
BRANCH   3  17
ATOM     17  C   UNL     1       1.981   4.758  20.215  0.00  0.00    +0.000 A 
ATOM     18  C   UNL     1       1.178   3.738  19.682  0.00  0.00    +0.000 A 
ATOM     19  C   UNL     1       0.936   2.565  20.394  0.00  0.00    +0.000 A 
ATOM     20  C   UNL     1       1.559   2.400  21.615  0.00  0.00    +0.000 A 
ATOM     21  N   UNL     1       2.389   3.315  22.152  0.00  0.00    +0.000 NA
ATOM     22  C   UNL     1       2.569   4.463  21.450  0.00  0.00    +0.000 A 
ENDBRANCH   3  17
BRANCH   5  23
ATOM     23  N   UNL     1       4.081   7.773  16.826  0.00  0.00    +0.000 N 
ATOM     24  H   UNL     1       4.372   6.952  16.306  0.00  0.00    +0.000 HD
ATOM     25  H   UNL     1       4.863   8.349  17.124  0.00  0.00    +0.000 HD
ENDBRANCH   5  23
BRANCH   4  26
ATOM     26  C   UNL     1       3.930   5.190  17.951  0.00  0.00    +0.000 C 
ATOM     27  N   UNL     1       4.629   4.380  17.508  0.00  0.00    +0.000 NA
ENDBRANCH   4  26
TORSDOF 6
ENDMDL
MODEL 7
REMARK VINA RESULT:      -6.6      3.220      7.182
REMARK  Name = 
REMARK  8 active torsions:
REMARK  status: ('A' for Active; 'I' for Inactive)
REMARK    1  A    between atoms: C_1  and  O_2
REMARK    2  A    between atoms: O_2  and  C_3
REMARK    3  A    between atoms: C_6  and  O_7
REMARK    4  A    between atoms: O_7  and  C_8
REMARK    5  A    between atoms: C_9  and  C_10
REMARK    6  A    between atoms: C_12  and  C_13
REMARK    7  A    between atoms: C_19  and  C_20
REMARK    8  A    between atoms: C_22  and  N_23
REMARK                            x       y       z     vdW  Elec       q    Type
REMARK                         _______ _______ _______ _____ _____    ______ ____
ROOT
ATOM      1  C   UNL     1       2.429   7.096  19.297  0.00  0.00    +0.000 A 
ATOM      2  C   UNL     1       3.438   6.682  18.432  0.00  0.00    +0.000 A 
ATOM      3  C   UNL     1       3.952   5.365  18.479  0.00  0.00    +0.000 A 
ATOM      4  C   UNL     1       3.435   4.510  19.476  0.00  0.00    +0.000 A 
ATOM      5  C   UNL     1       2.421   4.979  20.310  0.00  0.00    +0.000 A 
ATOM      6  N   UNL     1       1.927   6.226  20.215  0.00  0.00    +0.000 NA
ENDROOT
BRANCH   1  11
ATOM      7  C   UNL     1       1.872  10.746  18.379  0.00  0.00    +0.000 A 
ATOM      8  C   UNL     1       0.931  11.160  19.308  0.00  0.00    +0.000 A 
ATOM      9  C   UNL     1       0.446  10.267  20.259  0.00  0.00    +0.000 A 
ATOM     10  C   UNL     1       0.920   8.944  20.325  0.00  0.00    +0.000 A 
ATOM     11  C   UNL     1       1.853   8.475  19.366  0.00  0.00    +0.000 A 
ATOM     12  C   UNL     1       2.297   9.417  18.397  0.00  0.00    +0.000 A 
BRANCH   7  14
ATOM     13  C   UNL     1       2.668  12.966  18.100  0.00  0.00    +0.000 C 
ATOM     14  O   UNL     1       2.296  11.721  17.523  0.00  0.00    +0.000 OA
ENDBRANCH   7  14
BRANCH  10  15
ATOM     15  O   UNL     1       0.472   8.084  21.300  0.00  0.00    +0.000 OA
ATOM     16  C   UNL     1      -0.425   8.640  22.262  0.00  0.00    +0.000 C 
ENDBRANCH  10  15
ENDBRANCH   1  11
BRANCH   3  17
ATOM     17  C   UNL     1       5.015   4.958  17.520  0.00  0.00    +0.000 A 
ATOM     18  C   UNL     1       6.383   5.038  17.821  0.00  0.00    +0.000 A 
ATOM     19  C   UNL     1       7.351   4.729  16.866  0.00  0.00    +0.000 A 
ATOM     20  C   UNL     1       6.930   4.279  15.631  0.00  0.00    +0.000 A 
ATOM     21  N   UNL     1       5.634   4.122  15.302  0.00  0.00    +0.000 NA
ATOM     22  C   UNL     1       4.719   4.472  16.242  0.00  0.00    +0.000 A 
ENDBRANCH   3  17
BRANCH   5  23
ATOM     23  N   UNL     1       1.921   4.237  21.378  0.00  0.00    +0.000 N 
ATOM     24  H   UNL     1       1.235   4.714  21.952  0.00  0.00    +0.000 HD
ATOM     25  H   UNL     1       2.699   3.868  21.918  0.00  0.00    +0.000 HD
ENDBRANCH   5  23
BRANCH   4  26
ATOM     26  C   UNL     1       3.912   3.170  19.688  0.00  0.00    +0.000 C 
ATOM     27  N   UNL     1       4.356   2.117  19.871  0.00  0.00    +0.000 NA
ENDBRANCH   4  26
TORSDOF 6
ENDMDL
MODEL 8
REMARK VINA RESULT:      -6.6      4.142      7.511
REMARK  Name = 
REMARK  8 active torsions:
REMARK  status: ('A' for Active; 'I' for Inactive)
REMARK    1  A    between atoms: C_1  and  O_2
REMARK    2  A    between atoms: O_2  and  C_3
REMARK    3  A    between atoms: C_6  and  O_7
REMARK    4  A    between atoms: O_7  and  C_8
REMARK    5  A    between atoms: C_9  and  C_10
REMARK    6  A    between atoms: C_12  and  C_13
REMARK    7  A    between atoms: C_19  and  C_20
REMARK    8  A    between atoms: C_22  and  N_23
REMARK                            x       y       z     vdW  Elec       q    Type
REMARK                         _______ _______ _______ _____ _____    ______ ____
ROOT
ATOM      1  C   UNL     1       2.185   8.305  18.872  0.00  0.00    +0.000 A 
ATOM      2  C   UNL     1       1.854   7.132  19.545  0.00  0.00    +0.000 A 
ATOM      3  C   UNL     1       2.457   5.898  19.211  0.00  0.00    +0.000 A 
ATOM      4  C   UNL     1       3.366   5.900  18.131  0.00  0.00    +0.000 A 
ATOM      5  C   UNL     1       3.664   7.107  17.499  0.00  0.00    +0.000 A 
ATOM      6  N   UNL     1       3.101   8.271  17.866  0.00  0.00    +0.000 NA
ENDROOT
BRANCH   1  11
ATOM      7  C   UNL     1       1.594  12.043  18.479  0.00  0.00    +0.000 A 
ATOM      8  C   UNL     1       0.587  12.297  19.395  0.00  0.00    +0.000 A 
ATOM      9  C   UNL     1       0.065  11.263  20.167  0.00  0.00    +0.000 A 
ATOM     10  C   UNL     1       0.568   9.952  20.065  0.00  0.00    +0.000 A 
ATOM     11  C   UNL     1       1.571   9.649  19.110  0.00  0.00    +0.000 A 
ATOM     12  C   UNL     1       2.051  10.733  18.325  0.00  0.00    +0.000 A 
BRANCH   7  14
ATOM     13  C   UNL     1       3.007  13.952  18.476  0.00  0.00    +0.000 C 
ATOM     14  O   UNL     1       2.047  13.143  17.809  0.00  0.00    +0.000 OA
ENDBRANCH   7  14
BRANCH  10  15
ATOM     15  O   UNL     1       0.081   8.948  20.868  0.00  0.00    +0.000 OA
ATOM     16  C   UNL     1      -0.275   9.326  22.198  0.00  0.00    +0.000 C 
ENDBRANCH  10  15
ENDBRANCH   1  11
BRANCH   3  17
ATOM     17  C   UNL     1       2.090   4.672  19.972  0.00  0.00    +0.000 A 
ATOM     18  C   UNL     1       1.259   3.671  19.446  0.00  0.00    +0.000 A 
ATOM     19  C   UNL     1       0.868   2.580  20.220  0.00  0.00    +0.000 A 
ATOM     20  C   UNL     1       1.370   2.473  21.502  0.00  0.00    +0.000 A 
ATOM     21  N   UNL     1       2.219   3.368  22.041  0.00  0.00    +0.000 NA
ATOM     22  C   UNL     1       2.546   4.439  21.274  0.00  0.00    +0.000 A 
ENDBRANCH   3  17
BRANCH   5  23
ATOM     23  N   UNL     1       4.474   7.185  16.369  0.00  0.00    +0.000 N 
ATOM     24  H   UNL     1       3.983   7.164  15.482  0.00  0.00    +0.000 HD
ATOM     25  H   UNL     1       5.202   6.480  16.433  0.00  0.00    +0.000 HD
ENDBRANCH   5  23
BRANCH   4  26
ATOM     26  C   UNL     1       4.001   4.709  17.635  0.00  0.00    +0.000 C 
ATOM     27  N   UNL     1       4.520   3.781  17.177  0.00  0.00    +0.000 NA
ENDBRANCH   4  26
TORSDOF 6
ENDMDL
MODEL 9
REMARK VINA RESULT:      -6.6      2.926      7.432
REMARK  Name = 
REMARK  8 active torsions:
REMARK  status: ('A' for Active; 'I' for Inactive)
REMARK    1  A    between atoms: C_1  and  O_2
REMARK    2  A    between atoms: O_2  and  C_3
REMARK    3  A    between atoms: C_6  and  O_7
REMARK    4  A    between atoms: O_7  and  C_8
REMARK    5  A    between atoms: C_9  and  C_10
REMARK    6  A    between atoms: C_12  and  C_13
REMARK    7  A    between atoms: C_19  and  C_20
REMARK    8  A    between atoms: C_22  and  N_23
REMARK                            x       y       z     vdW  Elec       q    Type
REMARK                         _______ _______ _______ _____ _____    ______ ____
ROOT
ATOM      1  C   UNL     1       4.789   5.014  16.880  0.00  0.00    +0.000 A 
ATOM      2  C   UNL     1       4.652   4.375  15.651  0.00  0.00    +0.000 A 
ATOM      3  C   UNL     1       5.644   4.487  14.649  0.00  0.00    +0.000 A 
ATOM      4  C   UNL     1       6.749   5.318  14.932  0.00  0.00    +0.000 A 
ATOM      5  C   UNL     1       6.836   5.927  16.183  0.00  0.00    +0.000 A 
ATOM      6  N   UNL     1       5.893   5.770  17.129  0.00  0.00    +0.000 NA
ENDROOT
BRANCH   1  11
ATOM      7  C   UNL     1       2.551   3.602  19.613  0.00  0.00    +0.000 A 
ATOM      8  C   UNL     1       1.884   4.723  20.080  0.00  0.00    +0.000 A 
ATOM      9  C   UNL     1       2.142   5.973  19.524  0.00  0.00    +0.000 A 
ATOM     10  C   UNL     1       3.050   6.124  18.460  0.00  0.00    +0.000 A 
ATOM     11  C   UNL     1       3.779   5.005  17.984  0.00  0.00    +0.000 A 
ATOM     12  C   UNL     1       3.502   3.755  18.604  0.00  0.00    +0.000 A 
BRANCH   7  14
ATOM     13  C   UNL     1       1.614   2.523  21.510  0.00  0.00    +0.000 C 
ATOM     14  O   UNL     1       2.186   2.430  20.212  0.00  0.00    +0.000 OA
ENDBRANCH   7  14
BRANCH  10  15
ATOM     15  O   UNL     1       3.260   7.354  17.884  0.00  0.00    +0.000 OA
ATOM     16  C   UNL     1       2.169   8.273  17.951  0.00  0.00    +0.000 C 
ENDBRANCH  10  15
ENDBRANCH   1  11
BRANCH   3  17
ATOM     17  C   UNL     1       5.467   3.768  13.358  0.00  0.00    +0.000 A 
ATOM     18  C   UNL     1       4.326   3.917  12.554  0.00  0.00    +0.000 A 
ATOM     19  C   UNL     1       4.158   3.162  11.395  0.00  0.00    +0.000 A 
ATOM     20  C   UNL     1       5.173   2.305  11.019  0.00  0.00    +0.000 A 
ATOM     21  N   UNL     1       6.318   2.163  11.715  0.00  0.00    +0.000 NA
ATOM     22  C   UNL     1       6.430   2.884  12.860  0.00  0.00    +0.000 A 
ENDBRANCH   3  17
BRANCH   5  23
ATOM     23  N   UNL     1       7.840   6.835  16.511  0.00  0.00    +0.000 N 
ATOM     24  H   UNL     1       8.097   6.861  17.492  0.00  0.00    +0.000 HD
ATOM     25  H   UNL     1       7.593   7.750  16.144  0.00  0.00    +0.000 HD
ENDBRANCH   5  23
BRANCH   4  26
ATOM     26  C   UNL     1       7.797   5.582  13.984  0.00  0.00    +0.000 C 
ATOM     27  N   UNL     1       8.683   5.803  13.272  0.00  0.00    +0.000 NA
ENDBRANCH   4  26
TORSDOF 6
ENDMDL
