MODEL 1
REMARK VINA RESULT:      -7.5      0.000      0.000
REMARK  Name = 
REMARK  7 active torsions:
REMARK  status: ('A' for Active; 'I' for Inactive)
REMARK    1  A    between atoms: C_2  and  C_3
REMARK    2  A    between atoms: C_3  and  N_4
REMARK    3  A    between atoms: N_4  and  C_5
REMARK    4  A    between atoms: C_5  and  C_6
REMARK    5  A    between atoms: C_8  and  C_9
REMARK    6  A    between atoms: C_17  and  C_19
REMARK    7  A    between atoms: C_23  and  C_24
REMARK                            x       y       z     vdW  Elec       q    Type
REMARK                         _______ _______ _______ _____ _____    ______ ____
ROOT
ATOM      1  N   UNL     1       4.795   4.793  18.706  0.00  0.00    +0.000 N 
ATOM      2  C   UNL     1       4.416   3.571  19.301  0.00  0.00    +0.000 C 
ATOM      3  O   UNL     1       5.228   2.877  19.906  0.00  0.00    +0.000 OA
ENDROOT
BRANCH   2   4
ATOM      4  C   UNL     1       3.022   3.134  19.207  0.00  0.00    +0.000 A 
ATOM      5  C   UNL     1       2.368   2.487  18.122  0.00  0.00    +0.000 A 
ATOM      6  C   UNL     1       1.078   2.231  18.506  0.00  0.00    +0.000 A 
ATOM      7  O   UNL     1       0.836   2.808  19.703  0.00  0.00    +0.000 OA
ATOM      8  C   UNL     1       1.989   3.430  20.091  0.00  0.00    +0.000 A 
ATOM      9  C   UNL     1       1.854   4.260  21.306  0.00  0.00    +0.000 C 
ENDBRANCH   2   4
BRANCH   1  10
ATOM     10  C   UNL     1       6.135   5.296  19.008  0.00  0.00    +0.000 C 
BRANCH  10  12
ATOM     11  C   UNL     1       7.415   6.945  17.576  0.00  0.00    +0.000 C 
ATOM     12  C   UNL     1       6.838   5.749  17.759  0.00  0.00    +0.000 C 
ENDBRANCH  10  12
ENDBRANCH   1  10
BRANCH   1  13
ATOM     13  C   UNL     1       4.062   5.468  17.614  0.00  0.00    +0.000 C 
BRANCH  13  14
ATOM     14  C   UNL     1       3.301   6.685  18.054  0.00  0.00    +0.000 A 
ATOM     15  N   UNL     1       2.505   6.849  19.088  0.00  0.00    +0.000 NA
ATOM     16  C   UNL     1       2.077   8.153  18.970  0.00  0.00    +0.000 A 
ATOM     17  N   UNL     1       2.522   8.752  17.852  0.00  0.00    +0.000 NA
ATOM     18  O   UNL     1       3.332   7.785  17.246  0.00  0.00    +0.000 OA
BRANCH  16  19
ATOM     19  C   UNL     1       1.256   8.797  19.999  0.00  0.00    +0.000 A 
ATOM     20  C   UNL     1       1.290   8.341  21.332  0.00  0.00    +0.000 A 
ATOM     21  C   UNL     1       0.538   8.971  22.334  0.00  0.00    +0.000 A 
ATOM     22  C   UNL     1      -0.275  10.054  22.011  0.00  0.00    +0.000 A 
ATOM     23  C   UNL     1      -0.326  10.513  20.694  0.00  0.00    +0.000 A 
ATOM     24  C   UNL     1       0.431   9.889  19.697  0.00  0.00    +0.000 A 
ENDBRANCH  16  19
ENDBRANCH  13  14
ENDBRANCH   1  13
TORSDOF 6
ENDMDL
MODEL 2
REMARK VINA RESULT:      -7.5      1.693      3.930
REMARK  Name = 
REMARK  7 active torsions:
REMARK  status: ('A' for Active; 'I' for Inactive)
REMARK    1  A    between atoms: C_2  and  C_3
REMARK    2  A    between atoms: C_3  and  N_4
REMARK    3  A    between atoms: N_4  and  C_5
REMARK    4  A    between atoms: C_5  and  C_6
REMARK    5  A    between atoms: C_8  and  C_9
REMARK    6  A    between atoms: C_17  and  C_19
REMARK    7  A    between atoms: C_23  and  C_24
REMARK                            x       y       z     vdW  Elec       q    Type
REMARK                         _______ _______ _______ _____ _____    ______ ____
ROOT
ATOM      1  N   UNL     1       4.094   5.379  18.831  0.00  0.00    +0.000 N 
ATOM      2  C   UNL     1       5.490   5.185  18.772  0.00  0.00    +0.000 C 
ATOM      3  O   UNL     1       6.144   4.940  19.783  0.00  0.00    +0.000 OA
ENDROOT
BRANCH   2   4
ATOM      4  C   UNL     1       6.166   5.260  17.476  0.00  0.00    +0.000 A 
ATOM      5  C   UNL     1       6.234   4.273  16.453  0.00  0.00    +0.000 A 
ATOM      6  C   UNL     1       6.935   4.807  15.405  0.00  0.00    +0.000 A 
ATOM      7  O   UNL     1       7.440   6.008  15.759  0.00  0.00    +0.000 OA
ATOM      8  C   UNL     1       7.046   6.248  17.046  0.00  0.00    +0.000 A 
ATOM      9  C   UNL     1       7.655   7.449  17.656  0.00  0.00    +0.000 C 
ENDBRANCH   2   4
BRANCH   1  10
ATOM     10  C   UNL     1       3.431   5.081  20.102  0.00  0.00    +0.000 C 
BRANCH  10  12
ATOM     11  C   UNL     1       1.181   3.922  20.130  0.00  0.00    +0.000 C 
ATOM     12  C   UNL     1       2.512   3.900  19.970  0.00  0.00    +0.000 C 
ENDBRANCH  10  12
ENDBRANCH   1  10
BRANCH   1  13
ATOM     13  C   UNL     1       3.293   6.096  17.815  0.00  0.00    +0.000 C 
BRANCH  13  14
ATOM     14  C   UNL     1       2.602   7.320  18.341  0.00  0.00    +0.000 A 
ATOM     15  N   UNL     1       1.913   7.486  19.448  0.00  0.00    +0.000 NA
ATOM     16  C   UNL     1       1.501   8.799  19.386  0.00  0.00    +0.000 A 
ATOM     17  N   UNL     1       1.849   9.405  18.237  0.00  0.00    +0.000 NA
ATOM     18  O   UNL     1       2.578   8.430  17.545  0.00  0.00    +0.000 OA
BRANCH  16  19
ATOM     19  C   UNL     1       0.796   9.445  20.497  0.00  0.00    +0.000 A 
ATOM     20  C   UNL     1       0.462   8.716  21.656  0.00  0.00    +0.000 A 
ATOM     21  C   UNL     1      -0.179   9.330  22.740  0.00  0.00    +0.000 A 
ATOM     22  C   UNL     1      -0.516  10.679  22.672  0.00  0.00    +0.000 A 
ATOM     23  C   UNL     1      -0.200  11.413  21.528  0.00  0.00    +0.000 A 
ATOM     24  C   UNL     1       0.448  10.802  20.450  0.00  0.00    +0.000 A 
ENDBRANCH  16  19
ENDBRANCH  13  14
ENDBRANCH   1  13
TORSDOF 6
ENDMDL
MODEL 3
REMARK VINA RESULT:      -7.5      2.977      7.006
REMARK  Name = 
REMARK  7 active torsions:
REMARK  status: ('A' for Active; 'I' for Inactive)
REMARK    1  A    between atoms: C_2  and  C_3
REMARK    2  A    between atoms: C_3  and  N_4
REMARK    3  A    between atoms: N_4  and  C_5
REMARK    4  A    between atoms: C_5  and  C_6
REMARK    5  A    between atoms: C_8  and  C_9
REMARK    6  A    between atoms: C_17  and  C_19
REMARK    7  A    between atoms: C_23  and  C_24
REMARK                            x       y       z     vdW  Elec       q    Type
REMARK                         _______ _______ _______ _____ _____    ______ ____
ROOT
ATOM      1  N   UNL     1       3.588   4.527  19.033  0.00  0.00    +0.000 N 
ATOM      2  C   UNL     1       2.452   5.157  18.479  0.00  0.00    +0.000 C 
ATOM      3  O   UNL     1       1.518   4.502  18.026  0.00  0.00    +0.000 OA
ENDROOT
BRANCH   2   4
ATOM      4  C   UNL     1       2.384   6.619  18.463  0.00  0.00    +0.000 A 
ATOM      5  C   UNL     1       2.865   7.517  17.470  0.00  0.00    +0.000 A 
ATOM      6  C   UNL     1       2.537   8.787  17.863  0.00  0.00    +0.000 A 
ATOM      7  O   UNL     1       2.016   8.758  19.108  0.00  0.00    +0.000 OA
ATOM      8  C   UNL     1       2.001   7.452  19.509  0.00  0.00    +0.000 A 
ATOM      9  C   UNL     1       1.616   7.252  20.922  0.00  0.00    +0.000 C 
ENDBRANCH   2   4
BRANCH   1  10
ATOM     10  C   UNL     1       3.521   3.079  19.227  0.00  0.00    +0.000 C 
BRANCH  10  12
ATOM     11  C   UNL     1       2.207   2.864  21.381  0.00  0.00    +0.000 C 
ATOM     12  C   UNL     1       3.342   2.735  20.680  0.00  0.00    +0.000 C 
ENDBRANCH  10  12
ENDBRANCH   1  10
BRANCH   1  13
ATOM     13  C   UNL     1       4.916   5.158  19.188  0.00  0.00    +0.000 C 
BRANCH  13  14
ATOM     14  C   UNL     1       5.671   5.307  17.899  0.00  0.00    +0.000 A 
ATOM     15  N   UNL     1       5.589   4.604  16.791  0.00  0.00    +0.000 NA
ATOM     16  C   UNL     1       6.531   5.178  15.966  0.00  0.00    +0.000 A 
ATOM     17  N   UNL     1       7.235   6.151  16.570  0.00  0.00    +0.000 NA
ATOM     18  O   UNL     1       6.668   6.239  17.847  0.00  0.00    +0.000 OA
BRANCH  16  19
ATOM     19  C   UNL     1       6.688   4.772  14.566  0.00  0.00    +0.000 A 
ATOM     20  C   UNL     1       5.850   3.787  14.007  0.00  0.00    +0.000 A 
ATOM     21  C   UNL     1       5.964   3.415  12.661  0.00  0.00    +0.000 A 
ATOM     22  C   UNL     1       6.936   4.009  11.859  0.00  0.00    +0.000 A 
ATOM     23  C   UNL     1       7.778   4.981  12.400  0.00  0.00    +0.000 A 
ATOM     24  C   UNL     1       7.657   5.358  13.741  0.00  0.00    +0.000 A 
ENDBRANCH  16  19
ENDBRANCH  13  14
ENDBRANCH   1  13
TORSDOF 6
ENDMDL
MODEL 4
REMARK VINA RESULT:      -7.5      2.871      7.095
REMARK  Name = 
REMARK  7 active torsions:
REMARK  status: ('A' for Active; 'I' for Inactive)
REMARK    1  A    between atoms: C_2  and  C_3
REMARK    2  A    between atoms: C_3  and  N_4
REMARK    3  A    between atoms: N_4  and  C_5
REMARK    4  A    between atoms: C_5  and  C_6
REMARK    5  A    between atoms: C_8  and  C_9
REMARK    6  A    between atoms: C_17  and  C_19
REMARK    7  A    between atoms: C_23  and  C_24
REMARK                            x       y       z     vdW  Elec       q    Type
REMARK                         _______ _______ _______ _____ _____    ______ ____
ROOT
ATOM      1  N   UNL     1       3.333   4.193  18.995  0.00  0.00    +0.000 N 
ATOM      2  C   UNL     1       2.356   4.952  18.316  0.00  0.00    +0.000 C 
ATOM      3  O   UNL     1       1.401   4.414  17.763  0.00  0.00    +0.000 OA
ENDROOT
BRANCH   2   4
ATOM      4  C   UNL     1       2.479   6.411  18.288  0.00  0.00    +0.000 A 
ATOM      5  C   UNL     1       3.107   7.228  17.307  0.00  0.00    +0.000 A 
ATOM      6  C   UNL     1       2.934   8.534  17.680  0.00  0.00    +0.000 A 
ATOM      7  O   UNL     1       2.369   8.587  18.906  0.00  0.00    +0.000 OA
ATOM      8  C   UNL     1       2.171   7.298  19.314  0.00  0.00    +0.000 A 
ATOM      9  C   UNL     1       1.714   7.166  20.713  0.00  0.00    +0.000 C 
ENDBRANCH   2   4
BRANCH   1  10
ATOM     10  C   UNL     1       3.059   2.768  19.185  0.00  0.00    +0.000 C 
BRANCH  10  12
ATOM     11  C   UNL     1       2.056   2.849  21.508  0.00  0.00    +0.000 C 
ATOM     12  C   UNL     1       2.989   2.420  20.646  0.00  0.00    +0.000 C 
ENDBRANCH  10  12
ENDBRANCH   1  10
BRANCH   1  13
ATOM     13  C   UNL     1       4.707   4.652  19.295  0.00  0.00    +0.000 C 
BRANCH  13  14
ATOM     14  C   UNL     1       5.627   4.628  18.109  0.00  0.00    +0.000 A 
ATOM     15  N   UNL     1       5.354   4.432  16.838  0.00  0.00    +0.000 NA
ATOM     16  C   UNL     1       6.586   4.496  16.224  0.00  0.00    +0.000 A 
ATOM     17  N   UNL     1       7.600   4.640  17.095  0.00  0.00    +0.000 NA
ATOM     18  O   UNL     1       6.969   4.730  18.341  0.00  0.00    +0.000 OA
BRANCH  16  19
ATOM     19  C   UNL     1       6.730   4.451  14.766  0.00  0.00    +0.000 A 
ATOM     20  C   UNL     1       7.670   5.271  14.112  0.00  0.00    +0.000 A 
ATOM     21  C   UNL     1       7.844   5.211  12.723  0.00  0.00    +0.000 A 
ATOM     22  C   UNL     1       7.062   4.344  11.964  0.00  0.00    +0.000 A 
ATOM     23  C   UNL     1       6.120   3.530  12.596  0.00  0.00    +0.000 A 
ATOM     24  C   UNL     1       5.954   3.584  13.983  0.00  0.00    +0.000 A 
ENDBRANCH  16  19
ENDBRANCH  13  14
ENDBRANCH   1  13
TORSDOF 6
ENDMDL
MODEL 5
REMARK VINA RESULT:      -7.5      1.447      4.018
REMARK  Name = 
REMARK  7 active torsions:
REMARK  status: ('A' for Active; 'I' for Inactive)
REMARK    1  A    between atoms: C_2  and  C_3
REMARK    2  A    between atoms: C_3  and  N_4
REMARK    3  A    between atoms: N_4  and  C_5
REMARK    4  A    between atoms: C_5  and  C_6
REMARK    5  A    between atoms: C_8  and  C_9
REMARK    6  A    between atoms: C_17  and  C_19
REMARK    7  A    between atoms: C_23  and  C_24
REMARK                            x       y       z     vdW  Elec       q    Type
REMARK                         _______ _______ _______ _____ _____    ______ ____
ROOT
ATOM      1  N   UNL     1       4.109   4.548  18.538  0.00  0.00    +0.000 N 
ATOM      2  C   UNL     1       5.518   4.557  18.451  0.00  0.00    +0.000 C 
ATOM      3  O   UNL     1       6.218   4.265  19.416  0.00  0.00    +0.000 OA
ENDROOT
BRANCH   2   4
ATOM      4  C   UNL     1       6.151   4.907  17.178  0.00  0.00    +0.000 A 
ATOM      5  C   UNL     1       6.218   4.139  15.982  0.00  0.00    +0.000 A 
ATOM      6  C   UNL     1       6.870   4.891  15.041  0.00  0.00    +0.000 A 
ATOM      7  O   UNL     1       7.349   6.019  15.610  0.00  0.00    +0.000 OA
ATOM      8  C   UNL     1       6.987   5.990  16.927  0.00  0.00    +0.000 A 
ATOM      9  C   UNL     1       7.576   7.072  17.745  0.00  0.00    +0.000 C 
ENDBRANCH   2   4
BRANCH   1  10
ATOM     10  C   UNL     1       3.518   3.986  19.753  0.00  0.00    +0.000 C 
BRANCH  10  12
ATOM     11  C   UNL     1       1.116   3.281  20.129  0.00  0.00    +0.000 C 
ATOM     12  C   UNL     1       2.265   3.218  19.441  0.00  0.00    +0.000 C 
ENDBRANCH  10  12
ENDBRANCH   1  10
BRANCH   1  13
ATOM     13  C   UNL     1       3.199   5.285  17.635  0.00  0.00    +0.000 C 
BRANCH  13  14
ATOM     14  C   UNL     1       2.748   6.611  18.176  0.00  0.00    +0.000 A 
ATOM     15  N   UNL     1       1.919   6.878  19.161  0.00  0.00    +0.000 NA
ATOM     16  C   UNL     1       1.871   8.254  19.186  0.00  0.00    +0.000 A 
ATOM     17  N   UNL     1       2.579   8.823  18.195  0.00  0.00    +0.000 NA
ATOM     18  O   UNL     1       3.161   7.739  17.527  0.00  0.00    +0.000 OA
BRANCH  16  19
ATOM     19  C   UNL     1       1.147   8.987  20.229  0.00  0.00    +0.000 A 
ATOM     20  C   UNL     1       0.308  10.069  19.895  0.00  0.00    +0.000 A 
ATOM     21  C   UNL     1      -0.419  10.754  20.877  0.00  0.00    +0.000 A 
ATOM     22  C   UNL     1      -0.300  10.380  22.213  0.00  0.00    +0.000 A 
ATOM     23  C   UNL     1       0.532   9.315  22.562  0.00  0.00    +0.000 A 
ATOM     24  C   UNL     1       1.250   8.627  21.579  0.00  0.00    +0.000 A 
ENDBRANCH  16  19
ENDBRANCH  13  14
ENDBRANCH   1  13
TORSDOF 6
ENDMDL
MODEL 6
REMARK VINA RESULT:      -7.5      0.836      1.479
REMARK  Name = 
REMARK  7 active torsions:
REMARK  status: ('A' for Active; 'I' for Inactive)
REMARK    1  A    between atoms: C_2  and  C_3
REMARK    2  A    between atoms: C_3  and  N_4
REMARK    3  A    between atoms: N_4  and  C_5
REMARK    4  A    between atoms: C_5  and  C_6
REMARK    5  A    between atoms: C_8  and  C_9
REMARK    6  A    between atoms: C_17  and  C_19
REMARK    7  A    between atoms: C_23  and  C_24
REMARK                            x       y       z     vdW  Elec       q    Type
REMARK                         _______ _______ _______ _____ _____    ______ ____
ROOT
ATOM      1  N   UNL     1       4.607   5.504  18.445  0.00  0.00    +0.000 N 
ATOM      2  C   UNL     1       4.407   4.360  19.246  0.00  0.00    +0.000 C 
ATOM      3  O   UNL     1       5.355   3.715  19.685  0.00  0.00    +0.000 OA
ENDROOT
BRANCH   2   4
ATOM      4  C   UNL     1       3.040   3.948  19.572  0.00  0.00    +0.000 A 
ATOM      5  C   UNL     1       2.301   4.194  20.763  0.00  0.00    +0.000 A 
ATOM      6  C   UNL     1       1.052   3.658  20.596  0.00  0.00    +0.000 A 
ATOM      7  O   UNL     1       1.006   2.960  19.440  0.00  0.00    +0.000 OA
ATOM      8  C   UNL     1       2.238   3.064  18.858  0.00  0.00    +0.000 A 
ATOM      9  C   UNL     1       2.420   2.216  17.661  0.00  0.00    +0.000 C 
ENDBRANCH   2   4
BRANCH   1  10
ATOM     10  C   UNL     1       5.977   6.004  18.324  0.00  0.00    +0.000 C 
BRANCH  10  12
ATOM     11  C   UNL     1       7.118   4.626  16.534  0.00  0.00    +0.000 C 
ATOM     12  C   UNL     1       6.526   5.756  16.947  0.00  0.00    +0.000 C 
ENDBRANCH  10  12
ENDBRANCH   1  10
BRANCH   1  13
ATOM     13  C   UNL     1       3.606   6.077  17.519  0.00  0.00    +0.000 C 
BRANCH  13  14
ATOM     14  C   UNL     1       2.853   7.245  18.086  0.00  0.00    +0.000 A 
ATOM     15  N   UNL     1       2.194   7.349  19.218  0.00  0.00    +0.000 NA
ATOM     16  C   UNL     1       1.693   8.633  19.191  0.00  0.00    +0.000 A 
ATOM     17  N   UNL     1       1.960   9.275  18.040  0.00  0.00    +0.000 NA
ATOM     18  O   UNL     1       2.728   8.361  17.309  0.00  0.00    +0.000 OA
BRANCH  16  19
ATOM     19  C   UNL     1       0.985   9.215  20.334  0.00  0.00    +0.000 A 
ATOM     20  C   UNL     1       1.182   8.707  21.634  0.00  0.00    +0.000 A 
ATOM     21  C   UNL     1       0.540   9.277  22.741  0.00  0.00    +0.000 A 
ATOM     22  C   UNL     1      -0.327  10.352  22.561  0.00  0.00    +0.000 A 
ATOM     23  C   UNL     1      -0.539  10.861  21.279  0.00  0.00    +0.000 A 
ATOM     24  C   UNL     1       0.109  10.297  20.176  0.00  0.00    +0.000 A 
ENDBRANCH  16  19
ENDBRANCH  13  14
ENDBRANCH   1  13
TORSDOF 6
ENDMDL
MODEL 7
REMARK VINA RESULT:      -7.3      4.138      7.225
REMARK  Name = 
REMARK  7 active torsions:
REMARK  status: ('A' for Active; 'I' for Inactive)
REMARK    1  A    between atoms: C_2  and  C_3
REMARK    2  A    between atoms: C_3  and  N_4
REMARK    3  A    between atoms: N_4  and  C_5
REMARK    4  A    between atoms: C_5  and  C_6
REMARK    5  A    between atoms: C_8  and  C_9
REMARK    6  A    between atoms: C_17  and  C_19
REMARK    7  A    between atoms: C_23  and  C_24
REMARK                            x       y       z     vdW  Elec       q    Type
REMARK                         _______ _______ _______ _____ _____    ______ ____
ROOT
ATOM      1  N   UNL     1       6.156   6.106  17.911  0.00  0.00    +0.000 N 
ATOM      2  C   UNL     1       5.615   5.010  18.617  0.00  0.00    +0.000 C 
ATOM      3  O   UNL     1       6.262   4.424  19.481  0.00  0.00    +0.000 OA
ENDROOT
BRANCH   2   4
ATOM      4  C   UNL     1       4.248   4.577  18.321  0.00  0.00    +0.000 A 
ATOM      5  C   UNL     1       3.819   3.491  17.507  0.00  0.00    +0.000 A 
ATOM      6  C   UNL     1       2.451   3.444  17.562  0.00  0.00    +0.000 A 
ATOM      7  O   UNL     1       1.985   4.519  18.235  0.00  0.00    +0.000 OA
ATOM      8  C   UNL     1       3.070   5.253  18.623  0.00  0.00    +0.000 A 
ATOM      9  C   UNL     1       2.737   6.559  19.229  0.00  0.00    +0.000 C 
ENDBRANCH   2   4
BRANCH   1  10
ATOM     10  C   UNL     1       7.433   6.640  18.386  0.00  0.00    +0.000 C 
BRANCH  10  12
ATOM     11  C   UNL     1       8.481   8.943  18.326  0.00  0.00    +0.000 C 
ATOM     12  C   UNL     1       7.714   7.988  17.782  0.00  0.00    +0.000 C 
ENDBRANCH  10  12
ENDBRANCH   1  10
BRANCH   1  13
ATOM     13  C   UNL     1       5.682   6.586  16.596  0.00  0.00    +0.000 C 
BRANCH  13  14
ATOM     14  C   UNL     1       6.158   5.756  15.439  0.00  0.00    +0.000 A 
ATOM     15  N   UNL     1       5.503   4.883  14.706  0.00  0.00    +0.000 NA
ATOM     16  C   UNL     1       6.450   4.422  13.818  0.00  0.00    +0.000 A 
ATOM     17  N   UNL     1       7.674   4.929  14.047  0.00  0.00    +0.000 NA
ATOM     18  O   UNL     1       7.483   5.812  15.116  0.00  0.00    +0.000 OA
BRANCH  16  19
ATOM     19  C   UNL     1       6.109   3.508  12.724  0.00  0.00    +0.000 A 
ATOM     20  C   UNL     1       7.095   2.686  12.143  0.00  0.00    +0.000 A 
ATOM     21  C   UNL     1       6.776   1.781  11.122  0.00  0.00    +0.000 A 
ATOM     22  C   UNL     1       5.468   1.702  10.651  0.00  0.00    +0.000 A 
ATOM     23  C   UNL     1       4.481   2.516  11.210  0.00  0.00    +0.000 A 
ATOM     24  C   UNL     1       4.799   3.411  12.235  0.00  0.00    +0.000 A 
ENDBRANCH  16  19
ENDBRANCH  13  14
ENDBRANCH   1  13
TORSDOF 6
ENDMDL
MODEL 8
REMARK VINA RESULT:      -7.3      2.716      4.870
REMARK  Name = 
REMARK  7 active torsions:
REMARK  status: ('A' for Active; 'I' for Inactive)
REMARK    1  A    between atoms: C_2  and  C_3
REMARK    2  A    between atoms: C_3  and  N_4
REMARK    3  A    between atoms: N_4  and  C_5
REMARK    4  A    between atoms: C_5  and  C_6
REMARK    5  A    between atoms: C_8  and  C_9
REMARK    6  A    between atoms: C_17  and  C_19
REMARK    7  A    between atoms: C_23  and  C_24
REMARK                            x       y       z     vdW  Elec       q    Type
REMARK                         _______ _______ _______ _____ _____    ______ ____
ROOT
ATOM      1  N   UNL     1       5.704   4.668  15.649  0.00  0.00    +0.000 N 
ATOM      2  C   UNL     1       6.963   5.276  15.837  0.00  0.00    +0.000 C 
ATOM      3  O   UNL     1       7.676   5.576  14.883  0.00  0.00    +0.000 OA
ENDROOT
BRANCH   2   4
ATOM      4  C   UNL     1       7.417   5.570  17.198  0.00  0.00    +0.000 A 
ATOM      5  C   UNL     1       7.611   4.667  18.280  0.00  0.00    +0.000 A 
ATOM      6  C   UNL     1       8.087   5.388  19.343  0.00  0.00    +0.000 A 
ATOM      7  O   UNL     1       8.063   6.706  19.047  0.00  0.00    +0.000 OA
ATOM      8  C   UNL     1       7.576   6.825  17.776  0.00  0.00    +0.000 A 
ATOM      9  C   UNL     1       7.321   8.216  17.349  0.00  0.00    +0.000 C 
ENDBRANCH   2   4
BRANCH   1  10
ATOM     10  C   UNL     1       5.196   4.592  14.279  0.00  0.00    +0.000 C 
BRANCH  10  12
ATOM     11  C   UNL     1       5.780   3.315  12.173  0.00  0.00    +0.000 C 
ATOM     12  C   UNL     1       6.034   3.667  13.441  0.00  0.00    +0.000 C 
ENDBRANCH  10  12
ENDBRANCH   1  10
BRANCH   1  13
ATOM     13  C   UNL     1       4.982   3.878  16.670  0.00  0.00    +0.000 C 
BRANCH  13  14
ATOM     14  C   UNL     1       4.023   4.686  17.496  0.00  0.00    +0.000 A 
ATOM     15  N   UNL     1       3.852   5.988  17.551  0.00  0.00    +0.000 NA
ATOM     16  C   UNL     1       2.860   6.151  18.493  0.00  0.00    +0.000 A 
ATOM     17  N   UNL     1       2.488   4.994  19.067  0.00  0.00    +0.000 NA
ATOM     18  O   UNL     1       3.253   4.024  18.409  0.00  0.00    +0.000 OA
BRANCH  16  19
ATOM     19  C   UNL     1       2.269   7.461  18.779  0.00  0.00    +0.000 A 
ATOM     20  C   UNL     1       2.193   8.448  17.777  0.00  0.00    +0.000 A 
ATOM     21  C   UNL     1       1.597   9.692  18.027  0.00  0.00    +0.000 A 
ATOM     22  C   UNL     1       1.087   9.974  19.292  0.00  0.00    +0.000 A 
ATOM     23  C   UNL     1       1.162   9.009  20.297  0.00  0.00    +0.000 A 
ATOM     24  C   UNL     1       1.749   7.766  20.045  0.00  0.00    +0.000 A 
ENDBRANCH  16  19
ENDBRANCH  13  14
ENDBRANCH   1  13
TORSDOF 6
ENDMDL
MODEL 9
REMARK VINA RESULT:      -7.3      1.487      2.229
REMARK  Name = 
REMARK  7 active torsions:
REMARK  status: ('A' for Active; 'I' for Inactive)
REMARK    1  A    between atoms: C_2  and  C_3
REMARK    2  A    between atoms: C_3  and  N_4
REMARK    3  A    between atoms: N_4  and  C_5
REMARK    4  A    between atoms: C_5  and  C_6
REMARK    5  A    between atoms: C_8  and  C_9
REMARK    6  A    between atoms: C_17  and  C_19
REMARK    7  A    between atoms: C_23  and  C_24
REMARK                            x       y       z     vdW  Elec       q    Type
REMARK                         _______ _______ _______ _____ _____    ______ ____
ROOT
ATOM      1  N   UNL     1       3.725   4.254  17.821  0.00  0.00    +0.000 N 
ATOM      2  C   UNL     1       2.684   3.366  18.166  0.00  0.00    +0.000 C 
ATOM      3  O   UNL     1       2.034   2.780  17.305  0.00  0.00    +0.000 OA
ENDROOT
BRANCH   2   4
ATOM      4  C   UNL     1       2.388   3.129  19.580  0.00  0.00    +0.000 A 
ATOM      5  C   UNL     1       1.290   3.608  20.348  0.00  0.00    +0.000 A 
ATOM      6  C   UNL     1       1.408   3.092  21.611  0.00  0.00    +0.000 A 
ATOM      7  O   UNL     1       2.586   2.442  21.729  0.00  0.00    +0.000 OA
ATOM      8  C   UNL     1       3.222   2.537  20.523  0.00  0.00    +0.000 A 
ATOM      9  C   UNL     1       4.608   2.024  20.523  0.00  0.00    +0.000 C 
ENDBRANCH   2   4
BRANCH   1  10
ATOM     10  C   UNL     1       4.130   4.295  16.416  0.00  0.00    +0.000 C 
BRANCH  10  12
ATOM     11  C   UNL     1       6.606   4.337  15.890  0.00  0.00    +0.000 C 
ATOM     12  C   UNL     1       5.473   4.952  16.258  0.00  0.00    +0.000 C 
ENDBRANCH  10  12
ENDBRANCH   1  10
BRANCH   1  13
ATOM     13  C   UNL     1       4.257   5.319  18.698  0.00  0.00    +0.000 C 
BRANCH  13  14
ATOM     14  C   UNL     1       3.338   6.497  18.846  0.00  0.00    +0.000 A 
ATOM     15  N   UNL     1       2.616   6.875  19.879  0.00  0.00    +0.000 NA
ATOM     16  C   UNL     1       1.962   8.001  19.428  0.00  0.00    +0.000 A 
ATOM     17  N   UNL     1       2.202   8.264  18.132  0.00  0.00    +0.000 NA
ATOM     18  O   UNL     1       3.112   7.273  17.746  0.00  0.00    +0.000 OA
BRANCH  16  19
ATOM     19  C   UNL     1       1.133   8.823  20.314  0.00  0.00    +0.000 A 
ATOM     20  C   UNL     1       0.331   9.857  19.791  0.00  0.00    +0.000 A 
ATOM     21  C   UNL     1      -0.495  10.626  20.621  0.00  0.00    +0.000 A 
ATOM     22  C   UNL     1      -0.513  10.387  21.993  0.00  0.00    +0.000 A 
ATOM     23  C   UNL     1       0.281   9.371  22.528  0.00  0.00    +0.000 A 
ATOM     24  C   UNL     1       1.097   8.598  21.697  0.00  0.00    +0.000 A 
ENDBRANCH  16  19
ENDBRANCH  13  14
ENDBRANCH   1  13
TORSDOF 6
ENDMDL
