MODEL 1
REMARK VINA RESULT:      -6.7      0.000      0.000
REMARK  Name = 
REMARK  2 active torsions:
REMARK  status: ('A' for Active; 'I' for Inactive)
REMARK    1  A    between atoms: C_1  and  C_2
REMARK    2  A    between atoms: C_2  and  C_4
REMARK                            x       y       z     vdW  Elec       q    Type
REMARK                         _______ _______ _______ _____ _____    ______ ____
ROOT
ATOM      1  C   UNL     1       4.417   4.044  18.176  0.00  0.00    +0.000 A 
ATOM      2  C   UNL     1       4.096   4.795  17.035  0.00  0.00    +0.000 A 
ATOM      3  C   UNL     1       4.890   5.882  16.651  0.00  0.00    +0.000 A 
ATOM      4  C   UNL     1       6.014   6.237  17.399  0.00  0.00    +0.000 A 
ATOM      5  N   UNL     1       6.785   7.338  16.993  0.00  0.00    +0.000 NA
ATOM      6  C   UNL     1       7.816   7.640  17.706  0.00  0.00    +0.000 A 
ATOM      7  N   UNL     1       8.203   6.956  18.824  0.00  0.00    +0.000 N 
ATOM      8  C   UNL     1       7.519   5.868  19.302  0.00  0.00    +0.000 A 
ATOM      9  O   UNL     1       7.872   5.262  20.305  0.00  0.00    +0.000 OA
ATOM     10  C   UNL     1       6.328   5.477  18.529  0.00  0.00    +0.000 A 
ATOM     11  C   UNL     1       5.545   4.385  18.925  0.00  0.00    +0.000 A 
ATOM     12  H   UNL     1       9.020   7.238  19.344  0.00  0.00    +0.000 HD
ENDROOT
BRANCH   1  14
ATOM     13  C   UNL     1       2.226   2.722  17.827  0.00  0.00    +0.000 C 
ATOM     14  C   UNL     1       3.530   2.906  18.559  0.00  0.00    +0.000 C 
ATOM     15  O   UNL     1       3.873   2.139  19.455  0.00  0.00    +0.000 OA
ENDBRANCH   1  14
TORSDOF 1
ENDMDL
MODEL 2
REMARK VINA RESULT:      -6.7      3.076      4.811
REMARK  Name = 
REMARK  2 active torsions:
REMARK  status: ('A' for Active; 'I' for Inactive)
REMARK    1  A    between atoms: C_1  and  C_2
REMARK    2  A    between atoms: C_2  and  C_4
REMARK                            x       y       z     vdW  Elec       q    Type
REMARK                         _______ _______ _______ _____ _____    ______ ____
ROOT
ATOM      1  C   UNL     1       5.505   5.036  15.796  0.00  0.00    +0.000 A 
ATOM      2  C   UNL     1       5.232   6.351  16.201  0.00  0.00    +0.000 A 
ATOM      3  C   UNL     1       4.284   6.608  17.199  0.00  0.00    +0.000 A 
ATOM      4  C   UNL     1       3.595   5.557  17.807  0.00  0.00    +0.000 A 
ATOM      5  N   UNL     1       2.643   5.848  18.798  0.00  0.00    +0.000 NA
ATOM      6  C   UNL     1       2.023   4.855  19.338  0.00  0.00    +0.000 A 
ATOM      7  N   UNL     1       2.236   3.547  19.009  0.00  0.00    +0.000 N 
ATOM      8  C   UNL     1       3.141   3.159  18.056  0.00  0.00    +0.000 A 
ATOM      9  O   UNL     1       3.325   1.984  17.766  0.00  0.00    +0.000 OA
ATOM     10  C   UNL     1       3.880   4.251  17.400  0.00  0.00    +0.000 A 
ATOM     11  C   UNL     1       4.827   3.978  16.405  0.00  0.00    +0.000 A 
ATOM     12  H   UNL     1       1.720   2.809  19.466  0.00  0.00    +0.000 HD
ENDROOT
BRANCH   1  14
ATOM     13  C   UNL     1       6.152   3.897  13.571  0.00  0.00    +0.000 C 
ATOM     14  C   UNL     1       6.508   4.812  14.713  0.00  0.00    +0.000 C 
ATOM     15  O   UNL     1       7.599   5.375  14.766  0.00  0.00    +0.000 OA
ENDBRANCH   1  14
TORSDOF 1
ENDMDL
MODEL 3
REMARK VINA RESULT:      -6.6      3.079      5.131
REMARK  Name = 
REMARK  2 active torsions:
REMARK  status: ('A' for Active; 'I' for Inactive)
REMARK    1  A    between atoms: C_1  and  C_2
REMARK    2  A    between atoms: C_2  and  C_4
REMARK                            x       y       z     vdW  Elec       q    Type
REMARK                         _______ _______ _______ _____ _____    ______ ____
ROOT
ATOM      1  C   UNL     1       5.438   4.879  18.623  0.00  0.00    +0.000 A 
ATOM      2  C   UNL     1       5.226   4.315  17.356  0.00  0.00    +0.000 A 
ATOM      3  C   UNL     1       4.032   3.646  17.064  0.00  0.00    +0.000 A 
ATOM      4  C   UNL     1       3.032   3.530  18.031  0.00  0.00    +0.000 A 
ATOM      5  N   UNL     1       1.848   2.845  17.710  0.00  0.00    +0.000 NA
ATOM      6  C   UNL     1       0.945   2.754  18.626  0.00  0.00    +0.000 A 
ATOM      7  N   UNL     1       1.068   3.283  19.880  0.00  0.00    +0.000 N 
ATOM      8  C   UNL     1       2.181   3.968  20.291  0.00  0.00    +0.000 A 
ATOM      9  O   UNL     1       2.284   4.438  21.416  0.00  0.00    +0.000 OA
ATOM     10  C   UNL     1       3.251   4.102  19.287  0.00  0.00    +0.000 A 
ATOM     11  C   UNL     1       4.439   4.776  19.593  0.00  0.00    +0.000 A 
ATOM     12  H   UNL     1       0.327   3.181  20.558  0.00  0.00    +0.000 HD
ENDROOT
BRANCH   1  14
ATOM     13  C   UNL     1       7.339   6.434  17.823  0.00  0.00    +0.000 C 
ATOM     14  C   UNL     1       6.736   5.565  18.895  0.00  0.00    +0.000 C 
ATOM     15  O   UNL     1       7.289   5.416  19.983  0.00  0.00    +0.000 OA
ENDBRANCH   1  14
TORSDOF 1
ENDMDL
MODEL 4
REMARK VINA RESULT:      -6.6      3.120      4.806
REMARK  Name = 
REMARK  2 active torsions:
REMARK  status: ('A' for Active; 'I' for Inactive)
REMARK    1  A    between atoms: C_1  and  C_2
REMARK    2  A    between atoms: C_2  and  C_4
REMARK                            x       y       z     vdW  Elec       q    Type
REMARK                         _______ _______ _______ _____ _____    ______ ____
ROOT
ATOM      1  C   UNL     1       6.067   4.915  15.846  0.00  0.00    +0.000 A 
ATOM      2  C   UNL     1       6.684   5.684  16.845  0.00  0.00    +0.000 A 
ATOM      3  C   UNL     1       6.070   5.860  18.090  0.00  0.00    +0.000 A 
ATOM      4  C   UNL     1       4.833   5.273  18.358  0.00  0.00    +0.000 A 
ATOM      5  N   UNL     1       4.238   5.475  19.615  0.00  0.00    +0.000 NA
ATOM      6  C   UNL     1       3.094   4.920  19.829  0.00  0.00    +0.000 A 
ATOM      7  N   UNL     1       2.431   4.150  18.917  0.00  0.00    +0.000 N 
ATOM      8  C   UNL     1       2.926   3.892  17.664  0.00  0.00    +0.000 A 
ATOM      9  O   UNL     1       2.325   3.202  16.852  0.00  0.00    +0.000 OA
ATOM     10  C   UNL     1       4.231   4.503  17.358  0.00  0.00    +0.000 A 
ATOM     11  C   UNL     1       4.833   4.316  16.109  0.00  0.00    +0.000 A 
ATOM     12  H   UNL     1       1.537   3.739  19.140  0.00  0.00    +0.000 HD
ENDROOT
BRANCH   1  14
ATOM     13  C   UNL     1       6.176   3.820  13.510  0.00  0.00    +0.000 C 
ATOM     14  C   UNL     1       6.749   4.773  14.526  0.00  0.00    +0.000 C 
ATOM     15  O   UNL     1       7.757   5.433  14.285  0.00  0.00    +0.000 OA
ENDBRANCH   1  14
TORSDOF 1
ENDMDL
MODEL 5
REMARK VINA RESULT:      -6.6      2.623      3.204
REMARK  Name = 
REMARK  2 active torsions:
REMARK  status: ('A' for Active; 'I' for Inactive)
REMARK    1  A    between atoms: C_1  and  C_2
REMARK    2  A    between atoms: C_2  and  C_4
REMARK                            x       y       z     vdW  Elec       q    Type
REMARK                         _______ _______ _______ _____ _____    ______ ____
ROOT
ATOM      1  C   UNL     1       2.921   3.909  18.162  0.00  0.00    +0.000 A 
ATOM      2  C   UNL     1       3.429   4.185  19.441  0.00  0.00    +0.000 A 
ATOM      3  C   UNL     1       4.791   4.451  19.625  0.00  0.00    +0.000 A 
ATOM      4  C   UNL     1       5.666   4.447  18.538  0.00  0.00    +0.000 A 
ATOM      5  N   UNL     1       7.028   4.710  18.756  0.00  0.00    +0.000 NA
ATOM      6  C   UNL     1       7.809   4.696  17.731  0.00  0.00    +0.000 A 
ATOM      7  N   UNL     1       7.395   4.447  16.453  0.00  0.00    +0.000 N 
ATOM      8  C   UNL     1       6.089   4.180  16.135  0.00  0.00    +0.000 A 
ATOM      9  O   UNL     1       5.726   3.957  14.988  0.00  0.00    +0.000 OA
ATOM     10  C   UNL     1       5.147   4.178  17.268  0.00  0.00    +0.000 A 
ATOM     11  C   UNL     1       3.787   3.912  17.067  0.00  0.00    +0.000 A 
ATOM     12  H   UNL     1       8.053   4.450  15.687  0.00  0.00    +0.000 HD
ENDROOT
BRANCH   1  14
ATOM     13  C   UNL     1       0.838   2.592  18.934  0.00  0.00    +0.000 C 
ATOM     14  C   UNL     1       1.466   3.609  18.017  0.00  0.00    +0.000 C 
ATOM     15  O   UNL     1       0.804   4.195  17.163  0.00  0.00    +0.000 OA
ENDBRANCH   1  14
TORSDOF 1
ENDMDL
MODEL 6
REMARK VINA RESULT:      -6.5      3.090      5.031
REMARK  Name = 
REMARK  2 active torsions:
REMARK  status: ('A' for Active; 'I' for Inactive)
REMARK    1  A    between atoms: C_1  and  C_2
REMARK    2  A    between atoms: C_2  and  C_4
REMARK                            x       y       z     vdW  Elec       q    Type
REMARK                         _______ _______ _______ _____ _____    ______ ____
ROOT
ATOM      1  C   UNL     1       5.746   4.344  17.978  0.00  0.00    +0.000 A 
ATOM      2  C   UNL     1       5.007   4.519  16.798  0.00  0.00    +0.000 A 
ATOM      3  C   UNL     1       3.675   4.093  16.722  0.00  0.00    +0.000 A 
ATOM      4  C   UNL     1       3.062   3.486  17.819  0.00  0.00    +0.000 A 
ATOM      5  N   UNL     1       1.728   3.061  17.709  0.00  0.00    +0.000 NA
ATOM      6  C   UNL     1       1.193   2.503  18.739  0.00  0.00    +0.000 A 
ATOM      7  N   UNL     1       1.838   2.303  19.926  0.00  0.00    +0.000 N 
ATOM      8  C   UNL     1       3.139   2.681  20.136  0.00  0.00    +0.000 A 
ATOM      9  O   UNL     1       3.711   2.497  21.203  0.00  0.00    +0.000 OA
ATOM     10  C   UNL     1       3.807   3.323  18.991  0.00  0.00    +0.000 A 
ATOM     11  C   UNL     1       5.139   3.746  19.084  0.00  0.00    +0.000 A 
ATOM     12  H   UNL     1       1.368   1.860  20.702  0.00  0.00    +0.000 HD
ENDROOT
BRANCH   1  14
ATOM     13  C   UNL     1       7.603   5.767  19.071  0.00  0.00    +0.000 C 
ATOM     14  C   UNL     1       7.169   4.794  18.006  0.00  0.00    +0.000 C 
ATOM     15  O   UNL     1       7.962   4.365  17.171  0.00  0.00    +0.000 OA
ENDBRANCH   1  14
TORSDOF 1
ENDMDL
MODEL 7
REMARK VINA RESULT:      -6.5      3.529      5.369
REMARK  Name = 
REMARK  2 active torsions:
REMARK  status: ('A' for Active; 'I' for Inactive)
REMARK    1  A    between atoms: C_1  and  C_2
REMARK    2  A    between atoms: C_2  and  C_4
REMARK                            x       y       z     vdW  Elec       q    Type
REMARK                         _______ _______ _______ _____ _____    ______ ____
ROOT
ATOM      1  C   UNL     1       4.487   5.255  17.049  0.00  0.00    +0.000 A 
ATOM      2  C   UNL     1       3.567   6.181  17.565  0.00  0.00    +0.000 A 
ATOM      3  C   UNL     1       2.471   5.750  18.322  0.00  0.00    +0.000 A 
ATOM      4  C   UNL     1       2.277   4.391  18.576  0.00  0.00    +0.000 A 
ATOM      5  N   UNL     1       1.163   3.990  19.332  0.00  0.00    +0.000 NA
ATOM      6  C   UNL     1       1.012   2.728  19.547  0.00  0.00    +0.000 A 
ATOM      7  N   UNL     1       1.864   1.764  19.090  0.00  0.00    +0.000 N 
ATOM      8  C   UNL     1       2.979   2.051  18.345  0.00  0.00    +0.000 A 
ATOM      9  O   UNL     1       3.737   1.181  17.937  0.00  0.00    +0.000 OA
ATOM     10  C   UNL     1       3.204   3.480  18.063  0.00  0.00    +0.000 A 
ATOM     11  C   UNL     1       4.305   3.895  17.305  0.00  0.00    +0.000 A 
ATOM     12  H   UNL     1       1.696   0.789  19.289  0.00  0.00    +0.000 HD
ENDROOT
BRANCH   1  14
ATOM     13  C   UNL     1       6.995   5.163  16.441  0.00  0.00    +0.000 C 
ATOM     14  C   UNL     1       5.628   5.759  16.228  0.00  0.00    +0.000 C 
ATOM     15  O   UNL     1       5.438   6.641  15.395  0.00  0.00    +0.000 OA
ENDBRANCH   1  14
TORSDOF 1
ENDMDL
MODEL 8
REMARK VINA RESULT:      -6.5      2.264      2.622
REMARK  Name = 
REMARK  2 active torsions:
REMARK  status: ('A' for Active; 'I' for Inactive)
REMARK    1  A    between atoms: C_1  and  C_2
REMARK    2  A    between atoms: C_2  and  C_4
REMARK                            x       y       z     vdW  Elec       q    Type
REMARK                         _______ _______ _______ _____ _____    ______ ____
ROOT
ATOM      1  C   UNL     1       2.891   4.297  19.307  0.00  0.00    +0.000 A 
ATOM      2  C   UNL     1       2.537   3.852  18.024  0.00  0.00    +0.000 A 
ATOM      3  C   UNL     1       3.493   3.788  17.003  0.00  0.00    +0.000 A 
ATOM      4  C   UNL     1       4.814   4.165  17.246  0.00  0.00    +0.000 A 
ATOM      5  N   UNL     1       5.748   4.098  16.199  0.00  0.00    +0.000 NA
ATOM      6  C   UNL     1       6.959   4.456  16.456  0.00  0.00    +0.000 A 
ATOM      7  N   UNL     1       7.388   4.891  17.678  0.00  0.00    +0.000 N 
ATOM      8  C   UNL     1       6.557   4.993  18.763  0.00  0.00    +0.000 A 
ATOM      9  O   UNL     1       6.949   5.385  19.854  0.00  0.00    +0.000 OA
ATOM     10  C   UNL     1       5.156   4.600  18.530  0.00  0.00    +0.000 A 
ATOM     11  C   UNL     1       4.213   4.668  19.562  0.00  0.00    +0.000 A 
ATOM     12  H   UNL     1       8.350   5.159  17.822  0.00  0.00    +0.000 HD
ENDROOT
BRANCH   1  14
ATOM     13  C   UNL     1       1.314   3.089  20.957  0.00  0.00    +0.000 C 
ATOM     14  C   UNL     1       1.834   4.370  20.359  0.00  0.00    +0.000 C 
ATOM     15  O   UNL     1       1.408   5.463  20.722  0.00  0.00    +0.000 OA
ENDBRANCH   1  14
TORSDOF 1
ENDMDL
MODEL 9
REMARK VINA RESULT:      -6.5      2.909      4.818
REMARK  Name = 
REMARK  2 active torsions:
REMARK  status: ('A' for Active; 'I' for Inactive)
REMARK    1  A    between atoms: C_1  and  C_2
REMARK    2  A    between atoms: C_2  and  C_4
REMARK                            x       y       z     vdW  Elec       q    Type
REMARK                         _______ _______ _______ _____ _____    ______ ____
ROOT
ATOM      1  C   UNL     1       5.699   5.795  17.785  0.00  0.00    +0.000 A 
ATOM      2  C   UNL     1       4.558   6.534  17.434  0.00  0.00    +0.000 A 
ATOM      3  C   UNL     1       3.285   6.113  17.835  0.00  0.00    +0.000 A 
ATOM      4  C   UNL     1       3.130   4.950  18.590  0.00  0.00    +0.000 A 
ATOM      5  N   UNL     1       1.839   4.548  18.970  0.00  0.00    +0.000 NA
ATOM      6  C   UNL     1       1.730   3.468  19.665  0.00  0.00    +0.000 A 
ATOM      7  N   UNL     1       2.788   2.697  20.056  0.00  0.00    +0.000 N 
ATOM      8  C   UNL     1       4.086   3.002  19.738  0.00  0.00    +0.000 A 
ATOM      9  O   UNL     1       5.028   2.305  20.090  0.00  0.00    +0.000 OA
ATOM     10  C   UNL     1       4.274   4.226  18.939  0.00  0.00    +0.000 A 
ATOM     11  C   UNL     1       5.554   4.635  18.548  0.00  0.00    +0.000 A 
ATOM     12  H   UNL     1       2.644   1.860  20.601  0.00  0.00    +0.000 HD
ENDROOT
BRANCH   1  14
ATOM     13  C   UNL     1       7.906   7.044  18.271  0.00  0.00    +0.000 C 
ATOM     14  C   UNL     1       7.034   6.272  17.317  0.00  0.00    +0.000 C 
ATOM     15  O   UNL     1       7.403   6.026  16.171  0.00  0.00    +0.000 OA
ENDBRANCH   1  14
TORSDOF 1
ENDMDL
