MODEL 1
REMARK VINA RESULT:      -6.4      0.000      0.000
REMARK  Name = 
REMARK  19 active torsions:
REMARK  status: ('A' for Active; 'I' for Inactive)
REMARK    1  A    between atoms: C_1  and  N_2
REMARK    2  A    between atoms: N_2  and  C_3
REMARK    3  A    between atoms: N_2  and  C_4
REMARK    4  A    between atoms: C_4  and  C_5
REMARK    5  A    between atoms: C_8  and  C_9
REMARK    6  A    between atoms: C_9  and  S_10
REMARK    7  A    between atoms: S_10  and  C_11
REMARK    8  A    between atoms: C_11  and  C_12
REMARK    9  A    between atoms: C_12  and  N_13
REMARK   10  A    between atoms: N_15  and  C_16
REMARK   11  A    between atoms: N_18  and  C_19
REMARK   12  A    between atoms: C_19  and  C_20
REMARK   13  A    between atoms: C_20  and  S_21
REMARK   14  A    between atoms: S_21  and  C_22
REMARK   15  A    between atoms: C_22  and  C_23
REMARK   16  A    between atoms: C_26  and  C_27
REMARK   17  A    between atoms: C_27  and  N_28
REMARK   18  A    between atoms: N_28  and  C_29
REMARK   19  A    between atoms: N_28  and  C_30
REMARK                            x       y       z     vdW  Elec       q    Type
REMARK                         _______ _______ _______ _____ _____    ______ ____
ROOT
ATOM      1  N   UNL     1       1.729   7.607  20.954  0.00  0.00    +0.000 N 
ATOM      2  C   UNL     1       2.237   6.743  20.015  0.00  0.00    +0.000 C 
ATOM      3  N   UNL     1       2.505   6.881  18.755  0.00  0.00    +0.000 NA
ATOM      4  N   UNL     1       2.482   5.559  20.649  0.00  0.00    +0.000 N 
ATOM      5  H   UNL     1       2.136   7.462  21.877  0.00  0.00    +0.000 HD
ATOM      6  H   UNL     1       1.776   5.292  21.332  0.00  0.00    +0.000 HD
ENDROOT
BRANCH   3   7
ATOM      7  C   UNL     1       2.378   8.050  18.142  0.00  0.00    +0.000 C 
ATOM      8  N   UNL     1       2.229   9.077  17.609  0.00  0.00    +0.000 NA
ENDBRANCH   3   7
BRANCH   1   9
ATOM      9  C   UNL     1       1.291   8.981  20.746  0.00  0.00    +0.000 C 
BRANCH   9  10
ATOM     10  C   UNL     1      -0.220   9.134  21.021  0.00  0.00    +0.000 C 
BRANCH  10  11
ATOM     11  S   UNL     1      -0.738  10.810  20.492  0.00  0.00    +0.000 S 
BRANCH  11  12
ATOM     12  C   UNL     1      -0.922  10.602  18.682  0.00  0.00    +0.000 C 
BRANCH  12  16
ATOM     13  C   UNL     1      -4.341  11.745  18.627  0.00  0.00    +0.000 A 
ATOM     14  C   UNL     1      -4.474  10.831  17.603  0.00  0.00    +0.000 A 
ATOM     15  C   UNL     1      -3.199  10.255  17.407  0.00  0.00    +0.000 A 
ATOM     16  C   UNL     1      -2.355  10.837  18.333  0.00  0.00    +0.000 A 
ATOM     17  O   UNL     1      -3.045  11.762  19.071  0.00  0.00    +0.000 OA
BRANCH  13  18
ATOM     18  C   UNL     1      -5.321  12.646  19.311  0.00  0.00    +0.000 C 
BRANCH  18  20
ATOM     19  C   UNL     1      -6.222  12.863  21.552  0.00  0.00    +0.000 C 
ATOM     20  N   UNL     1      -6.046  11.967  20.406  0.00  0.00    +0.000 NA
ATOM     21  C   UNL     1      -7.354  11.498  19.942  0.00  0.00    +0.000 C 
ENDBRANCH  18  20
ENDBRANCH  13  18
ENDBRANCH  12  16
ENDBRANCH  11  12
ENDBRANCH  10  11
ENDBRANCH   9  10
ENDBRANCH   1   9
BRANCH   4  22
ATOM     22  C   UNL     1       3.065   4.403  19.964  0.00  0.00    +0.000 C 
BRANCH  22  23
ATOM     23  C   UNL     1       1.969   3.582  19.257  0.00  0.00    +0.000 C 
BRANCH  23  24
ATOM     24  S   UNL     1       2.414   3.433  17.486  0.00  0.00    +0.000 S 
BRANCH  24  25
ATOM     25  C   UNL     1       4.225   3.134  17.548  0.00  0.00    +0.000 C 
BRANCH  25  26
ATOM     26  C   UNL     1       4.860   4.060  16.560  0.00  0.00    +0.000 A 
ATOM     27  C   UNL     1       4.916   5.439  16.491  0.00  0.00    +0.000 A 
ATOM     28  C   UNL     1       5.506   5.760  15.251  0.00  0.00    +0.000 A 
ATOM     29  C   UNL     1       5.864   4.565  14.662  0.00  0.00    +0.000 A 
ATOM     30  O   UNL     1       5.466   3.517  15.454  0.00  0.00    +0.000 OA
BRANCH  29  31
ATOM     31  C   UNL     1       6.621   4.265  13.403  0.00  0.00    +0.000 C 
BRANCH  31  32
ATOM     32  N   UNL     1       5.989   3.162  12.644  0.00  0.00    +0.000 NA
ATOM     33  C   UNL     1       4.754   3.598  11.988  0.00  0.00    +0.000 C 
ATOM     34  C   UNL     1       6.904   2.613  11.642  0.00  0.00    +0.000 C 
ENDBRANCH  31  32
ENDBRANCH  29  31
ENDBRANCH  25  26
ENDBRANCH  24  25
ENDBRANCH  23  24
ENDBRANCH  22  23
ENDBRANCH   4  22
TORSDOF 15
ENDMDL
MODEL 2
REMARK VINA RESULT:      -6.0      3.454      5.125
REMARK  Name = 
REMARK  19 active torsions:
REMARK  status: ('A' for Active; 'I' for Inactive)
REMARK    1  A    between atoms: C_1  and  N_2
REMARK    2  A    between atoms: N_2  and  C_3
REMARK    3  A    between atoms: N_2  and  C_4
REMARK    4  A    between atoms: C_4  and  C_5
REMARK    5  A    between atoms: C_8  and  C_9
REMARK    6  A    between atoms: C_9  and  S_10
REMARK    7  A    between atoms: S_10  and  C_11
REMARK    8  A    between atoms: C_11  and  C_12
REMARK    9  A    between atoms: C_12  and  N_13
REMARK   10  A    between atoms: N_15  and  C_16
REMARK   11  A    between atoms: N_18  and  C_19
REMARK   12  A    between atoms: C_19  and  C_20
REMARK   13  A    between atoms: C_20  and  S_21
REMARK   14  A    between atoms: S_21  and  C_22
REMARK   15  A    between atoms: C_22  and  C_23
REMARK   16  A    between atoms: C_26  and  C_27
REMARK   17  A    between atoms: C_27  and  N_28
REMARK   18  A    between atoms: N_28  and  C_29
REMARK   19  A    between atoms: N_28  and  C_30
REMARK                            x       y       z     vdW  Elec       q    Type
REMARK                         _______ _______ _______ _____ _____    ______ ____
ROOT
ATOM      1  N   UNL     1       1.728   7.367  20.956  0.00  0.00    +0.000 N 
ATOM      2  C   UNL     1       2.138   6.195  20.369  0.00  0.00    +0.000 C 
ATOM      3  N   UNL     1       2.662   5.933  19.214  0.00  0.00    +0.000 NA
ATOM      4  N   UNL     1       1.917   5.195  21.272  0.00  0.00    +0.000 N 
ATOM      5  H   UNL     1       1.899   7.380  21.960  0.00  0.00    +0.000 HD
ATOM      6  H   UNL     1       1.051   5.285  21.798  0.00  0.00    +0.000 HD
ENDROOT
BRANCH   3   7
ATOM      7  C   UNL     1       2.985   6.897  18.363  0.00  0.00    +0.000 C 
ATOM      8  N   UNL     1       3.280   7.766  17.642  0.00  0.00    +0.000 NA
ENDBRANCH   3   7
BRANCH   1   9
ATOM      9  C   UNL     1       1.741   8.701  20.369  0.00  0.00    +0.000 C 
BRANCH   9  10
ATOM     10  C   UNL     1       0.335   9.336  20.392  0.00  0.00    +0.000 C 
BRANCH  10  11
ATOM     11  S   UNL     1       0.242  10.586  19.056  0.00  0.00    +0.000 S 
BRANCH  11  12
ATOM     12  C   UNL     1      -0.899  11.828  19.771  0.00  0.00    +0.000 C 
BRANCH  12  16
ATOM     13  C   UNL     1       1.461  14.542  19.520  0.00  0.00    +0.000 A 
ATOM     14  C   UNL     1       0.332  15.332  19.583  0.00  0.00    +0.000 A 
ATOM     15  C   UNL     1      -0.773  14.454  19.652  0.00  0.00    +0.000 A 
ATOM     16  C   UNL     1      -0.261  13.172  19.642  0.00  0.00    +0.000 A 
ATOM     17  O   UNL     1       1.105  13.219  19.544  0.00  0.00    +0.000 OA
BRANCH  13  18
ATOM     18  C   UNL     1       2.920  14.868  19.459  0.00  0.00    +0.000 C 
BRANCH  18  20
ATOM     19  C   UNL     1       3.247  16.456  17.656  0.00  0.00    +0.000 C 
ATOM     20  N   UNL     1       3.400  15.059  18.074  0.00  0.00    +0.000 NA
ATOM     21  C   UNL     1       4.805  14.661  17.958  0.00  0.00    +0.000 C 
ENDBRANCH  18  20
ENDBRANCH  13  18
ENDBRANCH  12  16
ENDBRANCH  11  12
ENDBRANCH  10  11
ENDBRANCH   9  10
ENDBRANCH   1   9
BRANCH   4  22
ATOM     22  C   UNL     1       2.268   3.798  21.004  0.00  0.00    +0.000 C 
BRANCH  22  23
ATOM     23  C   UNL     1       1.111   3.077  20.286  0.00  0.00    +0.000 C 
BRANCH  23  24
ATOM     24  S   UNL     1       1.766   2.329  18.747  0.00  0.00    +0.000 S 
BRANCH  24  25
ATOM     25  C   UNL     1       3.581   2.349  19.029  0.00  0.00    +0.000 C 
BRANCH  25  26
ATOM     26  C   UNL     1       4.178   3.248  17.994  0.00  0.00    +0.000 A 
ATOM     27  C   UNL     1       3.741   3.630  16.740  0.00  0.00    +0.000 A 
ATOM     28  C   UNL     1       4.793   4.361  16.149  0.00  0.00    +0.000 A 
ATOM     29  C   UNL     1       5.785   4.468  17.102  0.00  0.00    +0.000 A 
ATOM     30  O   UNL     1       5.420   3.783  18.234  0.00  0.00    +0.000 OA
BRANCH  29  31
ATOM     31  C   UNL     1       7.085   5.217  17.105  0.00  0.00    +0.000 C 
BRANCH  31  32
ATOM     32  N   UNL     1       7.105   6.258  18.156  0.00  0.00    +0.000 NA
ATOM     33  C   UNL     1       7.920   5.850  19.303  0.00  0.00    +0.000 C 
ATOM     34  C   UNL     1       7.601   7.532  17.635  0.00  0.00    +0.000 C 
ENDBRANCH  31  32
ENDBRANCH  29  31
ENDBRANCH  25  26
ENDBRANCH  24  25
ENDBRANCH  23  24
ENDBRANCH  22  23
ENDBRANCH   4  22
TORSDOF 15
ENDMDL
MODEL 3
REMARK VINA RESULT:      -5.9      3.791      6.218
REMARK  Name = 
REMARK  19 active torsions:
REMARK  status: ('A' for Active; 'I' for Inactive)
REMARK    1  A    between atoms: C_1  and  N_2
REMARK    2  A    between atoms: N_2  and  C_3
REMARK    3  A    between atoms: N_2  and  C_4
REMARK    4  A    between atoms: C_4  and  C_5
REMARK    5  A    between atoms: C_8  and  C_9
REMARK    6  A    between atoms: C_9  and  S_10
REMARK    7  A    between atoms: S_10  and  C_11
REMARK    8  A    between atoms: C_11  and  C_12
REMARK    9  A    between atoms: C_12  and  N_13
REMARK   10  A    between atoms: N_15  and  C_16
REMARK   11  A    between atoms: N_18  and  C_19
REMARK   12  A    between atoms: C_19  and  C_20
REMARK   13  A    between atoms: C_20  and  S_21
REMARK   14  A    between atoms: S_21  and  C_22
REMARK   15  A    between atoms: C_22  and  C_23
REMARK   16  A    between atoms: C_26  and  C_27
REMARK   17  A    between atoms: C_27  and  N_28
REMARK   18  A    between atoms: N_28  and  C_29
REMARK   19  A    between atoms: N_28  and  C_30
REMARK                            x       y       z     vdW  Elec       q    Type
REMARK                         _______ _______ _______ _____ _____    ______ ____
ROOT
ATOM      1  N   UNL     1      -3.865  11.813  17.764  0.00  0.00    +0.000 N 
ATOM      2  C   UNL     1      -2.726  11.088  17.514  0.00  0.00    +0.000 C 
ATOM      3  N   UNL     1      -2.360  10.353  16.514  0.00  0.00    +0.000 NA
ATOM      4  N   UNL     1      -1.895  11.267  18.583  0.00  0.00    +0.000 N 
ATOM      5  H   UNL     1      -3.674  12.675  18.273  0.00  0.00    +0.000 HD
ATOM      6  H   UNL     1      -2.363  11.280  19.486  0.00  0.00    +0.000 HD
ENDROOT
BRANCH   3   7
ATOM      7  C   UNL     1      -3.102  10.250  15.419  0.00  0.00    +0.000 C 
ATOM      8  N   UNL     1      -3.731  10.181  14.439  0.00  0.00    +0.000 NA
ENDBRANCH   3   7
BRANCH   1   9
ATOM      9  C   UNL     1      -5.053  11.910  16.925  0.00  0.00    +0.000 C 
BRANCH   9  10
ATOM     10  C   UNL     1      -6.339  11.921  17.776  0.00  0.00    +0.000 C 
BRANCH  10  11
ATOM     11  S   UNL     1      -6.295  10.483  18.911  0.00  0.00    +0.000 S 
BRANCH  11  12
ATOM     12  C   UNL     1      -7.525  10.959  20.182  0.00  0.00    +0.000 C 
BRANCH  12  16
ATOM     13  C   UNL     1      -5.440  13.144  22.151  0.00  0.00    +0.000 A 
ATOM     14  C   UNL     1      -6.545  13.970  22.132  0.00  0.00    +0.000 A 
ATOM     15  C   UNL     1      -7.525  13.316  21.354  0.00  0.00    +0.000 A 
ATOM     16  C   UNL     1      -6.974  12.116  20.949  0.00  0.00    +0.000 A 
ATOM     17  O   UNL     1      -5.692  12.013  21.420  0.00  0.00    +0.000 OA
BRANCH  13  18
ATOM     18  C   UNL     1      -4.105  13.258  22.817  0.00  0.00    +0.000 C 
BRANCH  18  20
ATOM     19  C   UNL     1      -2.217  13.405  21.302  0.00  0.00    +0.000 C 
ATOM     20  N   UNL     1      -3.051  12.505  22.104  0.00  0.00    +0.000 NA
ATOM     21  C   UNL     1      -2.211  11.771  23.054  0.00  0.00    +0.000 C 
ENDBRANCH  18  20
ENDBRANCH  13  18
ENDBRANCH  12  16
ENDBRANCH  11  12
ENDBRANCH  10  11
ENDBRANCH   9  10
ENDBRANCH   1   9
BRANCH   4  22
ATOM     22  C   UNL     1      -0.559  10.666  18.653  0.00  0.00    +0.000 C 
BRANCH  22  23
ATOM     23  C   UNL     1      -0.322  10.033  20.037  0.00  0.00    +0.000 C 
BRANCH  23  24
ATOM     24  S   UNL     1       1.463   9.649  20.195  0.00  0.00    +0.000 S 
BRANCH  24  25
ATOM     25  C   UNL     1       1.450   7.967  20.933  0.00  0.00    +0.000 C 
BRANCH  25  26
ATOM     26  C   UNL     1       1.979   7.026  19.897  0.00  0.00    +0.000 A 
ATOM     27  C   UNL     1       2.617   7.245  18.692  0.00  0.00    +0.000 A 
ATOM     28  C   UNL     1       2.737   5.988  18.062  0.00  0.00    +0.000 A 
ATOM     29  C   UNL     1       2.248   5.053  18.951  0.00  0.00    +0.000 A 
ATOM     30  O   UNL     1       1.775   5.680  20.076  0.00  0.00    +0.000 OA
BRANCH  29  31
ATOM     31  C   UNL     1       2.213   3.554  18.897  0.00  0.00    +0.000 C 
BRANCH  31  32
ATOM     32  N   UNL     1       3.554   2.993  18.616  0.00  0.00    +0.000 NA
ATOM     33  C   UNL     1       4.449   3.133  19.768  0.00  0.00    +0.000 C 
ATOM     34  C   UNL     1       3.472   1.584  18.232  0.00  0.00    +0.000 C 
ENDBRANCH  31  32
ENDBRANCH  29  31
ENDBRANCH  25  26
ENDBRANCH  24  25
ENDBRANCH  23  24
ENDBRANCH  22  23
ENDBRANCH   4  22
TORSDOF 15
ENDMDL
MODEL 4
REMARK VINA RESULT:      -5.9      2.060     10.640
REMARK  Name = 
REMARK  19 active torsions:
REMARK  status: ('A' for Active; 'I' for Inactive)
REMARK    1  A    between atoms: C_1  and  N_2
REMARK    2  A    between atoms: N_2  and  C_3
REMARK    3  A    between atoms: N_2  and  C_4
REMARK    4  A    between atoms: C_4  and  C_5
REMARK    5  A    between atoms: C_8  and  C_9
REMARK    6  A    between atoms: C_9  and  S_10
REMARK    7  A    between atoms: S_10  and  C_11
REMARK    8  A    between atoms: C_11  and  C_12
REMARK    9  A    between atoms: C_12  and  N_13
REMARK   10  A    between atoms: N_15  and  C_16
REMARK   11  A    between atoms: N_18  and  C_19
REMARK   12  A    between atoms: C_19  and  C_20
REMARK   13  A    between atoms: C_20  and  S_21
REMARK   14  A    between atoms: S_21  and  C_22
REMARK   15  A    between atoms: C_22  and  C_23
REMARK   16  A    between atoms: C_26  and  C_27
REMARK   17  A    between atoms: C_27  and  N_28
REMARK   18  A    between atoms: N_28  and  C_29
REMARK   19  A    between atoms: N_28  and  C_30
REMARK                            x       y       z     vdW  Elec       q    Type
REMARK                         _______ _______ _______ _____ _____    ______ ____
ROOT
ATOM      1  N   UNL     1       1.597   4.248  18.408  0.00  0.00    +0.000 N 
ATOM      2  C   UNL     1       2.040   5.309  19.158  0.00  0.00    +0.000 C 
ATOM      3  N   UNL     1       2.282   5.445  20.423  0.00  0.00    +0.000 NA
ATOM      4  N   UNL     1       2.244   6.351  18.299  0.00  0.00    +0.000 N 
ATOM      5  H   UNL     1       2.020   4.223  17.481  0.00  0.00    +0.000 HD
ATOM      6  H   UNL     1       1.544   6.437  17.566  0.00  0.00    +0.000 HD
ENDROOT
BRANCH   3   7
ATOM      7  C   UNL     1       2.195   4.419  21.260  0.00  0.00    +0.000 C 
ATOM      8  N   UNL     1       2.122   3.494  21.968  0.00  0.00    +0.000 NA
ENDBRANCH   3   7
BRANCH   1   9
ATOM      9  C   UNL     1       1.219   2.924  18.885  0.00  0.00    +0.000 C 
BRANCH   9  10
ATOM     10  C   UNL     1       2.311   1.882  18.567  0.00  0.00    +0.000 C 
BRANCH  10  11
ATOM     11  S   UNL     1       3.926   2.743  18.481  0.00  0.00    +0.000 S 
BRANCH  11  12
ATOM     12  C   UNL     1       4.369   2.553  16.714  0.00  0.00    +0.000 C 
BRANCH  12  16
ATOM     13  C   UNL     1       5.785   5.865  16.549  0.00  0.00    +0.000 A 
ATOM     14  C   UNL     1       5.842   5.612  15.195  0.00  0.00    +0.000 A 
ATOM     15  C   UNL     1       5.352   4.300  15.007  0.00  0.00    +0.000 A 
ATOM     16  C   UNL     1       5.008   3.824  16.257  0.00  0.00    +0.000 A 
ATOM     17  O   UNL     1       5.286   4.771  17.206  0.00  0.00    +0.000 OA
BRANCH  13  18
ATOM     18  C   UNL     1       6.131   7.069  17.367  0.00  0.00    +0.000 C 
BRANCH  18  20
ATOM     19  C   UNL     1       7.980   8.578  17.802  0.00  0.00    +0.000 C 
ATOM     20  N   UNL     1       7.583   7.177  17.629  0.00  0.00    +0.000 NA
ATOM     21  C   UNL     1       7.948   6.410  18.823  0.00  0.00    +0.000 C 
ENDBRANCH  18  20
ENDBRANCH  13  18
ENDBRANCH  12  16
ENDBRANCH  11  12
ENDBRANCH  10  11
ENDBRANCH   9  10
ENDBRANCH   1   9
BRANCH   4  22
ATOM     22  C   UNL     1       2.755   7.651  18.743  0.00  0.00    +0.000 C 
BRANCH  22  23
ATOM     23  C   UNL     1       1.623   8.497  19.357  0.00  0.00    +0.000 C 
BRANCH  23  24
ATOM     24  S   UNL     1       0.977   9.620  18.061  0.00  0.00    +0.000 S 
BRANCH  24  25
ATOM     25  C   UNL     1      -0.128  10.739  19.011  0.00  0.00    +0.000 C 
BRANCH  25  26
ATOM     26  C   UNL     1      -1.484  10.654  18.387  0.00  0.00    +0.000 A 
ATOM     27  C   UNL     1      -1.971   9.901  17.336  0.00  0.00    +0.000 A 
ATOM     28  C   UNL     1      -3.282  10.357  17.083  0.00  0.00    +0.000 A 
ATOM     29  C   UNL     1      -3.565  11.301  18.048  0.00  0.00    +0.000 A 
ATOM     30  O   UNL     1      -2.467  11.495  18.847  0.00  0.00    +0.000 OA
BRANCH  29  31
ATOM     31  C   UNL     1      -4.825  12.051  18.365  0.00  0.00    +0.000 C 
BRANCH  31  32
ATOM     32  N   UNL     1      -5.682  11.293  19.304  0.00  0.00    +0.000 NA
ATOM     33  C   UNL     1      -6.252  12.162  20.336  0.00  0.00    +0.000 C 
ATOM     34  C   UNL     1      -6.762  10.602  18.599  0.00  0.00    +0.000 C 
ENDBRANCH  31  32
ENDBRANCH  29  31
ENDBRANCH  25  26
ENDBRANCH  24  25
ENDBRANCH  23  24
ENDBRANCH  22  23
ENDBRANCH   4  22
TORSDOF 15
ENDMDL
MODEL 5
REMARK VINA RESULT:      -5.8      3.134     10.809
REMARK  Name = 
REMARK  19 active torsions:
REMARK  status: ('A' for Active; 'I' for Inactive)
REMARK    1  A    between atoms: C_1  and  N_2
REMARK    2  A    between atoms: N_2  and  C_3
REMARK    3  A    between atoms: N_2  and  C_4
REMARK    4  A    between atoms: C_4  and  C_5
REMARK    5  A    between atoms: C_8  and  C_9
REMARK    6  A    between atoms: C_9  and  S_10
REMARK    7  A    between atoms: S_10  and  C_11
REMARK    8  A    between atoms: C_11  and  C_12
REMARK    9  A    between atoms: C_12  and  N_13
REMARK   10  A    between atoms: N_15  and  C_16
REMARK   11  A    between atoms: N_18  and  C_19
REMARK   12  A    between atoms: C_19  and  C_20
REMARK   13  A    between atoms: C_20  and  S_21
REMARK   14  A    between atoms: S_21  and  C_22
REMARK   15  A    between atoms: C_22  and  C_23
REMARK   16  A    between atoms: C_26  and  C_27
REMARK   17  A    between atoms: C_27  and  N_28
REMARK   18  A    between atoms: N_28  and  C_29
REMARK   19  A    between atoms: N_28  and  C_30
REMARK                            x       y       z     vdW  Elec       q    Type
REMARK                         _______ _______ _______ _____ _____    ______ ____
ROOT
ATOM      1  N   UNL     1      -1.467  11.958  20.694  0.00  0.00    +0.000 N 
ATOM      2  C   UNL     1      -1.772  12.278  21.994  0.00  0.00    +0.000 C 
ATOM      3  N   UNL     1      -1.600  11.650  23.113  0.00  0.00    +0.000 NA
ATOM      4  N   UNL     1      -2.344  13.518  21.977  0.00  0.00    +0.000 N 
ATOM      5  H   UNL     1      -1.186  12.771  20.148  0.00  0.00    +0.000 HD
ATOM      6  H   UNL     1      -2.975  13.683  21.197  0.00  0.00    +0.000 HD
ENDROOT
BRANCH   3   7
ATOM      7  C   UNL     1      -0.952  10.494  23.167  0.00  0.00    +0.000 C 
ATOM      8  N   UNL     1      -0.403   9.466  23.242  0.00  0.00    +0.000 NA
ENDBRANCH   3   7
BRANCH   1   9
ATOM      9  C   UNL     1      -0.868  10.722  20.205  0.00  0.00    +0.000 C 
BRANCH   9  10
ATOM     10  C   UNL     1       0.660  10.865  20.051  0.00  0.00    +0.000 C 
BRANCH  10  11
ATOM     11  S   UNL     1       1.397   9.188  20.014  0.00  0.00    +0.000 S 
BRANCH  11  12
ATOM     12  C   UNL     1       1.848   9.004  18.248  0.00  0.00    +0.000 C 
BRANCH  12  16
ATOM     13  C   UNL     1       4.231   6.483  17.267  0.00  0.00    +0.000 A 
ATOM     14  C   UNL     1       3.425   5.645  18.009  0.00  0.00    +0.000 A 
ATOM     15  C   UNL     1       2.395   6.447  18.549  0.00  0.00    +0.000 A 
ATOM     16  C   UNL     1       2.617   7.733  18.097  0.00  0.00    +0.000 A 
ATOM     17  O   UNL     1       3.749   7.764  17.326  0.00  0.00    +0.000 OA
BRANCH  13  18
ATOM     18  C   UNL     1       5.454   6.238  16.439  0.00  0.00    +0.000 C 
BRANCH  18  20
ATOM     19  C   UNL     1       7.108   4.506  16.060  0.00  0.00    +0.000 C 
ATOM     20  N   UNL     1       6.383   5.278  17.073  0.00  0.00    +0.000 NA
ATOM     21  C   UNL     1       7.338   5.981  17.934  0.00  0.00    +0.000 C 
ENDBRANCH  18  20
ENDBRANCH  13  18
ENDBRANCH  12  16
ENDBRANCH  11  12
ENDBRANCH  10  11
ENDBRANCH   9  10
ENDBRANCH   1   9
BRANCH   4  22
ATOM     22  C   UNL     1      -2.771  14.206  23.199  0.00  0.00    +0.000 C 
BRANCH  22  23
ATOM     23  C   UNL     1      -4.306  14.184  23.325  0.00  0.00    +0.000 C 
BRANCH  23  24
ATOM     24  S   UNL     1      -5.022  14.237  21.639  0.00  0.00    +0.000 S 
BRANCH  24  25
ATOM     25  C   UNL     1      -5.687  12.537  21.430  0.00  0.00    +0.000 C 
BRANCH  25  26
ATOM     26  C   UNL     1      -5.511  12.170  19.990  0.00  0.00    +0.000 A 
ATOM     27  C   UNL     1      -6.413  11.771  19.023  0.00  0.00    +0.000 A 
ATOM     28  C   UNL     1      -5.657  11.398  17.892  0.00  0.00    +0.000 A 
ATOM     29  C   UNL     1      -4.339  11.671  18.190  0.00  0.00    +0.000 A 
ATOM     30  O   UNL     1      -4.238  12.138  19.477  0.00  0.00    +0.000 OA
BRANCH  29  31
ATOM     31  C   UNL     1      -3.094  11.594  17.356  0.00  0.00    +0.000 C 
BRANCH  31  32
ATOM     32  N   UNL     1      -2.974  10.279  16.688  0.00  0.00    +0.000 NA
ATOM     33  C   UNL     1      -3.220  10.382  15.247  0.00  0.00    +0.000 C 
ATOM     34  C   UNL     1      -1.656   9.684  16.915  0.00  0.00    +0.000 C 
ENDBRANCH  31  32
ENDBRANCH  29  31
ENDBRANCH  25  26
ENDBRANCH  24  25
ENDBRANCH  23  24
ENDBRANCH  22  23
ENDBRANCH   4  22
TORSDOF 15
ENDMDL
MODEL 6
REMARK VINA RESULT:      -5.8      2.109      2.618
REMARK  Name = 
REMARK  19 active torsions:
REMARK  status: ('A' for Active; 'I' for Inactive)
REMARK    1  A    between atoms: C_1  and  N_2
REMARK    2  A    between atoms: N_2  and  C_3
REMARK    3  A    between atoms: N_2  and  C_4
REMARK    4  A    between atoms: C_4  and  C_5
REMARK    5  A    between atoms: C_8  and  C_9
REMARK    6  A    between atoms: C_9  and  S_10
REMARK    7  A    between atoms: S_10  and  C_11
REMARK    8  A    between atoms: C_11  and  C_12
REMARK    9  A    between atoms: C_12  and  N_13
REMARK   10  A    between atoms: N_15  and  C_16
REMARK   11  A    between atoms: N_18  and  C_19
REMARK   12  A    between atoms: C_19  and  C_20
REMARK   13  A    between atoms: C_20  and  S_21
REMARK   14  A    between atoms: S_21  and  C_22
REMARK   15  A    between atoms: C_22  and  C_23
REMARK   16  A    between atoms: C_26  and  C_27
REMARK   17  A    between atoms: C_27  and  N_28
REMARK   18  A    between atoms: N_28  and  C_29
REMARK   19  A    between atoms: N_28  and  C_30
REMARK                            x       y       z     vdW  Elec       q    Type
REMARK                         _______ _______ _______ _____ _____    ______ ____
ROOT
ATOM      1  N   UNL     1       1.429   7.945  21.037  0.00  0.00    +0.000 N 
ATOM      2  C   UNL     1       2.050   7.075  20.174  0.00  0.00    +0.000 C 
ATOM      3  N   UNL     1       2.370   7.164  18.923  0.00  0.00    +0.000 NA
ATOM      4  N   UNL     1       2.351   5.950  20.888  0.00  0.00    +0.000 N 
ATOM      5  H   UNL     1       1.799   7.883  21.984  0.00  0.00    +0.000 HD
ATOM      6  H   UNL     1       1.634   5.665  21.551  0.00  0.00    +0.000 HD
ENDROOT
BRANCH   3   7
ATOM      7  C   UNL     1       2.186   8.284  18.237  0.00  0.00    +0.000 C 
ATOM      8  N   UNL     1       1.995   9.254  17.616  0.00  0.00    +0.000 NA
ENDBRANCH   3   7
BRANCH   1   9
ATOM      9  C   UNL     1       0.899   9.267  20.729  0.00  0.00    +0.000 C 
BRANCH   9  10
ATOM     10  C   UNL     1       0.436   9.996  22.007  0.00  0.00    +0.000 C 
BRANCH  10  11
ATOM     11  S   UNL     1      -0.928  11.136  21.562  0.00  0.00    +0.000 S 
BRANCH  11  12
ATOM     12  C   UNL     1      -1.733  11.423  23.182  0.00  0.00    +0.000 C 
BRANCH  12  16
ATOM     13  C   UNL     1      -4.621  13.437  22.406  0.00  0.00    +0.000 A 
ATOM     14  C   UNL     1      -3.819  14.480  22.820  0.00  0.00    +0.000 A 
ATOM     15  C   UNL     1      -2.592  13.911  23.226  0.00  0.00    +0.000 A 
ATOM     16  C   UNL     1      -2.701  12.549  23.025  0.00  0.00    +0.000 A 
ATOM     17  O   UNL     1      -3.947  12.252  22.539  0.00  0.00    +0.000 OA
BRANCH  13  18
ATOM     18  C   UNL     1      -6.008  13.389  21.846  0.00  0.00    +0.000 C 
BRANCH  18  20
ATOM     19  C   UNL     1      -7.556  12.237  23.314  0.00  0.00    +0.000 C 
ATOM     20  N   UNL     1      -6.692  12.111  22.137  0.00  0.00    +0.000 NA
ATOM     21  C   UNL     1      -7.487  11.679  20.985  0.00  0.00    +0.000 C 
ENDBRANCH  18  20
ENDBRANCH  13  18
ENDBRANCH  12  16
ENDBRANCH  11  12
ENDBRANCH  10  11
ENDBRANCH   9  10
ENDBRANCH   1   9
BRANCH   4  22
ATOM     22  C   UNL     1       3.056   4.808  20.299  0.00  0.00    +0.000 C 
BRANCH  22  23
ATOM     23  C   UNL     1       2.052   3.763  19.775  0.00  0.00    +0.000 C 
BRANCH  23  24
ATOM     24  S   UNL     1       2.903   2.720  18.532  0.00  0.00    +0.000 S 
BRANCH  24  25
ATOM     25  C   UNL     1       2.811   3.747  17.012  0.00  0.00    +0.000 C 
BRANCH  25  26
ATOM     26  C   UNL     1       4.158   4.365  16.815  0.00  0.00    +0.000 A 
ATOM     27  C   UNL     1       4.788   5.424  17.439  0.00  0.00    +0.000 A 
ATOM     28  C   UNL     1       5.983   5.662  16.727  0.00  0.00    +0.000 A 
ATOM     29  C   UNL     1       6.069   4.682  15.761  0.00  0.00    +0.000 A 
ATOM     30  O   UNL     1       4.952   3.886  15.802  0.00  0.00    +0.000 OA
BRANCH  29  31
ATOM     31  C   UNL     1       7.153   4.346  14.780  0.00  0.00    +0.000 C 
BRANCH  31  32
ATOM     32  N   UNL     1       6.760   4.705  13.399  0.00  0.00    +0.000 NA
ATOM     33  C   UNL     1       7.863   5.339  12.672  0.00  0.00    +0.000 C 
ATOM     34  C   UNL     1       6.298   3.533  12.655  0.00  0.00    +0.000 C 
ENDBRANCH  31  32
ENDBRANCH  29  31
ENDBRANCH  25  26
ENDBRANCH  24  25
ENDBRANCH  23  24
ENDBRANCH  22  23
ENDBRANCH   4  22
TORSDOF 15
ENDMDL
MODEL 7
REMARK VINA RESULT:      -5.7      2.041      2.700
REMARK  Name = 
REMARK  19 active torsions:
REMARK  status: ('A' for Active; 'I' for Inactive)
REMARK    1  A    between atoms: C_1  and  N_2
REMARK    2  A    between atoms: N_2  and  C_3
REMARK    3  A    between atoms: N_2  and  C_4
REMARK    4  A    between atoms: C_4  and  C_5
REMARK    5  A    between atoms: C_8  and  C_9
REMARK    6  A    between atoms: C_9  and  S_10
REMARK    7  A    between atoms: S_10  and  C_11
REMARK    8  A    between atoms: C_11  and  C_12
REMARK    9  A    between atoms: C_12  and  N_13
REMARK   10  A    between atoms: N_15  and  C_16
REMARK   11  A    between atoms: N_18  and  C_19
REMARK   12  A    between atoms: C_19  and  C_20
REMARK   13  A    between atoms: C_20  and  S_21
REMARK   14  A    between atoms: S_21  and  C_22
REMARK   15  A    between atoms: C_22  and  C_23
REMARK   16  A    between atoms: C_26  and  C_27
REMARK   17  A    between atoms: C_27  and  N_28
REMARK   18  A    between atoms: N_28  and  C_29
REMARK   19  A    between atoms: N_28  and  C_30
REMARK                            x       y       z     vdW  Elec       q    Type
REMARK                         _______ _______ _______ _____ _____    ______ ____
ROOT
ATOM      1  N   UNL     1       1.087   8.835  21.067  0.00  0.00    +0.000 N 
ATOM      2  C   UNL     1       1.570   7.776  20.339  0.00  0.00    +0.000 C 
ATOM      3  N   UNL     1       1.968   7.667  19.112  0.00  0.00    +0.000 NA
ATOM      4  N   UNL     1       1.607   6.698  21.176  0.00  0.00    +0.000 N 
ATOM      5  H   UNL     1       1.386   8.807  22.040  0.00  0.00    +0.000 HD
ATOM      6  H   UNL     1       0.814   6.627  21.809  0.00  0.00    +0.000 HD
ENDROOT
BRANCH   3   7
ATOM      7  C   UNL     1       2.043   8.722  18.311  0.00  0.00    +0.000 C 
ATOM      8  N   UNL     1       2.095   9.630  17.579  0.00  0.00    +0.000 NA
ENDBRANCH   3   7
BRANCH   1   9
ATOM      9  C   UNL     1       0.842  10.192  20.596  0.00  0.00    +0.000 C 
BRANCH   9  10
ATOM     10  C   UNL     1      -0.434  10.783  21.231  0.00  0.00    +0.000 C 
BRANCH  10  11
ATOM     11  S   UNL     1      -1.000  12.185  20.196  0.00  0.00    +0.000 S 
BRANCH  11  12
ATOM     12  C   UNL     1      -0.761  11.533  18.501  0.00  0.00    +0.000 C 
BRANCH  12  16
ATOM     13  C   UNL     1      -4.304  11.532  17.831  0.00  0.00    +0.000 A 
ATOM     14  C   UNL     1      -3.938  10.838  16.696  0.00  0.00    +0.000 A 
ATOM     15  C   UNL     1      -2.528  10.742  16.718  0.00  0.00    +0.000 A 
ATOM     16  C   UNL     1      -2.106  11.369  17.874  0.00  0.00    +0.000 A 
ATOM     17  O   UNL     1      -3.187  11.869  18.550  0.00  0.00    +0.000 OA
BRANCH  13  18
ATOM     18  C   UNL     1      -5.635  11.929  18.386  0.00  0.00    +0.000 C 
BRANCH  18  20
ATOM     19  C   UNL     1      -6.389  14.062  19.261  0.00  0.00    +0.000 C 
ATOM     20  N   UNL     1      -5.518  12.905  19.491  0.00  0.00    +0.000 NA
ATOM     21  C   UNL     1      -5.860  12.277  20.770  0.00  0.00    +0.000 C 
ENDBRANCH  18  20
ENDBRANCH  13  18
ENDBRANCH  12  16
ENDBRANCH  11  12
ENDBRANCH  10  11
ENDBRANCH   9  10
ENDBRANCH   1   9
BRANCH   4  22
ATOM     22  C   UNL     1       2.106   5.386  20.752  0.00  0.00    +0.000 C 
BRANCH  22  23
ATOM     23  C   UNL     1       0.956   4.523  20.198  0.00  0.00    +0.000 C 
BRANCH  23  24
ATOM     24  S   UNL     1       1.256   2.783  20.687  0.00  0.00    +0.000 S 
BRANCH  24  25
ATOM     25  C   UNL     1       1.977   2.053  19.164  0.00  0.00    +0.000 C 
BRANCH  25  26
ATOM     26  C   UNL     1       3.349   2.628  19.007  0.00  0.00    +0.000 A 
ATOM     27  C   UNL     1       4.412   2.732  19.884  0.00  0.00    +0.000 A 
ATOM     28  C   UNL     1       5.394   3.513  19.239  0.00  0.00    +0.000 A 
ATOM     29  C   UNL     1       4.923   3.772  17.969  0.00  0.00    +0.000 A 
ATOM     30  O   UNL     1       3.667   3.239  17.820  0.00  0.00    +0.000 OA
BRANCH  29  31
ATOM     31  C   UNL     1       5.559   4.452  16.792  0.00  0.00    +0.000 C 
BRANCH  31  32
ATOM     32  N   UNL     1       4.860   5.712  16.455  0.00  0.00    +0.000 NA
ATOM     33  C   UNL     1       5.124   6.757  17.447  0.00  0.00    +0.000 C 
ATOM     34  C   UNL     1       5.241   6.193  15.127  0.00  0.00    +0.000 C 
ENDBRANCH  31  32
ENDBRANCH  29  31
ENDBRANCH  25  26
ENDBRANCH  24  25
ENDBRANCH  23  24
ENDBRANCH  22  23
ENDBRANCH   4  22
TORSDOF 15
ENDMDL
MODEL 8
REMARK VINA RESULT:      -5.7      3.297      4.580
REMARK  Name = 
REMARK  19 active torsions:
REMARK  status: ('A' for Active; 'I' for Inactive)
REMARK    1  A    between atoms: C_1  and  N_2
REMARK    2  A    between atoms: N_2  and  C_3
REMARK    3  A    between atoms: N_2  and  C_4
REMARK    4  A    between atoms: C_4  and  C_5
REMARK    5  A    between atoms: C_8  and  C_9
REMARK    6  A    between atoms: C_9  and  S_10
REMARK    7  A    between atoms: S_10  and  C_11
REMARK    8  A    between atoms: C_11  and  C_12
REMARK    9  A    between atoms: C_12  and  N_13
REMARK   10  A    between atoms: N_15  and  C_16
REMARK   11  A    between atoms: N_18  and  C_19
REMARK   12  A    between atoms: C_19  and  C_20
REMARK   13  A    between atoms: C_20  and  S_21
REMARK   14  A    between atoms: S_21  and  C_22
REMARK   15  A    between atoms: C_22  and  C_23
REMARK   16  A    between atoms: C_26  and  C_27
REMARK   17  A    between atoms: C_27  and  N_28
REMARK   18  A    between atoms: N_28  and  C_29
REMARK   19  A    between atoms: N_28  and  C_30
REMARK                            x       y       z     vdW  Elec       q    Type
REMARK                         _______ _______ _______ _____ _____    ______ ____
ROOT
ATOM      1  N   UNL     1       1.240   8.772  20.909  0.00  0.00    +0.000 N 
ATOM      2  C   UNL     1       1.780   7.730  20.197  0.00  0.00    +0.000 C 
ATOM      3  N   UNL     1       2.171   7.620  18.967  0.00  0.00    +0.000 NA
ATOM      4  N   UNL     1       1.893   6.674  21.055  0.00  0.00    +0.000 N 
ATOM      5  H   UNL     1       1.551   8.783  21.879  0.00  0.00    +0.000 HD
ATOM      6  H   UNL     1       1.112   6.567  21.699  0.00  0.00    +0.000 HD
ENDROOT
BRANCH   3   7
ATOM      7  C   UNL     1       2.172   8.661  18.144  0.00  0.00    +0.000 C 
ATOM      8  N   UNL     1       2.200   9.560  17.401  0.00  0.00    +0.000 NA
ENDBRANCH   3   7
BRANCH   1   9
ATOM      9  C   UNL     1       0.907  10.102  20.414  0.00  0.00    +0.000 C 
BRANCH   9  10
ATOM     10  C   UNL     1      -0.619  10.328  20.404  0.00  0.00    +0.000 C 
BRANCH  10  11
ATOM     11  S   UNL     1      -1.159  10.555  18.668  0.00  0.00    +0.000 S 
BRANCH  11  12
ATOM     12  C   UNL     1      -2.299  11.983  18.803  0.00  0.00    +0.000 C 
BRANCH  12  16
ATOM     13  C   UNL     1       0.053  14.644  19.432  0.00  0.00    +0.000 A 
ATOM     14  C   UNL     1      -0.571  14.704  20.660  0.00  0.00    +0.000 A 
ATOM     15  C   UNL     1      -1.600  13.736  20.639  0.00  0.00    +0.000 A 
ATOM     16  C   UNL     1      -1.543  13.123  19.402  0.00  0.00    +0.000 A 
ATOM     17  O   UNL     1      -0.544  13.686  18.654  0.00  0.00    +0.000 OA
BRANCH  13  18
ATOM     18  C   UNL     1       1.216  15.385  18.852  0.00  0.00    +0.000 C 
BRANCH  18  20
ATOM     19  C   UNL     1      -0.493  16.960  18.160  0.00  0.00    +0.000 C 
ATOM     20  N   UNL     1       0.903  16.803  18.577  0.00  0.00    +0.000 NA
ATOM     21  C   UNL     1       1.159  17.625  19.764  0.00  0.00    +0.000 C 
ENDBRANCH  18  20
ENDBRANCH  13  18
ENDBRANCH  12  16
ENDBRANCH  11  12
ENDBRANCH  10  11
ENDBRANCH   9  10
ENDBRANCH   1   9
BRANCH   4  22
ATOM     22  C   UNL     1       2.467   5.387  20.652  0.00  0.00    +0.000 C 
BRANCH  22  23
ATOM     23  C   UNL     1       1.363   4.320  20.516  0.00  0.00    +0.000 C 
BRANCH  23  24
ATOM     24  S   UNL     1       2.104   2.679  20.859  0.00  0.00    +0.000 S 
BRANCH  24  25
ATOM     25  C   UNL     1       2.245   1.942  19.183  0.00  0.00    +0.000 C 
BRANCH  25  26
ATOM     26  C   UNL     1       3.040   2.895  18.347  0.00  0.00    +0.000 A 
ATOM     27  C   UNL     1       2.718   3.620  17.217  0.00  0.00    +0.000 A 
ATOM     28  C   UNL     1       3.912   4.222  16.767  0.00  0.00    +0.000 A 
ATOM     29  C   UNL     1       4.885   3.910  17.693  0.00  0.00    +0.000 A 
ATOM     30  O   UNL     1       4.362   3.091  18.662  0.00  0.00    +0.000 OA
BRANCH  29  31
ATOM     31  C   UNL     1       6.314   4.349  17.820  0.00  0.00    +0.000 C 
BRANCH  31  32
ATOM     32  N   UNL     1       6.413   5.692  18.433  0.00  0.00    +0.000 NA
ATOM     33  C   UNL     1       7.533   5.775  19.374  0.00  0.00    +0.000 C 
ATOM     34  C   UNL     1       6.556   6.733  17.414  0.00  0.00    +0.000 C 
ENDBRANCH  31  32
ENDBRANCH  29  31
ENDBRANCH  25  26
ENDBRANCH  24  25
ENDBRANCH  23  24
ENDBRANCH  22  23
ENDBRANCH   4  22
TORSDOF 15
ENDMDL
MODEL 9
REMARK VINA RESULT:      -5.6      2.198      3.146
REMARK  Name = 
REMARK  19 active torsions:
REMARK  status: ('A' for Active; 'I' for Inactive)
REMARK    1  A    between atoms: C_1  and  N_2
REMARK    2  A    between atoms: N_2  and  C_3
REMARK    3  A    between atoms: N_2  and  C_4
REMARK    4  A    between atoms: C_4  and  C_5
REMARK    5  A    between atoms: C_8  and  C_9
REMARK    6  A    between atoms: C_9  and  S_10
REMARK    7  A    between atoms: S_10  and  C_11
REMARK    8  A    between atoms: C_11  and  C_12
REMARK    9  A    between atoms: C_12  and  N_13
REMARK   10  A    between atoms: N_15  and  C_16
REMARK   11  A    between atoms: N_18  and  C_19
REMARK   12  A    between atoms: C_19  and  C_20
REMARK   13  A    between atoms: C_20  and  S_21
REMARK   14  A    between atoms: S_21  and  C_22
REMARK   15  A    between atoms: C_22  and  C_23
REMARK   16  A    between atoms: C_26  and  C_27
REMARK   17  A    between atoms: C_27  and  N_28
REMARK   18  A    between atoms: N_28  and  C_29
REMARK   19  A    between atoms: N_28  and  C_30
REMARK                            x       y       z     vdW  Elec       q    Type
REMARK                         _______ _______ _______ _____ _____    ______ ____
ROOT
ATOM      1  N   UNL     1       1.324   7.581  21.241  0.00  0.00    +0.000 N 
ATOM      2  C   UNL     1       1.832   6.546  20.496  0.00  0.00    +0.000 C 
ATOM      3  N   UNL     1       2.286   6.480  19.285  0.00  0.00    +0.000 NA
ATOM      4  N   UNL     1       1.821   5.436  21.292  0.00  0.00    +0.000 N 
ATOM      5  H   UNL     1       1.577   7.513  22.226  0.00  0.00    +0.000 HD
ATOM      6  H   UNL     1       0.998   5.349  21.885  0.00  0.00    +0.000 HD
ENDROOT
BRANCH   3   7
ATOM      7  C   UNL     1       2.407   7.563  18.530  0.00  0.00    +0.000 C 
ATOM      8  N   UNL     1       2.479   8.512  17.854  0.00  0.00    +0.000 NA
ENDBRANCH   3   7
BRANCH   1   9
ATOM      9  C   UNL     1       1.113   8.958  20.812  0.00  0.00    +0.000 C 
BRANCH   9  10
ATOM     10  C   UNL     1       1.109   9.924  22.015  0.00  0.00    +0.000 C 
BRANCH  10  11
ATOM     11  S   UNL     1      -0.613  10.089  22.619  0.00  0.00    +0.000 S 
BRANCH  11  12
ATOM     12  C   UNL     1      -0.928  11.879  22.398  0.00  0.00    +0.000 C 
BRANCH  12  16
ATOM     13  C   UNL     1      -1.575  12.175  18.863  0.00  0.00    +0.000 A 
ATOM     14  C   UNL     1      -0.293  12.680  18.822  0.00  0.00    +0.000 A 
ATOM     15  C   UNL     1       0.178  12.697  20.154  0.00  0.00    +0.000 A 
ATOM     16  C   UNL     1      -0.837  12.188  20.939  0.00  0.00    +0.000 A 
ATOM     17  O   UNL     1      -1.919  11.883  20.157  0.00  0.00    +0.000 OA
BRANCH  13  18
ATOM     18  C   UNL     1      -2.583  11.887  17.794  0.00  0.00    +0.000 C 
BRANCH  18  20
ATOM     19  C   UNL     1      -4.870  11.080  17.791  0.00  0.00    +0.000 C 
ATOM     20  N   UNL     1      -3.483  10.770  18.152  0.00  0.00    +0.000 NA
ATOM     21  C   UNL     1      -3.063   9.537  17.483  0.00  0.00    +0.000 C 
ENDBRANCH  18  20
ENDBRANCH  13  18
ENDBRANCH  12  16
ENDBRANCH  11  12
ENDBRANCH  10  11
ENDBRANCH   9  10
ENDBRANCH   1   9
BRANCH   4  22
ATOM     22  C   UNL     1       2.327   4.136  20.841  0.00  0.00    +0.000 C 
BRANCH  22  23
ATOM     23  C   UNL     1       1.232   3.362  20.082  0.00  0.00    +0.000 C 
BRANCH  23  24
ATOM     24  S   UNL     1       2.008   1.910  19.278  0.00  0.00    +0.000 S 
BRANCH  24  25
ATOM     25  C   UNL     1       2.377   2.533  17.590  0.00  0.00    +0.000 C 
BRANCH  25  26
ATOM     26  C   UNL     1       3.593   3.398  17.695  0.00  0.00    +0.000 A 
ATOM     27  C   UNL     1       4.678   3.365  18.549  0.00  0.00    +0.000 A 
ATOM     28  C   UNL     1       5.434   4.528  18.290  0.00  0.00    +0.000 A 
ATOM     29  C   UNL     1       4.825   5.168  17.231  0.00  0.00    +0.000 A 
ATOM     30  O   UNL     1       3.691   4.486  16.864  0.00  0.00    +0.000 OA
BRANCH  29  31
ATOM     31  C   UNL     1       5.221   6.379  16.440  0.00  0.00    +0.000 C 
BRANCH  31  32
ATOM     32  N   UNL     1       6.642   6.316  16.033  0.00  0.00    +0.000 NA
ATOM     33  C   UNL     1       7.538   6.612  17.154  0.00  0.00    +0.000 C 
ATOM     34  C   UNL     1       6.979   5.006  15.474  0.00  0.00    +0.000 C 
ENDBRANCH  31  32
ENDBRANCH  29  31
ENDBRANCH  25  26
ENDBRANCH  24  25
ENDBRANCH  23  24
ENDBRANCH  22  23
ENDBRANCH   4  22
TORSDOF 15
ENDMDL
