MODEL 1
REMARK VINA RESULT:      -7.5      0.000      0.000
REMARK  Name = 
REMARK  6 active torsions:
REMARK  status: ('A' for Active; 'I' for Inactive)
REMARK    1  A    between atoms: C_1  and  C_2
REMARK    2  A    between atoms: C_2  and  N_3
REMARK    3  A    between atoms: N_3  and  C_4
REMARK    4  A    between atoms: N_3  and  S_19
REMARK    5  A    between atoms: C_8  and  C_10
REMARK    6  A    between atoms: S_19  and  C_20
REMARK                            x       y       z     vdW  Elec       q    Type
REMARK                         _______ _______ _______ _____ _____    ______ ____
ROOT
ATOM      1  C   UNL     1       3.648   5.569  18.830  0.00  0.00    +0.000 C 
ATOM      2  C   UNL     1       3.856   6.248  17.483  0.00  0.00    +0.000 C 
ATOM      3  C   UNL     1       4.787   5.494  16.559  0.00  0.00    +0.000 C 
ATOM      4  N   UNL     1       6.035   5.035  17.152  0.00  0.00    +0.000 N 
ATOM      5  C   UNL     1       7.137   4.602  16.380  0.00  0.00    +0.000 C 
ATOM      6  O   UNL     1       8.194   4.236  16.896  0.00  0.00    +0.000 OA
ATOM      7  C   UNL     1       6.019   4.575  18.541  0.00  0.00    +0.000 C 
ATOM      8  C   UNL     1       5.006   5.253  19.457  0.00  0.00    +0.000 C 
ENDROOT
BRANCH   5   9
ATOM      9  C   UNL     1       7.068   4.567  14.889  0.00  0.00    +0.000 A 
ATOM     10  C   UNL     1       7.864   5.402  14.088  0.00  0.00    +0.000 A 
ATOM     11  C   UNL     1       7.821   5.316  12.699  0.00  0.00    +0.000 A 
ATOM     12  C   UNL     1       6.896   4.473  12.090  0.00  0.00    +0.000 A 
ATOM     13  C   UNL     1       6.022   3.721  12.875  0.00  0.00    +0.000 A 
ATOM     14 CL   UNL     1       4.809   2.772  12.112  0.00  0.00    +0.000 Cl
ATOM     15  C   UNL     1       6.114   3.751  14.273  0.00  0.00    +0.000 A 
ENDBRANCH   5   9
BRANCH   1  16
ATOM     16  N   UNL     1       2.642   4.424  18.855  0.00  0.00    +0.000 NA
BRANCH  16  17
ATOM     17  S   UNL     1       1.576   4.378  20.200  0.00  0.00    +0.000 S 
ATOM     18  C   UNL     1       2.460   3.351  21.356  0.00  0.00    +0.000 C 
ATOM     19  O   UNL     1       1.475   5.694  20.789  0.00  0.00    +0.000 OA
ATOM     20  O   UNL     1       0.379   3.663  19.812  0.00  0.00    +0.000 OA
ENDBRANCH  16  17
BRANCH  16  22
ATOM     21  C   UNL     1       2.658   2.360  17.317  0.00  0.00    +0.000 C 
ATOM     22  C   UNL     1       2.251   3.803  17.558  0.00  0.00    +0.000 C 
ENDBRANCH  16  22
ENDBRANCH   1  16
TORSDOF 4
ENDMDL
MODEL 2
REMARK VINA RESULT:      -7.3      1.183      1.565
REMARK  Name = 
REMARK  6 active torsions:
REMARK  status: ('A' for Active; 'I' for Inactive)
REMARK    1  A    between atoms: C_1  and  C_2
REMARK    2  A    between atoms: C_2  and  N_3
REMARK    3  A    between atoms: N_3  and  C_4
REMARK    4  A    between atoms: N_3  and  S_19
REMARK    5  A    between atoms: C_8  and  C_10
REMARK    6  A    between atoms: S_19  and  C_20
REMARK                            x       y       z     vdW  Elec       q    Type
REMARK                         _______ _______ _______ _____ _____    ______ ____
ROOT
ATOM      1  C   UNL     1       3.471   5.176  18.961  0.00  0.00    +0.000 C 
ATOM      2  C   UNL     1       3.505   5.796  17.571  0.00  0.00    +0.000 C 
ATOM      3  C   UNL     1       4.512   5.154  16.643  0.00  0.00    +0.000 C 
ATOM      4  N   UNL     1       5.843   4.947  17.196  0.00  0.00    +0.000 N 
ATOM      5  C   UNL     1       6.971   4.659  16.394  0.00  0.00    +0.000 C 
ATOM      6  O   UNL     1       8.095   4.507  16.875  0.00  0.00    +0.000 OA
ATOM      7  C   UNL     1       5.962   4.577  18.607  0.00  0.00    +0.000 C 
ATOM      8  C   UNL     1       4.887   5.131  19.535  0.00  0.00    +0.000 C 
ENDROOT
BRANCH   5   9
ATOM      9  C   UNL     1       6.849   4.521  14.912  0.00  0.00    +0.000 A 
ATOM     10  C   UNL     1       6.130   3.470  14.320  0.00  0.00    +0.000 A 
ATOM     11  C   UNL     1       5.986   3.391  12.937  0.00  0.00    +0.000 A 
ATOM     12  C   UNL     1       6.656   4.298  12.122  0.00  0.00    +0.000 A 
ATOM     13  C   UNL     1       7.465   5.278  12.696  0.00  0.00    +0.000 A 
ATOM     14 CL   UNL     1       8.379   6.319  11.678  0.00  0.00    +0.000 Cl
ATOM     15  C   UNL     1       7.552   5.406  14.089  0.00  0.00    +0.000 A 
ENDBRANCH   5   9
BRANCH   1  16
ATOM     16  N   UNL     1       2.676   3.883  19.098  0.00  0.00    +0.000 NA
BRANCH  16  17
ATOM     17  S   UNL     1       1.424   3.880  20.274  0.00  0.00    +0.000 S 
ATOM     18  C   UNL     1       2.160   2.971  21.617  0.00  0.00    +0.000 C 
ATOM     19  O   UNL     1       1.194   5.227  20.745  0.00  0.00    +0.000 OA
ATOM     20  O   UNL     1       0.322   3.090  19.768  0.00  0.00    +0.000 OA
ENDBRANCH  16  17
BRANCH  16  22
ATOM     21  C   UNL     1       3.408   1.677  17.991  0.00  0.00    +0.000 C 
ATOM     22  C   UNL     1       2.612   2.968  17.923  0.00  0.00    +0.000 C 
ENDBRANCH  16  22
ENDBRANCH   1  16
TORSDOF 4
ENDMDL
MODEL 3
REMARK VINA RESULT:      -6.6      1.722      2.374
REMARK  Name = 
REMARK  6 active torsions:
REMARK  status: ('A' for Active; 'I' for Inactive)
REMARK    1  A    between atoms: C_1  and  C_2
REMARK    2  A    between atoms: C_2  and  N_3
REMARK    3  A    between atoms: N_3  and  C_4
REMARK    4  A    between atoms: N_3  and  S_19
REMARK    5  A    between atoms: C_8  and  C_10
REMARK    6  A    between atoms: S_19  and  C_20
REMARK                            x       y       z     vdW  Elec       q    Type
REMARK                         _______ _______ _______ _____ _____    ______ ____
ROOT
ATOM      1  C   UNL     1       3.495   5.229  19.160  0.00  0.00    +0.000 C 
ATOM      2  C   UNL     1       3.506   5.824  17.758  0.00  0.00    +0.000 C 
ATOM      3  C   UNL     1       4.487   5.156  16.820  0.00  0.00    +0.000 C 
ATOM      4  N   UNL     1       5.827   4.946  17.349  0.00  0.00    +0.000 N 
ATOM      5  C   UNL     1       6.934   4.632  16.528  0.00  0.00    +0.000 C 
ATOM      6  O   UNL     1       8.067   4.477  16.988  0.00  0.00    +0.000 OA
ATOM      7  C   UNL     1       5.972   4.599  18.763  0.00  0.00    +0.000 C 
ATOM      8  C   UNL     1       4.923   5.180  19.704  0.00  0.00    +0.000 C 
ENDROOT
BRANCH   5   9
ATOM      9  C   UNL     1       6.779   4.470  15.052  0.00  0.00    +0.000 A 
ATOM     10  C   UNL     1       6.025   3.425  14.494  0.00  0.00    +0.000 A 
ATOM     11  C   UNL     1       5.852   3.323  13.116  0.00  0.00    +0.000 A 
ATOM     12  C   UNL     1       6.525   4.199  12.271  0.00  0.00    +0.000 A 
ATOM     13  C   UNL     1       7.368   5.171  12.810  0.00  0.00    +0.000 A 
ATOM     14 CL   UNL     1       8.284   6.172  11.755  0.00  0.00    +0.000 Cl
ATOM     15  C   UNL     1       7.486   5.323  14.198  0.00  0.00    +0.000 A 
ENDBRANCH   5   9
BRANCH   1  16
ATOM     16  N   UNL     1       2.690   3.946  19.336  0.00  0.00    +0.000 NA
BRANCH  16  17
ATOM     17  S   UNL     1       1.848   3.380  17.951  0.00  0.00    +0.000 S 
ATOM     18  C   UNL     1       0.660   2.257  18.657  0.00  0.00    +0.000 C 
ATOM     19  O   UNL     1       1.105   4.467  17.353  0.00  0.00    +0.000 OA
ATOM     20  O   UNL     1       2.761   2.597  17.148  0.00  0.00    +0.000 OA
ENDBRANCH  16  17
BRANCH  16  22
ATOM     21  C   UNL     1       2.281   2.982  21.688  0.00  0.00    +0.000 C 
ATOM     22  C   UNL     1       3.103   2.999  20.411  0.00  0.00    +0.000 C 
ENDBRANCH  16  22
ENDBRANCH   1  16
TORSDOF 4
ENDMDL
MODEL 4
REMARK VINA RESULT:      -6.4      4.918      7.394
REMARK  Name = 
REMARK  6 active torsions:
REMARK  status: ('A' for Active; 'I' for Inactive)
REMARK    1  A    between atoms: C_1  and  C_2
REMARK    2  A    between atoms: C_2  and  N_3
REMARK    3  A    between atoms: N_3  and  C_4
REMARK    4  A    between atoms: N_3  and  S_19
REMARK    5  A    between atoms: C_8  and  C_10
REMARK    6  A    between atoms: S_19  and  C_20
REMARK                            x       y       z     vdW  Elec       q    Type
REMARK                         _______ _______ _______ _____ _____    ______ ____
ROOT
ATOM      1  C   UNL     1       2.992   5.408  19.723  0.00  0.00    +0.000 C 
ATOM      2  C   UNL     1       2.326   6.437  20.626  0.00  0.00    +0.000 C 
ATOM      3  C   UNL     1       1.563   7.504  19.873  0.00  0.00    +0.000 C 
ATOM      4  N   UNL     1       2.265   8.115  18.753  0.00  0.00    +0.000 N 
ATOM      5  C   UNL     1       1.841   9.319  18.147  0.00  0.00    +0.000 C 
ATOM      6  O   UNL     1       2.458   9.834  17.213  0.00  0.00    +0.000 OA
ATOM      7  C   UNL     1       3.141   7.273  17.938  0.00  0.00    +0.000 C 
ATOM      8  C   UNL     1       3.831   6.125  18.665  0.00  0.00    +0.000 C 
ENDROOT
BRANCH   5   9
ATOM      9  C   UNL     1       0.613  10.028  18.615  0.00  0.00    +0.000 A 
ATOM     10  C   UNL     1       0.612  10.831  19.767  0.00  0.00    +0.000 A 
ATOM     11  C   UNL     1      -0.531  11.524  20.157  0.00  0.00    +0.000 A 
ATOM     12  C   UNL     1      -1.722  11.332  19.463  0.00  0.00    +0.000 A 
ATOM     13  C   UNL     1      -1.761  10.448  18.384  0.00  0.00    +0.000 A 
ATOM     14 CL   UNL     1      -3.261  10.131  17.608  0.00  0.00    +0.000 Cl
ATOM     15  C   UNL     1      -0.594   9.807  17.945  0.00  0.00    +0.000 A 
ENDBRANCH   5   9
BRANCH   1  16
ATOM     16  N   UNL     1       2.091   4.299  19.193  0.00  0.00    +0.000 NA
BRANCH  16  17
ATOM     17  S   UNL     1       2.810   3.195  18.092  0.00  0.00    +0.000 S 
ATOM     18  C   UNL     1       4.121   2.481  19.064  0.00  0.00    +0.000 C 
ATOM     19  O   UNL     1       1.879   2.134  17.785  0.00  0.00    +0.000 OA
ATOM     20  O   UNL     1       3.427   3.951  17.023  0.00  0.00    +0.000 OA
ENDBRANCH  16  17
BRANCH  16  22
ATOM     21  C   UNL     1       1.178   2.956  21.191  0.00  0.00    +0.000 C 
ATOM     22  C   UNL     1       0.920   3.888  20.020  0.00  0.00    +0.000 C 
ENDBRANCH  16  22
ENDBRANCH   1  16
TORSDOF 4
ENDMDL
MODEL 5
REMARK VINA RESULT:      -6.4      1.599      1.968
REMARK  Name = 
REMARK  6 active torsions:
REMARK  status: ('A' for Active; 'I' for Inactive)
REMARK    1  A    between atoms: C_1  and  C_2
REMARK    2  A    between atoms: C_2  and  N_3
REMARK    3  A    between atoms: N_3  and  C_4
REMARK    4  A    between atoms: N_3  and  S_19
REMARK    5  A    between atoms: C_8  and  C_10
REMARK    6  A    between atoms: S_19  and  C_20
REMARK                            x       y       z     vdW  Elec       q    Type
REMARK                         _______ _______ _______ _____ _____    ______ ____
ROOT
ATOM      1  C   UNL     1       3.693   5.506  18.733  0.00  0.00    +0.000 C 
ATOM      2  C   UNL     1       3.894   6.198  17.392  0.00  0.00    +0.000 C 
ATOM      3  C   UNL     1       4.828   5.458  16.459  0.00  0.00    +0.000 C 
ATOM      4  N   UNL     1       6.079   5.000  17.045  0.00  0.00    +0.000 N 
ATOM      5  C   UNL     1       7.182   4.580  16.268  0.00  0.00    +0.000 C 
ATOM      6  O   UNL     1       8.242   4.215  16.779  0.00  0.00    +0.000 OA
ATOM      7  C   UNL     1       6.068   4.528  18.431  0.00  0.00    +0.000 C 
ATOM      8  C   UNL     1       5.054   5.192  19.355  0.00  0.00    +0.000 C 
ENDROOT
BRANCH   5   9
ATOM      9  C   UNL     1       7.111   4.558  14.776  0.00  0.00    +0.000 A 
ATOM     10  C   UNL     1       7.866   5.436  13.983  0.00  0.00    +0.000 A 
ATOM     11  C   UNL     1       7.822   5.364  12.593  0.00  0.00    +0.000 A 
ATOM     12  C   UNL     1       6.935   4.487  11.977  0.00  0.00    +0.000 A 
ATOM     13  C   UNL     1       6.097   3.689  12.756  0.00  0.00    +0.000 A 
ATOM     14 CL   UNL     1       4.925   2.695  11.986  0.00  0.00    +0.000 Cl
ATOM     15  C   UNL     1       6.192   3.707  14.154  0.00  0.00    +0.000 A 
ENDBRANCH   5   9
BRANCH   1  16
ATOM     16  N   UNL     1       2.693   4.356  18.750  0.00  0.00    +0.000 NA
BRANCH  16  17
ATOM     17  S   UNL     1       3.355   2.772  18.787  0.00  0.00    +0.000 S 
ATOM     18  C   UNL     1       1.904   1.753  18.949  0.00  0.00    +0.000 C 
ATOM     19  O   UNL     1       3.954   2.463  17.509  0.00  0.00    +0.000 OA
ATOM     20  O   UNL     1       4.125   2.626  20.004  0.00  0.00    +0.000 OA
ENDBRANCH  16  17
BRANCH  16  22
ATOM     21  C   UNL     1       1.223   5.209  20.684  0.00  0.00    +0.000 C 
ATOM     22  C   UNL     1       1.328   4.618  19.289  0.00  0.00    +0.000 C 
ENDBRANCH  16  22
ENDBRANCH   1  16
TORSDOF 4
ENDMDL
MODEL 6
REMARK VINA RESULT:      -6.3      1.270      1.370
REMARK  Name = 
REMARK  6 active torsions:
REMARK  status: ('A' for Active; 'I' for Inactive)
REMARK    1  A    between atoms: C_1  and  C_2
REMARK    2  A    between atoms: C_2  and  N_3
REMARK    3  A    between atoms: N_3  and  C_4
REMARK    4  A    between atoms: N_3  and  S_19
REMARK    5  A    between atoms: C_8  and  C_10
REMARK    6  A    between atoms: S_19  and  C_20
REMARK                            x       y       z     vdW  Elec       q    Type
REMARK                         _______ _______ _______ _____ _____    ______ ____
ROOT
ATOM      1  C   UNL     1       3.491   4.597  18.653  0.00  0.00    +0.000 C 
ATOM      2  C   UNL     1       3.544   5.336  17.322  0.00  0.00    +0.000 C 
ATOM      3  C   UNL     1       4.652   4.862  16.407  0.00  0.00    +0.000 C 
ATOM      4  N   UNL     1       5.965   4.721  17.021  0.00  0.00    +0.000 N 
ATOM      5  C   UNL     1       7.154   4.598  16.267  0.00  0.00    +0.000 C 
ATOM      6  O   UNL     1       8.260   4.499  16.801  0.00  0.00    +0.000 OA
ATOM      7  C   UNL     1       6.041   4.241  18.401  0.00  0.00    +0.000 C 
ATOM      8  C   UNL     1       4.873   4.621  19.305  0.00  0.00    +0.000 C 
ENDROOT
BRANCH   5   9
ATOM      9  C   UNL     1       7.124   4.579  14.774  0.00  0.00    +0.000 A 
ATOM     10  C   UNL     1       7.860   5.494  14.005  0.00  0.00    +0.000 A 
ATOM     11  C   UNL     1       7.857   5.426  12.614  0.00  0.00    +0.000 A 
ATOM     12  C   UNL     1       7.026   4.514  11.971  0.00  0.00    +0.000 A 
ATOM     13  C   UNL     1       6.204   3.675  12.725  0.00  0.00    +0.000 A 
ATOM     14 CL   UNL     1       5.097   2.635  11.920  0.00  0.00    +0.000 Cl
ATOM     15  C   UNL     1       6.260   3.692  14.125  0.00  0.00    +0.000 A 
ENDBRANCH   5   9
BRANCH   1  16
ATOM     16  N   UNL     1       2.807   3.235  18.635  0.00  0.00    +0.000 NA
BRANCH  16  17
ATOM     17  S   UNL     1       1.101   3.238  18.834  0.00  0.00    +0.000 S 
ATOM     18  C   UNL     1       0.873   4.386  20.177  0.00  0.00    +0.000 C 
ATOM     19  O   UNL     1       0.474   3.816  17.667  0.00  0.00    +0.000 OA
ATOM     20  O   UNL     1       0.693   1.932  19.306  0.00  0.00    +0.000 OA
ENDBRANCH  16  17
BRANCH  16  22
ATOM     21  C   UNL     1       3.994   0.953  18.749  0.00  0.00    +0.000 C 
ATOM     22  C   UNL     1       3.483   2.117  17.918  0.00  0.00    +0.000 C 
ENDBRANCH  16  22
ENDBRANCH   1  16
TORSDOF 4
ENDMDL
MODEL 7
REMARK VINA RESULT:      -6.3      5.209      7.673
REMARK  Name = 
REMARK  6 active torsions:
REMARK  status: ('A' for Active; 'I' for Inactive)
REMARK    1  A    between atoms: C_1  and  C_2
REMARK    2  A    between atoms: C_2  and  N_3
REMARK    3  A    between atoms: N_3  and  C_4
REMARK    4  A    between atoms: N_3  and  S_19
REMARK    5  A    between atoms: C_8  and  C_10
REMARK    6  A    between atoms: S_19  and  C_20
REMARK                            x       y       z     vdW  Elec       q    Type
REMARK                         _______ _______ _______ _____ _____    ______ ____
ROOT
ATOM      1  C   UNL     1       2.986   5.370  19.719  0.00  0.00    +0.000 C 
ATOM      2  C   UNL     1       2.380   6.405  20.657  0.00  0.00    +0.000 C 
ATOM      3  C   UNL     1       1.592   7.484  19.947  0.00  0.00    +0.000 C 
ATOM      4  N   UNL     1       2.243   8.089  18.794  0.00  0.00    +0.000 N 
ATOM      5  C   UNL     1       1.803   9.300  18.213  0.00  0.00    +0.000 C 
ATOM      6  O   UNL     1       2.377   9.811  17.250  0.00  0.00    +0.000 OA
ATOM      7  C   UNL     1       3.065   7.239  17.932  0.00  0.00    +0.000 C 
ATOM      8  C   UNL     1       3.777   6.080  18.620  0.00  0.00    +0.000 C 
ENDROOT
BRANCH   5   9
ATOM      9  C   UNL     1       0.610  10.023  18.746  0.00  0.00    +0.000 A 
ATOM     10  C   UNL     1      -0.615  10.041  18.060  0.00  0.00    +0.000 A 
ATOM     11  C   UNL     1      -1.729  10.678  18.600  0.00  0.00    +0.000 A 
ATOM     12  C   UNL     1      -1.602  11.404  19.781  0.00  0.00    +0.000 A 
ATOM     13  C   UNL     1      -0.361  11.486  20.413  0.00  0.00    +0.000 A 
ATOM     14 CL   UNL     1      -0.190  12.479  21.806  0.00  0.00    +0.000 Cl
ATOM     15  C   UNL     1       0.743  10.785  19.911  0.00  0.00    +0.000 A 
ENDBRANCH   5   9
BRANCH   1  16
ATOM     16  N   UNL     1       2.045   4.274  19.233  0.00  0.00    +0.000 NA
BRANCH  16  17
ATOM     17  S   UNL     1       2.698   3.154  18.107  0.00  0.00    +0.000 S 
ATOM     18  C   UNL     1       4.043   2.429  19.022  0.00  0.00    +0.000 C 
ATOM     19  O   UNL     1       1.740   2.103  17.851  0.00  0.00    +0.000 OA
ATOM     20  O   UNL     1       3.274   3.895  17.005  0.00  0.00    +0.000 OA
ENDBRANCH  16  17
BRANCH  16  22
ATOM     21  C   UNL     1       1.193   2.941  21.264  0.00  0.00    +0.000 C 
ATOM     22  C   UNL     1       0.904   3.886  20.111  0.00  0.00    +0.000 C 
ENDBRANCH  16  22
ENDBRANCH   1  16
TORSDOF 4
ENDMDL
MODEL 8
REMARK VINA RESULT:      -6.2      4.032      7.237
REMARK  Name = 
REMARK  6 active torsions:
REMARK  status: ('A' for Active; 'I' for Inactive)
REMARK    1  A    between atoms: C_1  and  C_2
REMARK    2  A    between atoms: C_2  and  N_3
REMARK    3  A    between atoms: N_3  and  C_4
REMARK    4  A    between atoms: N_3  and  S_19
REMARK    5  A    between atoms: C_8  and  C_10
REMARK    6  A    between atoms: S_19  and  C_20
REMARK                            x       y       z     vdW  Elec       q    Type
REMARK                         _______ _______ _______ _____ _____    ______ ____
ROOT
ATOM      1  C   UNL     1       4.720   3.675  16.931  0.00  0.00    +0.000 C 
ATOM      2  C   UNL     1       3.530   4.578  16.634  0.00  0.00    +0.000 C 
ATOM      3  C   UNL     1       3.200   5.537  17.756  0.00  0.00    +0.000 C 
ATOM      4  N   UNL     1       3.142   4.957  19.090  0.00  0.00    +0.000 N 
ATOM      5  C   UNL     1       2.551   5.620  20.190  0.00  0.00    +0.000 C 
ATOM      6  O   UNL     1       2.492   5.106  21.309  0.00  0.00    +0.000 OA
ATOM      7  C   UNL     1       4.088   3.893  19.429  0.00  0.00    +0.000 C 
ATOM      8  C   UNL     1       4.514   2.987  18.280  0.00  0.00    +0.000 C 
ENDROOT
BRANCH   5   9
ATOM      9  C   UNL     1       1.969   6.987  20.045  0.00  0.00    +0.000 A 
ATOM     10  C   UNL     1       2.216   7.784  18.916  0.00  0.00    +0.000 A 
ATOM     11  C   UNL     1       1.621   9.035  18.778  0.00  0.00    +0.000 A 
ATOM     12  C   UNL     1       0.862   9.555  19.822  0.00  0.00    +0.000 A 
ATOM     13  C   UNL     1       0.703   8.819  20.996  0.00  0.00    +0.000 A 
ATOM     14 CL   UNL     1      -0.139   9.519  22.321  0.00  0.00    +0.000 Cl
ATOM     15  C   UNL     1       1.239   7.529  21.107  0.00  0.00    +0.000 A 
ENDBRANCH   5   9
BRANCH   1  16
ATOM     16  N   UNL     1       6.098   4.292  16.722  0.00  0.00    +0.000 NA
BRANCH  16  17
ATOM     17  S   UNL     1       6.348   5.109  15.233  0.00  0.00    +0.000 S 
ATOM     18  C   UNL     1       5.796   3.909  14.039  0.00  0.00    +0.000 C 
ATOM     19  O   UNL     1       5.458   6.243  15.142  0.00  0.00    +0.000 OA
ATOM     20  O   UNL     1       7.772   5.287  15.041  0.00  0.00    +0.000 OA
ENDBRANCH  16  17
BRANCH  16  22
ATOM     21  C   UNL     1       6.938   6.120  18.329  0.00  0.00    +0.000 C 
ATOM     22  C   UNL     1       6.896   4.656  17.928  0.00  0.00    +0.000 C 
ENDBRANCH  16  22
ENDBRANCH   1  16
TORSDOF 4
ENDMDL
MODEL 9
REMARK VINA RESULT:      -6.1      1.352      1.852
REMARK  Name = 
REMARK  6 active torsions:
REMARK  status: ('A' for Active; 'I' for Inactive)
REMARK    1  A    between atoms: C_1  and  C_2
REMARK    2  A    between atoms: C_2  and  N_3
REMARK    3  A    between atoms: N_3  and  C_4
REMARK    4  A    between atoms: N_3  and  S_19
REMARK    5  A    between atoms: C_8  and  C_10
REMARK    6  A    between atoms: S_19  and  C_20
REMARK                            x       y       z     vdW  Elec       q    Type
REMARK                         _______ _______ _______ _____ _____    ______ ____
ROOT
ATOM      1  C   UNL     1       3.581   5.241  19.023  0.00  0.00    +0.000 C 
ATOM      2  C   UNL     1       3.613   5.876  17.639  0.00  0.00    +0.000 C 
ATOM      3  C   UNL     1       4.587   5.215  16.689  0.00  0.00    +0.000 C 
ATOM      4  N   UNL     1       5.919   4.964  17.220  0.00  0.00    +0.000 N 
ATOM      5  C   UNL     1       7.026   4.652  16.398  0.00  0.00    +0.000 C 
ATOM      6  O   UNL     1       8.152   4.462  16.860  0.00  0.00    +0.000 OA
ATOM      7  C   UNL     1       6.048   4.574  18.624  0.00  0.00    +0.000 C 
ATOM      8  C   UNL     1       5.003   5.148  19.575  0.00  0.00    +0.000 C 
ENDROOT
BRANCH   5   9
ATOM      9  C   UNL     1       6.878   4.536  14.916  0.00  0.00    +0.000 A 
ATOM     10  C   UNL     1       7.778   5.148  14.030  0.00  0.00    +0.000 A 
ATOM     11  C   UNL     1       7.651   4.984  12.653  0.00  0.00    +0.000 A 
ATOM     12  C   UNL     1       6.554   4.299  12.140  0.00  0.00    +0.000 A 
ATOM     13  C   UNL     1       5.592   3.782  13.008  0.00  0.00    +0.000 A 
ATOM     14 CL   UNL     1       4.184   3.040  12.360  0.00  0.00    +0.000 Cl
ATOM     15  C   UNL     1       5.757   3.882  14.396  0.00  0.00    +0.000 A 
ENDBRANCH   5   9
BRANCH   1  16
ATOM     16  N   UNL     1       2.750   3.970  19.157  0.00  0.00    +0.000 NA
BRANCH  16  17
ATOM     17  S   UNL     1       1.816   3.523  17.787  0.00  0.00    +0.000 S 
ATOM     18  C   UNL     1       0.696   2.315  18.462  0.00  0.00    +0.000 C 
ATOM     19  O   UNL     1       1.020   4.647  17.351  0.00  0.00    +0.000 OA
ATOM     20  O   UNL     1       2.678   2.837  16.848  0.00  0.00    +0.000 OA
ENDBRANCH  16  17
BRANCH  16  22
ATOM     21  C   UNL     1       2.523   2.931  21.502  0.00  0.00    +0.000 C 
ATOM     22  C   UNL     1       3.193   2.939  20.139  0.00  0.00    +0.000 C 
ENDBRANCH  16  22
ENDBRANCH   1  16
TORSDOF 4
ENDMDL
