MODEL 1
REMARK VINA RESULT:      -7.9      0.000      0.000
REMARK  Name = 
REMARK  8 active torsions:
REMARK  status: ('A' for Active; 'I' for Inactive)
REMARK    1  A    between atoms: C_1  and  C_2
REMARK    2  A    between atoms: C_2  and  O_3
REMARK    3  A    between atoms: O_3  and  C_4
REMARK    4  A    between atoms: C_4  and  C_6
REMARK    5  A    between atoms: N_10  and  C_11
REMARK    6  A    between atoms: C_11  and  C_12
REMARK    7  A    between atoms: C_15  and  O_16
REMARK    8  A    between atoms: O_16  and  C_17
REMARK                            x       y       z     vdW  Elec       q    Type
REMARK                         _______ _______ _______ _____ _____    ______ ____
ROOT
ATOM      1  C   UNL     1       2.647   3.435  17.949  0.00  0.00    +0.000 A 
ATOM      2  C   UNL     1       3.216   3.049  16.743  0.00  0.00    +0.000 A 
ATOM      3  C   UNL     1       4.456   3.692  16.599  0.00  0.00    +0.000 A 
ATOM      4  C   UNL     1       4.678   4.448  17.738  0.00  0.00    +0.000 A 
ATOM      5  N   UNL     1       3.577   4.266  18.575  0.00  0.00    +0.000 N 
ATOM      6  C   UNL     1       5.877   5.260  17.984  0.00  0.00    +0.000 A 
ATOM      7  N   UNL     1       6.376   5.160  19.233  0.00  0.00    +0.000 NA
ATOM      8  C   UNL     1       7.546   5.754  19.468  0.00  0.00    +0.000 A 
ATOM      9  N   UNL     1       8.083   5.654  20.734  0.00  0.00    +0.000 N 
ATOM     10  N   UNL     1       8.223   6.476  18.574  0.00  0.00    +0.000 NA
ATOM     11  C   UNL     1       7.691   6.559  17.341  0.00  0.00    +0.000 A 
ATOM     12  C   UNL     1       6.512   5.951  16.961  0.00  0.00    +0.000 A 
ATOM     13  C   UNL     1       5.961   6.163  15.578  0.00  0.00    +0.000 C 
ATOM     14  C   UNL     1       5.451   4.975  14.738  0.00  0.00    +0.000 C 
ATOM     15  C   UNL     1       5.369   3.620  15.428  0.00  0.00    +0.000 C 
ATOM     16  H   UNL     1       7.347   5.443  21.403  0.00  0.00    +0.000 HD
ATOM     17  H   UNL     1       8.689   6.439  20.914  0.00  0.00    +0.000 HD
ENDROOT
BRANCH   1  18
ATOM     18  C   UNL     1       1.353   3.002  18.449  0.00  0.00    +0.000 C 
ATOM     19  O   UNL     1       0.258   3.284  17.984  0.00  0.00    +0.000 OA
BRANCH  18  20
ATOM     20  O   UNL     1       1.554   2.251  19.570  0.00  0.00    +0.000 OA
BRANCH  20  22
ATOM     21  C   UNL     1       2.014   2.622  21.920  0.00  0.00    +0.000 C 
ATOM     22  C   UNL     1       0.991   2.708  20.804  0.00  0.00    +0.000 C 
ENDBRANCH  20  22
ENDBRANCH  18  20
ENDBRANCH   1  18
BRANCH   5  23
ATOM     23  C   UNL     1       3.392   4.929  19.873  0.00  0.00    +0.000 C 
BRANCH  23  24
ATOM     24  C   UNL     1       2.599   6.221  19.837  0.00  0.00    +0.000 A 
ATOM     25  C   UNL     1       1.829   6.686  20.910  0.00  0.00    +0.000 A 
ATOM     26  C   UNL     1       1.246   7.955  20.875  0.00  0.00    +0.000 A 
ATOM     27  C   UNL     1       1.415   8.783  19.767  0.00  0.00    +0.000 A 
ATOM     28  C   UNL     1       2.102   8.301  18.655  0.00  0.00    +0.000 A 
ATOM     29  C   UNL     1       2.688   7.030  18.689  0.00  0.00    +0.000 A 
BRANCH  27  30
ATOM     30  O   UNL     1       0.844  10.022  19.858  0.00  0.00    +0.000 OA
ATOM     31  C   UNL     1      -0.456  10.126  19.282  0.00  0.00    +0.000 C 
ENDBRANCH  27  30
ENDBRANCH  23  24
ENDBRANCH   5  23
TORSDOF 6
ENDMDL
MODEL 2
REMARK VINA RESULT:      -6.9      2.754      5.268
REMARK  Name = 
REMARK  8 active torsions:
REMARK  status: ('A' for Active; 'I' for Inactive)
REMARK    1  A    between atoms: C_1  and  C_2
REMARK    2  A    between atoms: C_2  and  O_3
REMARK    3  A    between atoms: O_3  and  C_4
REMARK    4  A    between atoms: C_4  and  C_6
REMARK    5  A    between atoms: N_10  and  C_11
REMARK    6  A    between atoms: C_11  and  C_12
REMARK    7  A    between atoms: C_15  and  O_16
REMARK    8  A    between atoms: O_16  and  C_17
REMARK                            x       y       z     vdW  Elec       q    Type
REMARK                         _______ _______ _______ _____ _____    ______ ____
ROOT
ATOM      1  C   UNL     1       1.540   7.848  20.797  0.00  0.00    +0.000 A 
ATOM      2  C   UNL     1       1.480   6.586  21.372  0.00  0.00    +0.000 A 
ATOM      3  C   UNL     1       2.003   5.649  20.467  0.00  0.00    +0.000 A 
ATOM      4  C   UNL     1       2.428   6.335  19.341  0.00  0.00    +0.000 A 
ATOM      5  N   UNL     1       2.165   7.687  19.560  0.00  0.00    +0.000 N 
ATOM      6  C   UNL     1       3.053   5.713  18.167  0.00  0.00    +0.000 A 
ATOM      7  N   UNL     1       4.120   6.378  17.680  0.00  0.00    +0.000 NA
ATOM      8  C   UNL     1       4.817   5.783  16.712  0.00  0.00    +0.000 A 
ATOM      9  N   UNL     1       5.920   6.439  16.208  0.00  0.00    +0.000 N 
ATOM     10  N   UNL     1       4.502   4.609  16.163  0.00  0.00    +0.000 NA
ATOM     11  C   UNL     1       3.428   3.978  16.671  0.00  0.00    +0.000 A 
ATOM     12  C   UNL     1       2.654   4.467  17.703  0.00  0.00    +0.000 A 
ATOM     13  C   UNL     1       1.427   3.720  18.151  0.00  0.00    +0.000 C 
ATOM     14  C   UNL     1       1.151   3.480  19.649  0.00  0.00    +0.000 C 
ATOM     15  C   UNL     1       2.069   4.174  20.646  0.00  0.00    +0.000 C 
ATOM     16  H   UNL     1       5.842   7.435  16.397  0.00  0.00    +0.000 HD
ATOM     17  H   UNL     1       6.096   6.139  15.263  0.00  0.00    +0.000 HD
ENDROOT
BRANCH   1  18
ATOM     18  C   UNL     1       1.072   9.079  21.412  0.00  0.00    +0.000 C 
ATOM     19  O   UNL     1       1.757   9.925  21.966  0.00  0.00    +0.000 OA
BRANCH  18  20
ATOM     20  O   UNL     1      -0.288   9.122  21.308  0.00  0.00    +0.000 OA
BRANCH  20  22
ATOM     21  C   UNL     1      -1.065  10.463  23.170  0.00  0.00    +0.000 C 
ATOM     22  C   UNL     1      -0.958  10.337  21.664  0.00  0.00    +0.000 C 
ENDBRANCH  20  22
ENDBRANCH  18  20
ENDBRANCH   1  18
BRANCH   5  23
ATOM     23  C   UNL     1       2.424   8.759  18.589  0.00  0.00    +0.000 C 
BRANCH  23  24
ATOM     24  C   UNL     1       1.260   9.694  18.326  0.00  0.00    +0.000 A 
ATOM     25  C   UNL     1       0.030   9.273  17.807  0.00  0.00    +0.000 A 
ATOM     26  C   UNL     1      -1.053  10.153  17.731  0.00  0.00    +0.000 A 
ATOM     27  C   UNL     1      -0.929  11.471  18.165  0.00  0.00    +0.000 A 
ATOM     28  C   UNL     1       0.312  11.931  18.600  0.00  0.00    +0.000 A 
ATOM     29  C   UNL     1       1.398  11.050  18.678  0.00  0.00    +0.000 A 
BRANCH  27  30
ATOM     30  O   UNL     1      -2.064  12.231  18.092  0.00  0.00    +0.000 OA
ATOM     31  C   UNL     1      -3.253  11.504  17.796  0.00  0.00    +0.000 C 
ENDBRANCH  27  30
ENDBRANCH  23  24
ENDBRANCH   5  23
TORSDOF 6
ENDMDL
MODEL 3
REMARK VINA RESULT:      -6.7      5.434      9.860
REMARK  Name = 
REMARK  8 active torsions:
REMARK  status: ('A' for Active; 'I' for Inactive)
REMARK    1  A    between atoms: C_1  and  C_2
REMARK    2  A    between atoms: C_2  and  O_3
REMARK    3  A    between atoms: O_3  and  C_4
REMARK    4  A    between atoms: C_4  and  C_6
REMARK    5  A    between atoms: N_10  and  C_11
REMARK    6  A    between atoms: C_11  and  C_12
REMARK    7  A    between atoms: C_15  and  O_16
REMARK    8  A    between atoms: O_16  and  C_17
REMARK                            x       y       z     vdW  Elec       q    Type
REMARK                         _______ _______ _______ _____ _____    ______ ____
ROOT
ATOM      1  C   UNL     1      -2.236  11.464  18.357  0.00  0.00    +0.000 A 
ATOM      2  C   UNL     1      -3.422  11.892  18.937  0.00  0.00    +0.000 A 
ATOM      3  C   UNL     1      -3.121  12.666  20.070  0.00  0.00    +0.000 A 
ATOM      4  C   UNL     1      -1.743  12.754  20.171  0.00  0.00    +0.000 A 
ATOM      5  N   UNL     1      -1.204  12.037  19.102  0.00  0.00    +0.000 N 
ATOM      6  C   UNL     1      -1.025  13.495  21.216  0.00  0.00    +0.000 A 
ATOM      7  N   UNL     1       0.018  14.225  20.772  0.00  0.00    +0.000 NA
ATOM      8  C   UNL     1       0.610  15.034  21.649  0.00  0.00    +0.000 A 
ATOM      9  N   UNL     1       1.671  15.800  21.214  0.00  0.00    +0.000 N 
ATOM     10  N   UNL     1       0.276  15.131  22.937  0.00  0.00    +0.000 NA
ATOM     11  C   UNL     1      -0.765  14.384  23.345  0.00  0.00    +0.000 A 
ATOM     12  C   UNL     1      -1.489  13.544  22.524  0.00  0.00    +0.000 A 
ATOM     13  C   UNL     1      -2.591  12.692  23.092  0.00  0.00    +0.000 C 
ATOM     14  C   UNL     1      -3.962  12.602  22.391  0.00  0.00    +0.000 C 
ATOM     15  C   UNL     1      -4.090  13.264  21.026  0.00  0.00    +0.000 C 
ATOM     16  H   UNL     1       2.077  15.382  20.382  0.00  0.00    +0.000 HD
ATOM     17  H   UNL     1       2.277  16.021  21.989  0.00  0.00    +0.000 HD
ENDROOT
BRANCH   1  18
ATOM     18  C   UNL     1      -2.128  10.622  17.178  0.00  0.00    +0.000 C 
ATOM     19  O   UNL     1      -1.710   9.474  17.136  0.00  0.00    +0.000 OA
BRANCH  18  20
ATOM     20  O   UNL     1      -2.536  11.344  16.094  0.00  0.00    +0.000 OA
BRANCH  20  22
ATOM     21  C   UNL     1      -3.081  10.030  14.133  0.00  0.00    +0.000 C 
ATOM     22  C   UNL     1      -3.614  10.832  15.304  0.00  0.00    +0.000 C 
ENDBRANCH  20  22
ENDBRANCH  18  20
ENDBRANCH   1  18
BRANCH   5  23
ATOM     23  C   UNL     1       0.231  11.842  18.863  0.00  0.00    +0.000 C 
BRANCH  23  24
ATOM     24  C   UNL     1       0.746  10.435  19.098  0.00  0.00    +0.000 A 
ATOM     25  C   UNL     1       1.467   9.705  18.145  0.00  0.00    +0.000 A 
ATOM     26  C   UNL     1       2.046   8.476  18.474  0.00  0.00    +0.000 A 
ATOM     27  C   UNL     1       1.912   7.949  19.757  0.00  0.00    +0.000 A 
ATOM     28  C   UNL     1       1.122   8.618  20.690  0.00  0.00    +0.000 A 
ATOM     29  C   UNL     1       0.543   9.850  20.362  0.00  0.00    +0.000 A 
BRANCH  27  30
ATOM     30  O   UNL     1       2.559   6.766  19.984  0.00  0.00    +0.000 OA
ATOM     31  C   UNL     1       1.745   5.736  20.538  0.00  0.00    +0.000 C 
ENDBRANCH  27  30
ENDBRANCH  23  24
ENDBRANCH   5  23
TORSDOF 6
ENDMDL
MODEL 4
REMARK VINA RESULT:      -6.6      6.618     11.182
REMARK  Name = 
REMARK  8 active torsions:
REMARK  status: ('A' for Active; 'I' for Inactive)
REMARK    1  A    between atoms: C_1  and  C_2
REMARK    2  A    between atoms: C_2  and  O_3
REMARK    3  A    between atoms: O_3  and  C_4
REMARK    4  A    between atoms: C_4  and  C_6
REMARK    5  A    between atoms: N_10  and  C_11
REMARK    6  A    between atoms: C_11  and  C_12
REMARK    7  A    between atoms: C_15  and  O_16
REMARK    8  A    between atoms: O_16  and  C_17
REMARK                            x       y       z     vdW  Elec       q    Type
REMARK                         _______ _______ _______ _____ _____    ______ ____
ROOT
ATOM      1  C   UNL     1      -4.766  13.504  21.651  0.00  0.00    +0.000 A 
ATOM      2  C   UNL     1      -5.951  12.857  21.327  0.00  0.00    +0.000 A 
ATOM      3  C   UNL     1      -5.784  12.189  20.104  0.00  0.00    +0.000 A 
ATOM      4  C   UNL     1      -4.478  12.386  19.685  0.00  0.00    +0.000 A 
ATOM      5  N   UNL     1      -3.850  13.172  20.651  0.00  0.00    +0.000 N 
ATOM      6  C   UNL     1      -3.900  11.832  18.454  0.00  0.00    +0.000 A 
ATOM      7  N   UNL     1      -2.660  11.320  18.596  0.00  0.00    +0.000 NA
ATOM      8  C   UNL     1      -2.148  10.670  17.552  0.00  0.00    +0.000 A 
ATOM      9  N   UNL     1      -0.887  10.127  17.678  0.00  0.00    +0.000 N 
ATOM     10  N   UNL     1      -2.753  10.537  16.370  0.00  0.00    +0.000 NA
ATOM     11  C   UNL     1      -3.985  11.066  16.264  0.00  0.00    +0.000 A 
ATOM     12  C   UNL     1      -4.642  11.721  17.286  0.00  0.00    +0.000 A 
ATOM     13  C   UNL     1      -5.990  12.342  17.046  0.00  0.00    +0.000 C 
ATOM     14  C   UNL     1      -7.146  12.134  18.045  0.00  0.00    +0.000 C 
ATOM     15  C   UNL     1      -6.817  11.428  19.353  0.00  0.00    +0.000 C 
ATOM     16  H   UNL     1      -0.384  10.599  18.425  0.00  0.00    +0.000 HD
ATOM     17  H   UNL     1      -0.452  10.053  16.773  0.00  0.00    +0.000 HD
ENDROOT
BRANCH   1  18
ATOM     18  C   UNL     1      -4.546  14.323  22.831  0.00  0.00    +0.000 C 
ATOM     19  O   UNL     1      -4.871  15.492  22.980  0.00  0.00    +0.000 OA
BRANCH  18  20
ATOM     20  O   UNL     1      -3.867  13.579  23.751  0.00  0.00    +0.000 OA
BRANCH  20  22
ATOM     21  C   UNL     1      -1.770  14.648  24.323  0.00  0.00    +0.000 C 
ATOM     22  C   UNL     1      -3.160  14.264  24.790  0.00  0.00    +0.000 C 
ENDBRANCH  20  22
ENDBRANCH  18  20
ENDBRANCH   1  18
BRANCH   5  23
ATOM     23  C   UNL     1      -2.464  13.651  20.571  0.00  0.00    +0.000 C 
BRANCH  23  24
ATOM     24  C   UNL     1      -1.413  12.694  21.099  0.00  0.00    +0.000 A 
ATOM     25  C   UNL     1      -1.651  11.772  22.125  0.00  0.00    +0.000 A 
ATOM     26  C   UNL     1      -0.691  10.814  22.463  0.00  0.00    +0.000 A 
ATOM     27  C   UNL     1       0.526  10.760  21.788  0.00  0.00    +0.000 A 
ATOM     28  C   UNL     1       0.816  11.726  20.826  0.00  0.00    +0.000 A 
ATOM     29  C   UNL     1      -0.146  12.686  20.486  0.00  0.00    +0.000 A 
BRANCH  27  30
ATOM     30  O   UNL     1       1.371   9.753  22.164  0.00  0.00    +0.000 OA
ATOM     31  C   UNL     1       1.218   8.539  21.434  0.00  0.00    +0.000 C 
ENDBRANCH  27  30
ENDBRANCH  23  24
ENDBRANCH   5  23
TORSDOF 6
ENDMDL
MODEL 5
REMARK VINA RESULT:      -6.6      6.010      9.093
REMARK  Name = 
REMARK  8 active torsions:
REMARK  status: ('A' for Active; 'I' for Inactive)
REMARK    1  A    between atoms: C_1  and  C_2
REMARK    2  A    between atoms: C_2  and  O_3
REMARK    3  A    between atoms: O_3  and  C_4
REMARK    4  A    between atoms: C_4  and  C_6
REMARK    5  A    between atoms: N_10  and  C_11
REMARK    6  A    between atoms: C_11  and  C_12
REMARK    7  A    between atoms: C_15  and  O_16
REMARK    8  A    between atoms: O_16  and  C_17
REMARK                            x       y       z     vdW  Elec       q    Type
REMARK                         _______ _______ _______ _____ _____    ______ ____
ROOT
ATOM      1  C   UNL     1      -1.275  11.565  22.645  0.00  0.00    +0.000 A 
ATOM      2  C   UNL     1      -0.495  10.520  23.123  0.00  0.00    +0.000 A 
ATOM      3  C   UNL     1       0.384  10.108  22.109  0.00  0.00    +0.000 A 
ATOM      4  C   UNL     1       0.180  10.927  21.010  0.00  0.00    +0.000 A 
ATOM      5  N   UNL     1      -0.820  11.835  21.353  0.00  0.00    +0.000 N 
ATOM      6  C   UNL     1       0.921  10.830  19.745  0.00  0.00    +0.000 A 
ATOM      7  N   UNL     1       1.306  12.015  19.229  0.00  0.00    +0.000 NA
ATOM      8  C   UNL     1       2.110  11.981  18.165  0.00  0.00    +0.000 A 
ATOM      9  N   UNL     1       2.528  13.180  17.628  0.00  0.00    +0.000 N 
ATOM     10  N   UNL     1       2.511  10.866  17.553  0.00  0.00    +0.000 NA
ATOM     11  C   UNL     1       2.101   9.704  18.093  0.00  0.00    +0.000 A 
ATOM     12  C   UNL     1       1.308   9.605  19.218  0.00  0.00    +0.000 A 
ATOM     13  C   UNL     1       0.841   8.260  19.702  0.00  0.00    +0.000 C 
ATOM     14  C   UNL     1       0.932   7.881  21.194  0.00  0.00    +0.000 C 
ATOM     15  C   UNL     1       1.347   8.977  22.166  0.00  0.00    +0.000 C 
ATOM     16  H   UNL     1       1.886  13.919  17.899  0.00  0.00    +0.000 HD
ATOM     17  H   UNL     1       2.745  13.062  16.651  0.00  0.00    +0.000 HD
ENDROOT
BRANCH   1  18
ATOM     18  C   UNL     1      -2.320  12.248  23.388  0.00  0.00    +0.000 C 
ATOM     19  O   UNL     1      -3.449  11.835  23.607  0.00  0.00    +0.000 OA
BRANCH  18  20
ATOM     20  O   UNL     1      -1.847  13.468  23.775  0.00  0.00    +0.000 OA
BRANCH  20  22
ATOM     21  C   UNL     1      -3.033  14.988  25.242  0.00  0.00    +0.000 C 
ATOM     22  C   UNL     1      -2.760  14.570  23.810  0.00  0.00    +0.000 C 
ENDBRANCH  20  22
ENDBRANCH  18  20
ENDBRANCH   1  18
BRANCH   5  23
ATOM     23  C   UNL     1      -1.370  12.856  20.451  0.00  0.00    +0.000 C 
BRANCH  23  24
ATOM     24  C   UNL     1      -2.624  12.453  19.699  0.00  0.00    +0.000 A 
ATOM     25  C   UNL     1      -2.615  11.642  18.558  0.00  0.00    +0.000 A 
ATOM     26  C   UNL     1      -3.810  11.180  18.000  0.00  0.00    +0.000 A 
ATOM     27  C   UNL     1      -5.036  11.521  18.565  0.00  0.00    +0.000 A 
ATOM     28  C   UNL     1      -5.067  12.400  19.646  0.00  0.00    +0.000 A 
ATOM     29  C   UNL     1      -3.871  12.863  20.207  0.00  0.00    +0.000 A 
BRANCH  27  30
ATOM     30  O   UNL     1      -6.139  10.975  17.969  0.00  0.00    +0.000 OA
ATOM     31  C   UNL     1      -6.995  10.249  18.847  0.00  0.00    +0.000 C 
ENDBRANCH  27  30
ENDBRANCH  23  24
ENDBRANCH   5  23
TORSDOF 6
ENDMDL
MODEL 6
REMARK VINA RESULT:      -6.6      6.601     11.522
REMARK  Name = 
REMARK  8 active torsions:
REMARK  status: ('A' for Active; 'I' for Inactive)
REMARK    1  A    between atoms: C_1  and  C_2
REMARK    2  A    between atoms: C_2  and  O_3
REMARK    3  A    between atoms: O_3  and  C_4
REMARK    4  A    between atoms: C_4  and  C_6
REMARK    5  A    between atoms: N_10  and  C_11
REMARK    6  A    between atoms: C_11  and  C_12
REMARK    7  A    between atoms: C_15  and  O_16
REMARK    8  A    between atoms: O_16  and  C_17
REMARK                            x       y       z     vdW  Elec       q    Type
REMARK                         _______ _______ _______ _____ _____    ______ ____
ROOT
ATOM      1  C   UNL     1      -4.804  13.196  21.915  0.00  0.00    +0.000 A 
ATOM      2  C   UNL     1      -6.000  12.576  21.579  0.00  0.00    +0.000 A 
ATOM      3  C   UNL     1      -5.884  12.032  20.291  0.00  0.00    +0.000 A 
ATOM      4  C   UNL     1      -4.597  12.277  19.839  0.00  0.00    +0.000 A 
ATOM      5  N   UNL     1      -3.931  12.968  20.850  0.00  0.00    +0.000 N 
ATOM      6  C   UNL     1      -4.071  11.848  18.537  0.00  0.00    +0.000 A 
ATOM      7  N   UNL     1      -2.826  11.333  18.575  0.00  0.00    +0.000 NA
ATOM      8  C   UNL     1      -2.358  10.790  17.452  0.00  0.00    +0.000 A 
ATOM      9  N   UNL     1      -1.091  10.245  17.471  0.00  0.00    +0.000 N 
ATOM     10  N   UNL     1      -3.012  10.770  16.289  0.00  0.00    +0.000 NA
ATOM     11  C   UNL     1      -4.249  11.300  16.287  0.00  0.00    +0.000 A 
ATOM     12  C   UNL     1      -4.862  11.848  17.395  0.00  0.00    +0.000 A 
ATOM     13  C   UNL     1      -6.221  12.482  17.274  0.00  0.00    +0.000 C 
ATOM     14  C   UNL     1      -7.333  12.170  18.296  0.00  0.00    +0.000 C 
ATOM     15  C   UNL     1      -6.947  11.342  19.513  0.00  0.00    +0.000 C 
ATOM     16  H   UNL     1      -0.558  10.645  18.238  0.00  0.00    +0.000 HD
ATOM     17  H   UNL     1      -0.695  10.262  16.546  0.00  0.00    +0.000 HD
ENDROOT
BRANCH   1  18
ATOM     18  C   UNL     1      -4.535  13.897  23.159  0.00  0.00    +0.000 C 
ATOM     19  O   UNL     1      -4.165  13.401  24.212  0.00  0.00    +0.000 OA
BRANCH  18  20
ATOM     20  O   UNL     1      -4.809  15.221  22.975  0.00  0.00    +0.000 OA
BRANCH  20  22
ATOM     21  C   UNL     1      -6.197  17.127  23.535  0.00  0.00    +0.000 C 
ATOM     22  C   UNL     1      -5.397  15.950  24.058  0.00  0.00    +0.000 C 
ENDBRANCH  20  22
ENDBRANCH  18  20
ENDBRANCH   1  18
BRANCH   5  23
ATOM     23  C   UNL     1      -2.550  13.461  20.758  0.00  0.00    +0.000 C 
BRANCH  23  24
ATOM     24  C   UNL     1      -1.484  12.509  21.267  0.00  0.00    +0.000 A 
ATOM     25  C   UNL     1      -1.647  11.694  22.394  0.00  0.00    +0.000 A 
ATOM     26  C   UNL     1      -0.692  10.729  22.722  0.00  0.00    +0.000 A 
ATOM     27  C   UNL     1       0.447  10.561  21.938  0.00  0.00    +0.000 A 
ATOM     28  C   UNL     1       0.669  11.424  20.867  0.00  0.00    +0.000 A 
ATOM     29  C   UNL     1      -0.288  12.390  20.535  0.00  0.00    +0.000 A 
BRANCH  27  30
ATOM     30  O   UNL     1       1.291   9.556  22.322  0.00  0.00    +0.000 OA
ATOM     31  C   UNL     1       1.316   8.430  21.448  0.00  0.00    +0.000 C 
ENDBRANCH  27  30
ENDBRANCH  23  24
ENDBRANCH   5  23
TORSDOF 6
ENDMDL
MODEL 7
REMARK VINA RESULT:      -6.6      6.631     11.508
REMARK  Name = 
REMARK  8 active torsions:
REMARK  status: ('A' for Active; 'I' for Inactive)
REMARK    1  A    between atoms: C_1  and  C_2
REMARK    2  A    between atoms: C_2  and  O_3
REMARK    3  A    between atoms: O_3  and  C_4
REMARK    4  A    between atoms: C_4  and  C_6
REMARK    5  A    between atoms: N_10  and  C_11
REMARK    6  A    between atoms: C_11  and  C_12
REMARK    7  A    between atoms: C_15  and  O_16
REMARK    8  A    between atoms: O_16  and  C_17
REMARK                            x       y       z     vdW  Elec       q    Type
REMARK                         _______ _______ _______ _____ _____    ______ ____
ROOT
ATOM      1  C   UNL     1      -1.217  11.618  21.970  0.00  0.00    +0.000 A 
ATOM      2  C   UNL     1      -1.805  11.468  23.219  0.00  0.00    +0.000 A 
ATOM      3  C   UNL     1      -2.996  12.211  23.253  0.00  0.00    +0.000 A 
ATOM      4  C   UNL     1      -3.171  12.791  22.008  0.00  0.00    +0.000 A 
ATOM      5  N   UNL     1      -2.091  12.403  21.216  0.00  0.00    +0.000 N 
ATOM      6  C   UNL     1      -4.312  13.635  21.630  0.00  0.00    +0.000 A 
ATOM      7  N   UNL     1      -4.824  13.375  20.410  0.00  0.00    +0.000 NA
ATOM      8  C   UNL     1      -5.951  14.005  20.077  0.00  0.00    +0.000 A 
ATOM      9  N   UNL     1      -6.500  13.744  18.840  0.00  0.00    +0.000 N 
ATOM     10  N   UNL     1      -6.571  14.904  20.843  0.00  0.00    +0.000 NA
ATOM     11  C   UNL     1      -6.028  15.143  22.050  0.00  0.00    +0.000 A 
ATOM     12  C   UNL     1      -4.892  14.521  22.528  0.00  0.00    +0.000 A 
ATOM     13  C   UNL     1      -4.320  14.910  23.864  0.00  0.00    +0.000 C 
ATOM     14  C   UNL     1      -3.889  13.837  24.883  0.00  0.00    +0.000 C 
ATOM     15  C   UNL     1      -3.906  12.388  24.415  0.00  0.00    +0.000 C 
ATOM     16  H   UNL     1      -5.785  13.379  18.218  0.00  0.00    +0.000 HD
ATOM     17  H   UNL     1      -7.051  14.531  18.535  0.00  0.00    +0.000 HD
ENDROOT
BRANCH   1  18
ATOM     18  C   UNL     1       0.041  11.022  21.552  0.00  0.00    +0.000 C 
ATOM     19  O   UNL     1       1.070  11.615  21.264  0.00  0.00    +0.000 OA
BRANCH  18  20
ATOM     20  O   UNL     1      -0.124   9.669  21.488  0.00  0.00    +0.000 OA
BRANCH  20  22
ATOM     21  C   UNL     1       1.429   7.951  20.776  0.00  0.00    +0.000 C 
ATOM     22  C   UNL     1       0.957   8.833  21.915  0.00  0.00    +0.000 C 
ENDBRANCH  20  22
ENDBRANCH  18  20
ENDBRANCH   1  18
BRANCH   5  23
ATOM     23  C   UNL     1      -1.867  12.838  19.831  0.00  0.00    +0.000 C 
BRANCH  23  24
ATOM     24  C   UNL     1      -2.226  11.823  18.764  0.00  0.00    +0.000 A 
ATOM     25  C   UNL     1      -3.487  11.746  18.161  0.00  0.00    +0.000 A 
ATOM     26  C   UNL     1      -3.711  10.892  17.077  0.00  0.00    +0.000 A 
ATOM     27  C   UNL     1      -2.684  10.096  16.577  0.00  0.00    +0.000 A 
ATOM     28  C   UNL     1      -1.448  10.093  17.221  0.00  0.00    +0.000 A 
ATOM     29  C   UNL     1      -1.222  10.948  18.307  0.00  0.00    +0.000 A 
BRANCH  27  30
ATOM     30  O   UNL     1      -2.998   9.336  15.484  0.00  0.00    +0.000 OA
ATOM     31  C   UNL     1      -3.326  10.079  14.313  0.00  0.00    +0.000 C 
ENDBRANCH  27  30
ENDBRANCH  23  24
ENDBRANCH   5  23
TORSDOF 6
ENDMDL
MODEL 8
REMARK VINA RESULT:      -6.6      6.164      9.263
REMARK  Name = 
REMARK  8 active torsions:
REMARK  status: ('A' for Active; 'I' for Inactive)
REMARK    1  A    between atoms: C_1  and  C_2
REMARK    2  A    between atoms: C_2  and  O_3
REMARK    3  A    between atoms: O_3  and  C_4
REMARK    4  A    between atoms: C_4  and  C_6
REMARK    5  A    between atoms: N_10  and  C_11
REMARK    6  A    between atoms: C_11  and  C_12
REMARK    7  A    between atoms: C_15  and  O_16
REMARK    8  A    between atoms: O_16  and  C_17
REMARK                            x       y       z     vdW  Elec       q    Type
REMARK                         _______ _______ _______ _____ _____    ______ ____
ROOT
ATOM      1  C   UNL     1      -1.508  11.947  22.722  0.00  0.00    +0.000 A 
ATOM      2  C   UNL     1      -0.765  10.920  23.287  0.00  0.00    +0.000 A 
ATOM      3  C   UNL     1       0.094  10.390  22.311  0.00  0.00    +0.000 A 
ATOM      4  C   UNL     1      -0.085  11.118  21.146  0.00  0.00    +0.000 A 
ATOM      5  N   UNL     1      -1.050  12.089  21.411  0.00  0.00    +0.000 N 
ATOM      6  C   UNL     1       0.646  10.886  19.894  0.00  0.00    +0.000 A 
ATOM      7  N   UNL     1       1.073  12.006  19.276  0.00  0.00    +0.000 NA
ATOM      8  C   UNL     1       1.869  11.852  18.219  0.00  0.00    +0.000 A 
ATOM      9  N   UNL     1       2.329  12.984  17.580  0.00  0.00    +0.000 N 
ATOM     10  N   UNL     1       2.227  10.674  17.705  0.00  0.00    +0.000 NA
ATOM     11  C   UNL     1       1.777   9.578  18.343  0.00  0.00    +0.000 A 
ATOM     12  C   UNL     1       0.986   9.607  19.474  0.00  0.00    +0.000 A 
ATOM     13  C   UNL     1       0.472   8.326  20.072  0.00  0.00    +0.000 C 
ATOM     14  C   UNL     1       0.556   8.073  21.591  0.00  0.00    +0.000 C 
ATOM     15  C   UNL     1       1.015   9.233  22.465  0.00  0.00    +0.000 C 
ATOM     16  H   UNL     1       1.716  13.767  17.787  0.00  0.00    +0.000 HD
ATOM     17  H   UNL     1       2.537  12.774  16.617  0.00  0.00    +0.000 HD
ENDROOT
BRANCH   1  18
ATOM     18  C   UNL     1      -2.525  12.729  23.405  0.00  0.00    +0.000 C 
ATOM     19  O   UNL     1      -2.435  13.895  23.758  0.00  0.00    +0.000 OA
BRANCH  18  20
ATOM     20  O   UNL     1      -3.604  11.926  23.633  0.00  0.00    +0.000 OA
BRANCH  20  22
ATOM     21  C   UNL     1      -5.851  12.757  23.999  0.00  0.00    +0.000 C 
ATOM     22  C   UNL     1      -4.545  12.323  24.636  0.00  0.00    +0.000 C 
ENDBRANCH  20  22
ENDBRANCH  18  20
ENDBRANCH   1  18
BRANCH   5  23
ATOM     23  C   UNL     1      -1.566  13.047  20.425  0.00  0.00    +0.000 C 
BRANCH  23  24
ATOM     24  C   UNL     1      -2.810  12.607  19.678  0.00  0.00    +0.000 A 
ATOM     25  C   UNL     1      -2.782  11.786  18.544  0.00  0.00    +0.000 A 
ATOM     26  C   UNL     1      -3.965  11.289  17.991  0.00  0.00    +0.000 A 
ATOM     27  C   UNL     1      -5.199  11.606  18.554  0.00  0.00    +0.000 A 
ATOM     28  C   UNL     1      -5.251  12.494  19.627  0.00  0.00    +0.000 A 
ATOM     29  C   UNL     1      -4.066  12.992  20.183  0.00  0.00    +0.000 A 
BRANCH  27  30
ATOM     30  O   UNL     1      -6.289  11.027  17.964  0.00  0.00    +0.000 OA
ATOM     31  C   UNL     1      -6.998  10.107  18.790  0.00  0.00    +0.000 C 
ENDBRANCH  27  30
ENDBRANCH  23  24
ENDBRANCH   5  23
TORSDOF 6
ENDMDL
MODEL 9
REMARK VINA RESULT:      -6.6      8.612     10.343
REMARK  Name = 
REMARK  8 active torsions:
REMARK  status: ('A' for Active; 'I' for Inactive)
REMARK    1  A    between atoms: C_1  and  C_2
REMARK    2  A    between atoms: C_2  and  O_3
REMARK    3  A    between atoms: O_3  and  C_4
REMARK    4  A    between atoms: C_4  and  C_6
REMARK    5  A    between atoms: N_10  and  C_11
REMARK    6  A    between atoms: C_11  and  C_12
REMARK    7  A    between atoms: C_15  and  O_16
REMARK    8  A    between atoms: O_16  and  C_17
REMARK                            x       y       z     vdW  Elec       q    Type
REMARK                         _______ _______ _______ _____ _____    ______ ____
ROOT
ATOM      1  C   UNL     1       7.763  13.711  21.948  0.00  0.00    +0.000 A 
ATOM      2  C   UNL     1       8.329  12.445  22.018  0.00  0.00    +0.000 A 
ATOM      3  C   UNL     1       9.176  12.264  20.913  0.00  0.00    +0.000 A 
ATOM      4  C   UNL     1       9.171  13.437  20.176  0.00  0.00    +0.000 A 
ATOM      5  N   UNL     1       8.323  14.331  20.829  0.00  0.00    +0.000 N 
ATOM      6  C   UNL     1       9.948  13.659  18.950  0.00  0.00    +0.000 A 
ATOM      7  N   UNL     1      10.555  14.861  18.879  0.00  0.00    +0.000 NA
ATOM      8  C   UNL     1      11.395  15.059  17.863  0.00  0.00    +0.000 A 
ATOM      9  N   UNL     1      12.037  16.276  17.777  0.00  0.00    +0.000 N 
ATOM     10  N   UNL     1      11.632  14.175  16.892  0.00  0.00    +0.000 NA
ATOM     11  C   UNL     1      11.003  12.990  16.992  0.00  0.00    +0.000 A 
ATOM     12  C   UNL     1      10.148  12.647  18.020  0.00  0.00    +0.000 A 
ATOM     13  C   UNL     1       9.436  11.323  18.005  0.00  0.00    +0.000 C 
ATOM     14  C   UNL     1       9.384  10.437  19.266  0.00  0.00    +0.000 C 
ATOM     15  C   UNL     1       9.929  11.033  20.557  0.00  0.00    +0.000 C 
ATOM     16  H   UNL     1      11.517  16.975  18.300  0.00  0.00    +0.000 HD
ATOM     17  H   UNL     1      12.281  16.469  16.820  0.00  0.00    +0.000 HD
ENDROOT
BRANCH   1  18
ATOM     18  C   UNL     1       6.812  14.265  22.897  0.00  0.00    +0.000 C 
ATOM     19  O   UNL     1       7.065  14.996  23.843  0.00  0.00    +0.000 OA
BRANCH  18  20
ATOM     20  O   UNL     1       5.569  13.796  22.584  0.00  0.00    +0.000 OA
BRANCH  20  22
ATOM     21  C   UNL     1       3.535  14.240  21.346  0.00  0.00    +0.000 C 
ATOM     22  C   UNL     1       4.516  14.745  22.385  0.00  0.00    +0.000 C 
ENDBRANCH  20  22
ENDBRANCH  18  20
ENDBRANCH   1  18
BRANCH   5  23
ATOM     23  C   UNL     1       8.001  15.682  20.352  0.00  0.00    +0.000 C 
BRANCH  23  24
ATOM     24  C   UNL     1       6.766  15.787  19.478  0.00  0.00    +0.000 A 
ATOM     25  C   UNL     1       6.411  14.830  18.520  0.00  0.00    +0.000 A 
ATOM     26  C   UNL     1       5.184  14.903  17.856  0.00  0.00    +0.000 A 
ATOM     27  C   UNL     1       4.290  15.936  18.129  0.00  0.00    +0.000 A 
ATOM     28  C   UNL     1       4.664  16.946  19.013  0.00  0.00    +0.000 A 
ATOM     29  C   UNL     1       5.893  16.873  19.680  0.00  0.00    +0.000 A 
BRANCH  27  30
ATOM     30  O   UNL     1       3.099  15.884  17.459  0.00  0.00    +0.000 OA
ATOM     31  C   UNL     1       2.697  17.112  16.858  0.00  0.00    +0.000 C 
ENDBRANCH  27  30
ENDBRANCH  23  24
ENDBRANCH   5  23
TORSDOF 6
ENDMDL
