MODEL 1
REMARK VINA RESULT:      -8.1      0.000      0.000
REMARK  Name = 
REMARK  9 active torsions:
REMARK  status: ('A' for Active; 'I' for Inactive)
REMARK    1  A    between atoms: C_1  and  C_2
REMARK    2  A    between atoms: C_2  and  C_3
REMARK    3  A    between atoms: C_7  and  C_8
REMARK    4  A    between atoms: C_9  and  N_10
REMARK    5  A    between atoms: C_11  and  C_13
REMARK    6  A    between atoms: C_13  and  C_14
REMARK    7  A    between atoms: C_14  and  C_15
REMARK    8  A    between atoms: C_15  and  N_16
REMARK    9  A    between atoms: C_19  and  C_20
REMARK                            x       y       z     vdW  Elec       q    Type
REMARK                         _______ _______ _______ _____ _____    ______ ____
ROOT
ATOM      1  N   UNL     1       6.381   6.721  17.546  0.00  0.00    +0.000 N 
ATOM      2  C   UNL     1       6.699   5.800  18.570  0.00  0.00    +0.000 C 
ATOM      3  O   UNL     1       7.398   6.038  19.549  0.00  0.00    +0.000 OA
ATOM      4  C   UNL     1       6.065   4.427  18.303  0.00  0.00    +0.000 C 
ATOM      5  O   UNL     1       6.912   3.934  17.232  0.00  0.00    +0.000 OA
ATOM      6  C   UNL     1       6.979   4.833  16.158  0.00  0.00    +0.000 A 
ATOM      7  C   UNL     1       7.158   4.171  14.958  0.00  0.00    +0.000 A 
ATOM      8  C   UNL     1       6.118   4.321  14.077  0.00  0.00    +0.000 A 
ATOM      9  C   UNL     1       5.183   5.316  14.368  0.00  0.00    +0.000 A 
ATOM     10  N   UNL     1       5.331   6.287  15.341  0.00  0.00    +0.000 NA
ATOM     11  C   UNL     1       6.301   6.064  16.253  0.00  0.00    +0.000 A 
ENDROOT
BRANCH   4  12
ATOM     12  C   UNL     1       4.523   4.533  18.097  0.00  0.00    +0.000 A 
ATOM     13  C   UNL     1       3.723   5.541  18.648  0.00  0.00    +0.000 A 
ATOM     14  C   UNL     1       2.320   5.458  18.552  0.00  0.00    +0.000 A 
ATOM     15  C   UNL     1       1.699   4.385  17.913  0.00  0.00    +0.000 A 
ATOM     16  C   UNL     1       2.484   3.425  17.295  0.00  0.00    +0.000 A 
ATOM     17  C   UNL     1       3.870   3.521  17.355  0.00  0.00    +0.000 A 
ENDBRANCH   4  12
BRANCH   1  18
ATOM     18  C   UNL     1       6.675   8.145  17.748  0.00  0.00    +0.000 C 
BRANCH  18  19
ATOM     19  C   UNL     1       8.204   8.492  17.665  0.00  0.00    +0.000 C 
BRANCH  19  20
ATOM     20  C   UNL     1       8.962   9.042  18.884  0.00  0.00    +0.000 C 
BRANCH  20  22
ATOM     21  N   UNL     1       9.358  11.368  18.049  0.00  0.00    +0.000 N 
ATOM     22  C   UNL     1       9.207  10.540  19.140  0.00  0.00    +0.000 C 
ATOM     23  O   UNL     1       9.348  10.908  20.306  0.00  0.00    +0.000 OA
ATOM     24  H   UNL     1       9.725  10.908  17.230  0.00  0.00    +0.000 HD
BRANCH  21  31
ATOM     25  C   UNL     1       8.555  13.749  17.962  0.00  0.00    +0.000 A 
ATOM     26  C   UNL     1       8.893  15.129  17.973  0.00  0.00    +0.000 A 
ATOM     27  C   UNL     1      10.210  15.556  18.086  0.00  0.00    +0.000 A 
ATOM     28  C   UNL     1      11.217  14.613  18.208  0.00  0.00    +0.000 A 
ATOM     29  C   UNL     1      10.924  13.236  18.225  0.00  0.00    +0.000 A 
ATOM     30  C   UNL     1      12.077  12.290  18.435  0.00  0.00    +0.000 C 
ATOM     31  C   UNL     1       9.583  12.779  18.104  0.00  0.00    +0.000 A 
BRANCH  25  33
ATOM     32  C   UNL     1       6.181  14.655  17.681  0.00  0.00    +0.000 C 
ATOM     33  C   UNL     1       7.108  13.446  17.640  0.00  0.00    +0.000 C 
ENDBRANCH  25  33
ENDBRANCH  21  31
ENDBRANCH  20  22
ENDBRANCH  19  20
ENDBRANCH  18  19
ENDBRANCH   1  18
TORSDOF 7
ENDMDL
MODEL 2
REMARK VINA RESULT:      -8.1      4.671      7.591
REMARK  Name = 
REMARK  9 active torsions:
REMARK  status: ('A' for Active; 'I' for Inactive)
REMARK    1  A    between atoms: C_1  and  C_2
REMARK    2  A    between atoms: C_2  and  C_3
REMARK    3  A    between atoms: C_7  and  C_8
REMARK    4  A    between atoms: C_9  and  N_10
REMARK    5  A    between atoms: C_11  and  C_13
REMARK    6  A    between atoms: C_13  and  C_14
REMARK    7  A    between atoms: C_14  and  C_15
REMARK    8  A    between atoms: C_15  and  N_16
REMARK    9  A    between atoms: C_19  and  C_20
REMARK                            x       y       z     vdW  Elec       q    Type
REMARK                         _______ _______ _______ _____ _____    ______ ____
ROOT
ATOM      1  N   UNL     1       4.026   5.716  18.041  0.00  0.00    +0.000 N 
ATOM      2  C   UNL     1       4.010   4.314  18.219  0.00  0.00    +0.000 C 
ATOM      3  O   UNL     1       3.088   3.669  18.704  0.00  0.00    +0.000 OA
ATOM      4  C   UNL     1       5.321   3.676  17.738  0.00  0.00    +0.000 C 
ATOM      5  O   UNL     1       6.228   4.067  18.802  0.00  0.00    +0.000 OA
ATOM      6  C   UNL     1       6.224   5.455  19.011  0.00  0.00    +0.000 A 
ATOM      7  C   UNL     1       7.456   5.898  19.456  0.00  0.00    +0.000 A 
ATOM      8  C   UNL     1       8.084   6.759  18.593  0.00  0.00    +0.000 A 
ATOM      9  C   UNL     1       7.312   7.289  17.557  0.00  0.00    +0.000 A 
ATOM     10  N   UNL     1       5.937   7.185  17.455  0.00  0.00    +0.000 NA
ATOM     11  C   UNL     1       5.357   6.260  18.248  0.00  0.00    +0.000 A 
ENDROOT
BRANCH   4  12
ATOM     12  C   UNL     1       5.639   4.053  16.259  0.00  0.00    +0.000 A 
ATOM     13  C   UNL     1       4.688   4.083  15.232  0.00  0.00    +0.000 A 
ATOM     14  C   UNL     1       5.098   4.267  13.897  0.00  0.00    +0.000 A 
ATOM     15  C   UNL     1       6.443   4.422  13.567  0.00  0.00    +0.000 A 
ATOM     16  C   UNL     1       7.383   4.474  14.583  0.00  0.00    +0.000 A 
ATOM     17  C   UNL     1       6.981   4.330  15.906  0.00  0.00    +0.000 A 
ENDBRANCH   4  12
BRANCH   1  18
ATOM     18  C   UNL     1       2.776   6.471  18.198  0.00  0.00    +0.000 C 
BRANCH  18  19
ATOM     19  C   UNL     1       2.925   8.006  17.906  0.00  0.00    +0.000 C 
BRANCH  19  20
ATOM     20  C   UNL     1       1.704   8.870  17.552  0.00  0.00    +0.000 C 
BRANCH  20  22
ATOM     21  N   UNL     1      -0.080   9.851  19.009  0.00  0.00    +0.000 N 
ATOM     22  C   UNL     1       1.167  10.005  18.445  0.00  0.00    +0.000 C 
ATOM     23  O   UNL     1       1.840  11.032  18.533  0.00  0.00    +0.000 OA
ATOM     24  H   UNL     1      -0.703   9.260  18.479  0.00  0.00    +0.000 HD
BRANCH  21  31
ATOM     25  C   UNL     1      -0.488  10.888  21.262  0.00  0.00    +0.000 A 
ATOM     26  C   UNL     1      -1.225  11.826  22.035  0.00  0.00    +0.000 A 
ATOM     27  C   UNL     1      -2.199  12.635  21.464  0.00  0.00    +0.000 A 
ATOM     28  C   UNL     1      -2.445  12.538  20.104  0.00  0.00    +0.000 A 
ATOM     29  C   UNL     1      -1.722  11.638  19.298  0.00  0.00    +0.000 A 
ATOM     30  C   UNL     1      -2.008  11.657  17.820  0.00  0.00    +0.000 C 
ATOM     31  C   UNL     1      -0.725  10.798  19.865  0.00  0.00    +0.000 A 
BRANCH  25  33
ATOM     32  C   UNL     1      -0.199   9.497  23.389  0.00  0.00    +0.000 C 
ATOM     33  C   UNL     1       0.394   9.953  22.061  0.00  0.00    +0.000 C 
ENDBRANCH  25  33
ENDBRANCH  21  31
ENDBRANCH  20  22
ENDBRANCH  19  20
ENDBRANCH  18  19
ENDBRANCH   1  18
TORSDOF 7
ENDMDL
MODEL 3
REMARK VINA RESULT:      -8.1      5.280      8.011
REMARK  Name = 
REMARK  9 active torsions:
REMARK  status: ('A' for Active; 'I' for Inactive)
REMARK    1  A    between atoms: C_1  and  C_2
REMARK    2  A    between atoms: C_2  and  C_3
REMARK    3  A    between atoms: C_7  and  C_8
REMARK    4  A    between atoms: C_9  and  N_10
REMARK    5  A    between atoms: C_11  and  C_13
REMARK    6  A    between atoms: C_13  and  C_14
REMARK    7  A    between atoms: C_14  and  C_15
REMARK    8  A    between atoms: C_15  and  N_16
REMARK    9  A    between atoms: C_19  and  C_20
REMARK                            x       y       z     vdW  Elec       q    Type
REMARK                         _______ _______ _______ _____ _____    ______ ____
ROOT
ATOM      1  N   UNL     1       2.820   6.424  18.246  0.00  0.00    +0.000 N 
ATOM      2  C   UNL     1       2.859   6.363  19.657  0.00  0.00    +0.000 C 
ATOM      3  O   UNL     1       2.368   7.188  20.418  0.00  0.00    +0.000 OA
ATOM      4  C   UNL     1       3.621   5.121  20.141  0.00  0.00    +0.000 C 
ATOM      5  O   UNL     1       4.991   5.506  19.856  0.00  0.00    +0.000 OA
ATOM      6  C   UNL     1       5.162   5.885  18.516  0.00  0.00    +0.000 A 
ATOM      7  C   UNL     1       6.437   5.594  18.070  0.00  0.00    +0.000 A 
ATOM      8  C   UNL     1       6.477   4.670  17.058  0.00  0.00    +0.000 A 
ATOM      9  C   UNL     1       5.267   4.368  16.430  0.00  0.00    +0.000 A 
ATOM     10  N   UNL     1       4.087   5.069  16.599  0.00  0.00    +0.000 NA
ATOM     11  C   UNL     1       4.043   5.900  17.661  0.00  0.00    +0.000 A 
ENDROOT
BRANCH   4  12
ATOM     12  C   UNL     1       3.032   3.810  19.536  0.00  0.00    +0.000 A 
ATOM     13  C   UNL     1       3.799   2.695  19.178  0.00  0.00    +0.000 A 
ATOM     14  C   UNL     1       3.204   1.625  18.480  0.00  0.00    +0.000 A 
ATOM     15  C   UNL     1       1.855   1.648  18.133  0.00  0.00    +0.000 A 
ATOM     16  C   UNL     1       1.070   2.710  18.553  0.00  0.00    +0.000 A 
ATOM     17  C   UNL     1       1.643   3.751  19.273  0.00  0.00    +0.000 A 
ENDBRANCH   4  12
BRANCH   1  18
ATOM     18  C   UNL     1       1.924   7.389  17.596  0.00  0.00    +0.000 C 
BRANCH  18  19
ATOM     19  C   UNL     1       2.520   8.837  17.500  0.00  0.00    +0.000 C 
BRANCH  19  20
ATOM     20  C   UNL     1       1.876  10.014  18.252  0.00  0.00    +0.000 C 
BRANCH  20  22
ATOM     21  N   UNL     1      -0.435  10.925  17.942  0.00  0.00    +0.000 N 
ATOM     22  C   UNL     1       0.388  10.071  18.643  0.00  0.00    +0.000 C 
ATOM     23  O   UNL     1       0.028   9.422  19.625  0.00  0.00    +0.000 OA
ATOM     24  H   UNL     1       0.038  11.728  17.554  0.00  0.00    +0.000 HD
BRANCH  21  31
ATOM     25  C   UNL     1      -2.845  10.461  17.396  0.00  0.00    +0.000 A 
ATOM     26  C   UNL     1      -4.211  10.745  17.665  0.00  0.00    +0.000 A 
ATOM     27  C   UNL     1      -4.587  11.658  18.642  0.00  0.00    +0.000 A 
ATOM     28  C   UNL     1      -3.606  12.294  19.386  0.00  0.00    +0.000 A 
ATOM     29  C   UNL     1      -2.241  12.024  19.168  0.00  0.00    +0.000 A 
ATOM     30  C   UNL     1      -1.253  12.707  20.075  0.00  0.00    +0.000 C 
ATOM     31  C   UNL     1      -1.836  11.097  18.168  0.00  0.00    +0.000 A 
BRANCH  25  33
ATOM     32  C   UNL     1      -2.989  10.236  14.853  0.00  0.00    +0.000 C 
ATOM     33  C   UNL     1      -2.598   9.596  16.180  0.00  0.00    +0.000 C 
ENDBRANCH  25  33
ENDBRANCH  21  31
ENDBRANCH  20  22
ENDBRANCH  19  20
ENDBRANCH  18  19
ENDBRANCH   1  18
TORSDOF 7
ENDMDL
MODEL 4
REMARK VINA RESULT:      -8.1      4.385      7.196
REMARK  Name = 
REMARK  9 active torsions:
REMARK  status: ('A' for Active; 'I' for Inactive)
REMARK    1  A    between atoms: C_1  and  C_2
REMARK    2  A    between atoms: C_2  and  C_3
REMARK    3  A    between atoms: C_7  and  C_8
REMARK    4  A    between atoms: C_9  and  N_10
REMARK    5  A    between atoms: C_11  and  C_13
REMARK    6  A    between atoms: C_13  and  C_14
REMARK    7  A    between atoms: C_14  and  C_15
REMARK    8  A    between atoms: C_15  and  N_16
REMARK    9  A    between atoms: C_19  and  C_20
REMARK                            x       y       z     vdW  Elec       q    Type
REMARK                         _______ _______ _______ _____ _____    ______ ____
ROOT
ATOM      1  N   UNL     1       3.936   5.518  17.771  0.00  0.00    +0.000 N 
ATOM      2  C   UNL     1       4.033   4.118  17.941  0.00  0.00    +0.000 C 
ATOM      3  O   UNL     1       3.158   3.396  18.403  0.00  0.00    +0.000 OA
ATOM      4  C   UNL     1       5.402   3.595  17.485  0.00  0.00    +0.000 C 
ATOM      5  O   UNL     1       6.251   4.052  18.570  0.00  0.00    +0.000 OA
ATOM      6  C   UNL     1       6.128   5.433  18.787  0.00  0.00    +0.000 A 
ATOM      7  C   UNL     1       7.309   5.974  19.259  0.00  0.00    +0.000 A 
ATOM      8  C   UNL     1       7.881   6.890  18.415  0.00  0.00    +0.000 A 
ATOM      9  C   UNL     1       7.090   7.362  17.366  0.00  0.00    +0.000 A 
ATOM     10  N   UNL     1       5.730   7.144  17.234  0.00  0.00    +0.000 NA
ATOM     11  C   UNL     1       5.213   6.169  18.010  0.00  0.00    +0.000 A 
ENDROOT
BRANCH   4  12
ATOM     12  C   UNL     1       5.718   4.008  16.015  0.00  0.00    +0.000 A 
ATOM     13  C   UNL     1       4.794   3.951  14.965  0.00  0.00    +0.000 A 
ATOM     14  C   UNL     1       5.216   4.179  13.641  0.00  0.00    +0.000 A 
ATOM     15  C   UNL     1       6.548   4.464  13.344  0.00  0.00    +0.000 A 
ATOM     16  C   UNL     1       7.454   4.603  14.383  0.00  0.00    +0.000 A 
ATOM     17  C   UNL     1       7.036   4.414  15.696  0.00  0.00    +0.000 A 
ENDBRANCH   4  12
BRANCH   1  18
ATOM     18  C   UNL     1       2.625   6.165  17.906  0.00  0.00    +0.000 C 
BRANCH  18  19
ATOM     19  C   UNL     1       2.695   7.614  18.504  0.00  0.00    +0.000 C 
BRANCH  19  20
ATOM     20  C   UNL     1       1.874   8.765  17.900  0.00  0.00    +0.000 C 
BRANCH  20  22
ATOM     21  N   UNL     1       1.209   9.879  20.040  0.00  0.00    +0.000 N 
ATOM     22  C   UNL     1       0.918   9.658  18.712  0.00  0.00    +0.000 C 
ATOM     23  O   UNL     1      -0.108  10.052  18.158  0.00  0.00    +0.000 OA
ATOM     24  H   UNL     1       1.732   9.135  20.478  0.00  0.00    +0.000 HD
BRANCH  21  31
ATOM     25  C   UNL     1       0.439  12.104  20.922  0.00  0.00    +0.000 A 
ATOM     26  C   UNL     1      -0.320  12.811  21.893  0.00  0.00    +0.000 A 
ATOM     27  C   UNL     1      -1.039  12.149  22.880  0.00  0.00    +0.000 A 
ATOM     28  C   UNL     1      -1.030  10.764  22.907  0.00  0.00    +0.000 A 
ATOM     29  C   UNL     1      -0.311  10.024  21.949  0.00  0.00    +0.000 A 
ATOM     30  C   UNL     1      -0.422   8.524  22.015  0.00  0.00    +0.000 C 
ATOM     31  C   UNL     1       0.436  10.684  20.935  0.00  0.00    +0.000 A 
BRANCH  25  33
ATOM     32  C   UNL     1       0.612  14.174  19.430  0.00  0.00    +0.000 C 
ATOM     33  C   UNL     1       1.315  12.967  20.041  0.00  0.00    +0.000 C 
ENDBRANCH  25  33
ENDBRANCH  21  31
ENDBRANCH  20  22
ENDBRANCH  19  20
ENDBRANCH  18  19
ENDBRANCH   1  18
TORSDOF 7
ENDMDL
MODEL 5
REMARK VINA RESULT:      -7.9      4.800      7.810
REMARK  Name = 
REMARK  9 active torsions:
REMARK  status: ('A' for Active; 'I' for Inactive)
REMARK    1  A    between atoms: C_1  and  C_2
REMARK    2  A    between atoms: C_2  and  C_3
REMARK    3  A    between atoms: C_7  and  C_8
REMARK    4  A    between atoms: C_9  and  N_10
REMARK    5  A    between atoms: C_11  and  C_13
REMARK    6  A    between atoms: C_13  and  C_14
REMARK    7  A    between atoms: C_14  and  C_15
REMARK    8  A    between atoms: C_15  and  N_16
REMARK    9  A    between atoms: C_19  and  C_20
REMARK                            x       y       z     vdW  Elec       q    Type
REMARK                         _______ _______ _______ _____ _____    ______ ____
ROOT
ATOM      1  N   UNL     1       3.905   5.703  17.714  0.00  0.00    +0.000 N 
ATOM      2  C   UNL     1       3.871   4.299  17.876  0.00  0.00    +0.000 C 
ATOM      3  O   UNL     1       2.917   3.655  18.297  0.00  0.00    +0.000 OA
ATOM      4  C   UNL     1       5.205   3.658  17.471  0.00  0.00    +0.000 C 
ATOM      5  O   UNL     1       6.047   4.033  18.592  0.00  0.00    +0.000 OA
ATOM      6  C   UNL     1       6.038   5.418  18.816  0.00  0.00    +0.000 A 
ATOM      7  C   UNL     1       7.242   5.849  19.339  0.00  0.00    +0.000 A 
ATOM      8  C   UNL     1       7.927   6.715  18.526  0.00  0.00    +0.000 A 
ATOM      9  C   UNL     1       7.224   7.260  17.451  0.00  0.00    +0.000 A 
ATOM     10  N   UNL     1       5.857   7.166  17.263  0.00  0.00    +0.000 NA
ATOM     11  C   UNL     1       5.224   6.236  18.009  0.00  0.00    +0.000 A 
ENDROOT
BRANCH   4  12
ATOM     12  C   UNL     1       5.616   4.049  16.018  0.00  0.00    +0.000 A 
ATOM     13  C   UNL     1       4.741   4.046  14.925  0.00  0.00    +0.000 A 
ATOM     14  C   UNL     1       5.240   4.246  13.622  0.00  0.00    +0.000 A 
ATOM     15  C   UNL     1       6.599   4.450  13.390  0.00  0.00    +0.000 A 
ATOM     16  C   UNL     1       7.461   4.534  14.472  0.00  0.00    +0.000 A 
ATOM     17  C   UNL     1       6.969   4.374  15.762  0.00  0.00    +0.000 A 
ENDBRANCH   4  12
BRANCH   1  18
ATOM     18  C   UNL     1       2.652   6.464  17.802  0.00  0.00    +0.000 C 
BRANCH  18  19
ATOM     19  C   UNL     1       2.823   7.889  18.436  0.00  0.00    +0.000 C 
BRANCH  19  20
ATOM     20  C   UNL     1       2.027   9.094  17.909  0.00  0.00    +0.000 C 
BRANCH  20  22
ATOM     21  N   UNL     1       0.025  10.598  17.898  0.00  0.00    +0.000 N 
ATOM     22  C   UNL     1       0.737   9.624  18.563  0.00  0.00    +0.000 C 
ATOM     23  O   UNL     1       0.457   9.217  19.690  0.00  0.00    +0.000 OA
ATOM     24  H   UNL     1       0.588  11.182  17.296  0.00  0.00    +0.000 HD
BRANCH  21  31
ATOM     25  C   UNL     1      -1.265  12.113  19.433  0.00  0.00    +0.000 A 
ATOM     26  C   UNL     1      -2.533  12.603  19.847  0.00  0.00    +0.000 A 
ATOM     27  C   UNL     1      -3.711  12.176  19.246  0.00  0.00    +0.000 A 
ATOM     28  C   UNL     1      -3.645  11.265  18.205  0.00  0.00    +0.000 A 
ATOM     29  C   UNL     1      -2.408  10.773  17.748  0.00  0.00    +0.000 A 
ATOM     30  C   UNL     1      -2.433   9.843  16.564  0.00  0.00    +0.000 C 
ATOM     31  C   UNL     1      -1.192  11.193  18.354  0.00  0.00    +0.000 A 
BRANCH  25  33
ATOM     32  C   UNL     1      -0.218  12.093  21.766  0.00  0.00    +0.000 C 
ATOM     33  C   UNL     1      -0.102  12.526  20.309  0.00  0.00    +0.000 C 
ENDBRANCH  25  33
ENDBRANCH  21  31
ENDBRANCH  20  22
ENDBRANCH  19  20
ENDBRANCH  18  19
ENDBRANCH   1  18
TORSDOF 7
ENDMDL
MODEL 6
REMARK VINA RESULT:      -7.9      4.592      7.390
REMARK  Name = 
REMARK  9 active torsions:
REMARK  status: ('A' for Active; 'I' for Inactive)
REMARK    1  A    between atoms: C_1  and  C_2
REMARK    2  A    between atoms: C_2  and  C_3
REMARK    3  A    between atoms: C_7  and  C_8
REMARK    4  A    between atoms: C_9  and  N_10
REMARK    5  A    between atoms: C_11  and  C_13
REMARK    6  A    between atoms: C_13  and  C_14
REMARK    7  A    between atoms: C_14  and  C_15
REMARK    8  A    between atoms: C_15  and  N_16
REMARK    9  A    between atoms: C_19  and  C_20
REMARK                            x       y       z     vdW  Elec       q    Type
REMARK                         _______ _______ _______ _____ _____    ______ ____
ROOT
ATOM      1  N   UNL     1       4.070   5.619  17.810  0.00  0.00    +0.000 N 
ATOM      2  C   UNL     1       4.071   4.230  18.074  0.00  0.00    +0.000 C 
ATOM      3  O   UNL     1       3.125   3.591  18.520  0.00  0.00    +0.000 OA
ATOM      4  C   UNL     1       5.432   3.601  17.746  0.00  0.00    +0.000 C 
ATOM      5  O   UNL     1       6.236   4.081  18.856  0.00  0.00    +0.000 OA
ATOM      6  C   UNL     1       6.183   5.478  18.976  0.00  0.00    +0.000 A 
ATOM      7  C   UNL     1       7.362   5.982  19.492  0.00  0.00    +0.000 A 
ATOM      8  C   UNL     1       8.042   6.805  18.633  0.00  0.00    +0.000 A 
ATOM      9  C   UNL     1       7.350   7.249  17.505  0.00  0.00    +0.000 A 
ATOM     10  N   UNL     1       5.990   7.101  17.295  0.00  0.00    +0.000 NA
ATOM     11  C   UNL     1       5.366   6.211  18.094  0.00  0.00    +0.000 A 
ENDROOT
BRANCH   4  12
ATOM     12  C   UNL     1       5.866   3.896  16.278  0.00  0.00    +0.000 A 
ATOM     13  C   UNL     1       7.159   4.277  15.901  0.00  0.00    +0.000 A 
ATOM     14  C   UNL     1       7.415   4.689  14.578  0.00  0.00    +0.000 A 
ATOM     15  C   UNL     1       6.401   4.728  13.622  0.00  0.00    +0.000 A 
ATOM     16  C   UNL     1       5.136   4.277  13.965  0.00  0.00    +0.000 A 
ATOM     17  C   UNL     1       4.886   3.834  15.259  0.00  0.00    +0.000 A 
ENDBRANCH   4  12
BRANCH   1  18
ATOM     18  C   UNL     1       2.795   6.347  17.814  0.00  0.00    +0.000 C 
BRANCH  18  19
ATOM     19  C   UNL     1       2.926   7.847  18.258  0.00  0.00    +0.000 C 
BRANCH  19  20
ATOM     20  C   UNL     1       1.922   8.908  17.779  0.00  0.00    +0.000 C 
BRANCH  20  22
ATOM     21  N   UNL     1       0.200   9.636  19.442  0.00  0.00    +0.000 N 
ATOM     22  C   UNL     1       1.303   9.980  18.694  0.00  0.00    +0.000 C 
ATOM     23  O   UNL     1       1.770  11.119  18.641  0.00  0.00    +0.000 OA
ATOM     24  H   UNL     1      -0.364   8.905  19.034  0.00  0.00    +0.000 HD
BRANCH  21  31
ATOM     25  C   UNL     1      -1.390  11.521  19.931  0.00  0.00    +0.000 A 
ATOM     26  C   UNL     1      -1.983  12.367  20.907  0.00  0.00    +0.000 A 
ATOM     27  C   UNL     1      -1.679  12.247  22.257  0.00  0.00    +0.000 A 
ATOM     28  C   UNL     1      -0.791  11.265  22.664  0.00  0.00    +0.000 A 
ATOM     29  C   UNL     1      -0.199  10.390  21.733  0.00  0.00    +0.000 A 
ATOM     30  C   UNL     1       0.696   9.309  22.278  0.00  0.00    +0.000 C 
ATOM     31  C   UNL     1      -0.493  10.502  20.345  0.00  0.00    +0.000 A 
BRANCH  25  33
ATOM     32  C   UNL     1      -2.558  10.920  17.737  0.00  0.00    +0.000 C 
ATOM     33  C   UNL     1      -1.674  11.903  18.495  0.00  0.00    +0.000 C 
ENDBRANCH  25  33
ENDBRANCH  21  31
ENDBRANCH  20  22
ENDBRANCH  19  20
ENDBRANCH  18  19
ENDBRANCH   1  18
TORSDOF 7
ENDMDL
MODEL 7
REMARK VINA RESULT:      -7.9      4.480      7.290
REMARK  Name = 
REMARK  9 active torsions:
REMARK  status: ('A' for Active; 'I' for Inactive)
REMARK    1  A    between atoms: C_1  and  C_2
REMARK    2  A    between atoms: C_2  and  C_3
REMARK    3  A    between atoms: C_7  and  C_8
REMARK    4  A    between atoms: C_9  and  N_10
REMARK    5  A    between atoms: C_11  and  C_13
REMARK    6  A    between atoms: C_13  and  C_14
REMARK    7  A    between atoms: C_14  and  C_15
REMARK    8  A    between atoms: C_15  and  N_16
REMARK    9  A    between atoms: C_19  and  C_20
REMARK                            x       y       z     vdW  Elec       q    Type
REMARK                         _______ _______ _______ _____ _____    ______ ____
ROOT
ATOM      1  N   UNL     1       4.088   5.423  17.693  0.00  0.00    +0.000 N 
ATOM      2  C   UNL     1       4.269   4.030  17.849  0.00  0.00    +0.000 C 
ATOM      3  O   UNL     1       3.444   3.254  18.318  0.00  0.00    +0.000 OA
ATOM      4  C   UNL     1       5.659   3.591  17.368  0.00  0.00    +0.000 C 
ATOM      5  O   UNL     1       6.497   4.089  18.444  0.00  0.00    +0.000 OA
ATOM      6  C   UNL     1       6.297   5.458  18.674  0.00  0.00    +0.000 A 
ATOM      7  C   UNL     1       7.452   6.063  19.134  0.00  0.00    +0.000 A 
ATOM      8  C   UNL     1       7.956   7.018  18.289  0.00  0.00    +0.000 A 
ATOM      9  C   UNL     1       7.123   7.450  17.256  0.00  0.00    +0.000 A 
ATOM     10  N   UNL     1       5.776   7.155  17.143  0.00  0.00    +0.000 NA
ATOM     11  C   UNL     1       5.329   6.145  17.918  0.00  0.00    +0.000 A 
ENDROOT
BRANCH   4  12
ATOM     12  C   UNL     1       5.928   4.033  15.897  0.00  0.00    +0.000 A 
ATOM     13  C   UNL     1       4.994   3.925  14.859  0.00  0.00    +0.000 A 
ATOM     14  C   UNL     1       5.383   4.189  13.531  0.00  0.00    +0.000 A 
ATOM     15  C   UNL     1       6.689   4.560  13.219  0.00  0.00    +0.000 A 
ATOM     16  C   UNL     1       7.599   4.748  14.247  0.00  0.00    +0.000 A 
ATOM     17  C   UNL     1       7.212   4.524  15.563  0.00  0.00    +0.000 A 
ENDBRANCH   4  12
BRANCH   1  18
ATOM     18  C   UNL     1       2.744   5.992  17.853  0.00  0.00    +0.000 C 
BRANCH  18  19
ATOM     19  C   UNL     1       2.710   7.298  18.723  0.00  0.00    +0.000 C 
BRANCH  19  20
ATOM     20  C   UNL     1       2.086   8.596  18.186  0.00  0.00    +0.000 C 
BRANCH  20  22
ATOM     21  N   UNL     1       0.590  10.594  18.374  0.00  0.00    +0.000 N 
ATOM     22  C   UNL     1       1.073   9.450  18.970  0.00  0.00    +0.000 C 
ATOM     23  O   UNL     1       0.816   9.117  20.127  0.00  0.00    +0.000 OA
ATOM     24  H   UNL     1       1.223  11.010  17.706  0.00  0.00    +0.000 HD
BRANCH  21  31
ATOM     25  C   UNL     1      -1.764  11.324  18.866  0.00  0.00    +0.000 A 
ATOM     26  C   UNL     1      -2.621  12.309  19.427  0.00  0.00    +0.000 A 
ATOM     27  C   UNL     1      -2.119  13.456  20.030  0.00  0.00    +0.000 A 
ATOM     28  C   UNL     1      -0.746  13.634  20.101  0.00  0.00    +0.000 A 
ATOM     29  C   UNL     1       0.139  12.671  19.579  0.00  0.00    +0.000 A 
ATOM     30  C   UNL     1       1.612  12.918  19.770  0.00  0.00    +0.000 C 
ATOM     31  C   UNL     1      -0.357  11.494  18.953  0.00  0.00    +0.000 A 
BRANCH  25  33
ATOM     32  C   UNL     1      -2.492  10.458  16.573  0.00  0.00    +0.000 C 
ATOM     33  C   UNL     1      -2.465  10.238  18.081  0.00  0.00    +0.000 C 
ENDBRANCH  25  33
ENDBRANCH  21  31
ENDBRANCH  20  22
ENDBRANCH  19  20
ENDBRANCH  18  19
ENDBRANCH   1  18
TORSDOF 7
ENDMDL
MODEL 8
REMARK VINA RESULT:      -7.8      4.300      7.159
REMARK  Name = 
REMARK  9 active torsions:
REMARK  status: ('A' for Active; 'I' for Inactive)
REMARK    1  A    between atoms: C_1  and  C_2
REMARK    2  A    between atoms: C_2  and  C_3
REMARK    3  A    between atoms: C_7  and  C_8
REMARK    4  A    between atoms: C_9  and  N_10
REMARK    5  A    between atoms: C_11  and  C_13
REMARK    6  A    between atoms: C_13  and  C_14
REMARK    7  A    between atoms: C_14  and  C_15
REMARK    8  A    between atoms: C_15  and  N_16
REMARK    9  A    between atoms: C_19  and  C_20
REMARK                            x       y       z     vdW  Elec       q    Type
REMARK                         _______ _______ _______ _____ _____    ______ ____
ROOT
ATOM      1  N   UNL     1       4.101   5.404  17.718  0.00  0.00    +0.000 N 
ATOM      2  C   UNL     1       4.294   4.013  17.876  0.00  0.00    +0.000 C 
ATOM      3  O   UNL     1       3.477   3.231  18.348  0.00  0.00    +0.000 OA
ATOM      4  C   UNL     1       5.686   3.584  17.391  0.00  0.00    +0.000 C 
ATOM      5  O   UNL     1       6.523   4.090  18.463  0.00  0.00    +0.000 OA
ATOM      6  C   UNL     1       6.313   5.458  18.692  0.00  0.00    +0.000 A 
ATOM      7  C   UNL     1       7.464   6.074  19.146  0.00  0.00    +0.000 A 
ATOM      8  C   UNL     1       7.958   7.031  18.298  0.00  0.00    +0.000 A 
ATOM      9  C   UNL     1       7.117   7.455  17.267  0.00  0.00    +0.000 A 
ATOM     10  N   UNL     1       5.773   7.149  17.159  0.00  0.00    +0.000 NA
ATOM     11  C   UNL     1       5.336   6.137  17.938  0.00  0.00    +0.000 A 
ENDROOT
BRANCH   4  12
ATOM     12  C   UNL     1       5.946   4.026  15.918  0.00  0.00    +0.000 A 
ATOM     13  C   UNL     1       5.010   3.908  14.884  0.00  0.00    +0.000 A 
ATOM     14  C   UNL     1       5.392   4.173  13.554  0.00  0.00    +0.000 A 
ATOM     15  C   UNL     1       6.694   4.554  13.236  0.00  0.00    +0.000 A 
ATOM     16  C   UNL     1       7.606   4.751  14.261  0.00  0.00    +0.000 A 
ATOM     17  C   UNL     1       7.225   4.527  15.579  0.00  0.00    +0.000 A 
ENDBRANCH   4  12
BRANCH   1  18
ATOM     18  C   UNL     1       2.753   5.961  17.881  0.00  0.00    +0.000 C 
BRANCH  18  19
ATOM     19  C   UNL     1       2.732   7.372  18.570  0.00  0.00    +0.000 C 
BRANCH  19  20
ATOM     20  C   UNL     1       1.935   8.540  17.968  0.00  0.00    +0.000 C 
BRANCH  20  22
ATOM     21  N   UNL     1       0.567  10.627  18.158  0.00  0.00    +0.000 N 
ATOM     22  C   UNL     1       1.110   9.537  18.802  0.00  0.00    +0.000 C 
ATOM     23  O   UNL     1       1.056   9.360  20.019  0.00  0.00    +0.000 OA
ATOM     24  H   UNL     1       1.082  10.924  17.343  0.00  0.00    +0.000 HD
BRANCH  21  31
ATOM     25  C   UNL     1       0.310  12.802  19.393  0.00  0.00    +0.000 A 
ATOM     26  C   UNL     1      -0.565  13.722  20.030  0.00  0.00    +0.000 A 
ATOM     27  C   UNL     1      -1.934  13.501  20.097  0.00  0.00    +0.000 A 
ATOM     28  C   UNL     1      -2.462  12.361  19.511  0.00  0.00    +0.000 A 
ATOM     29  C   UNL     1      -1.634  11.435  18.849  0.00  0.00    +0.000 A 
ATOM     30  C   UNL     1      -2.308  10.267  18.180  0.00  0.00    +0.000 C 
ATOM     31  C   UNL     1      -0.229  11.642  18.776  0.00  0.00    +0.000 A 
BRANCH  25  33
ATOM     32  C   UNL     1       2.472  13.682  18.349  0.00  0.00    +0.000 C 
ATOM     33  C   UNL     1       1.785  13.089  19.573  0.00  0.00    +0.000 C 
ENDBRANCH  25  33
ENDBRANCH  21  31
ENDBRANCH  20  22
ENDBRANCH  19  20
ENDBRANCH  18  19
ENDBRANCH   1  18
TORSDOF 7
ENDMDL
MODEL 9
REMARK VINA RESULT:      -7.8      5.689     10.377
REMARK  Name = 
REMARK  9 active torsions:
REMARK  status: ('A' for Active; 'I' for Inactive)
REMARK    1  A    between atoms: C_1  and  C_2
REMARK    2  A    between atoms: C_2  and  C_3
REMARK    3  A    between atoms: C_7  and  C_8
REMARK    4  A    between atoms: C_9  and  N_10
REMARK    5  A    between atoms: C_11  and  C_13
REMARK    6  A    between atoms: C_13  and  C_14
REMARK    7  A    between atoms: C_14  and  C_15
REMARK    8  A    between atoms: C_15  and  N_16
REMARK    9  A    between atoms: C_19  and  C_20
REMARK                            x       y       z     vdW  Elec       q    Type
REMARK                         _______ _______ _______ _____ _____    ______ ____
ROOT
ATOM      1  N   UNL     1       0.818  10.904  18.562  0.00  0.00    +0.000 N 
ATOM      2  C   UNL     1      -0.522  10.601  18.229  0.00  0.00    +0.000 C 
ATOM      3  O   UNL     1      -0.885   9.975  17.239  0.00  0.00    +0.000 OA
ATOM      4  C   UNL     1      -1.498  11.175  19.265  0.00  0.00    +0.000 C 
ATOM      5  O   UNL     1      -1.457  12.588  18.935  0.00  0.00    +0.000 OA
ATOM      6  C   UNL     1      -0.147  13.089  18.936  0.00  0.00    +0.000 A 
ATOM      7  C   UNL     1      -0.119  14.422  19.303  0.00  0.00    +0.000 A 
ATOM      8  C   UNL     1       0.558  14.666  20.470  0.00  0.00    +0.000 A 
ATOM      9  C   UNL     1       1.351  13.631  20.968  0.00  0.00    +0.000 A 
ATOM     10  N   UNL     1       1.672  12.473  20.282  0.00  0.00    +0.000 NA
ATOM     11  C   UNL     1       0.923  12.209  19.191  0.00  0.00    +0.000 A 
ENDROOT
BRANCH   4  12
ATOM     12  C   UNL     1      -1.154  10.697  20.709  0.00  0.00    +0.000 A 
ATOM     13  C   UNL     1      -1.386  11.453  21.865  0.00  0.00    +0.000 A 
ATOM     14  C   UNL     1      -0.885  11.013  23.106  0.00  0.00    +0.000 A 
ATOM     15  C   UNL     1      -0.157   9.830  23.216  0.00  0.00    +0.000 A 
ATOM     16  C   UNL     1       0.008   9.035  22.093  0.00  0.00    +0.000 A 
ATOM     17  C   UNL     1      -0.515   9.445  20.872  0.00  0.00    +0.000 A 
ENDBRANCH   4  12
BRANCH   1  18
ATOM     18  C   UNL     1       1.904  10.229  17.841  0.00  0.00    +0.000 C 
BRANCH  18  19
ATOM     19  C   UNL     1       1.812   8.663  17.884  0.00  0.00    +0.000 C 
BRANCH  19  20
ATOM     20  C   UNL     1       2.103   7.884  19.177  0.00  0.00    +0.000 C 
BRANCH  20  22
ATOM     21  N   UNL     1       2.235   5.514  18.382  0.00  0.00    +0.000 N 
ATOM     22  C   UNL     1       2.749   6.486  19.211  0.00  0.00    +0.000 C 
ATOM     23  O   UNL     1       3.631   6.283  20.046  0.00  0.00    +0.000 OA
ATOM     24  H   UNL     1       1.259   5.636  18.158  0.00  0.00    +0.000 HD
BRANCH  21  31
ATOM     25  C   UNL     1       3.855   3.795  17.522  0.00  0.00    +0.000 A 
ATOM     26  C   UNL     1       4.217   2.424  17.440  0.00  0.00    +0.000 A 
ATOM     27  C   UNL     1       3.463   1.433  18.056  0.00  0.00    +0.000 A 
ATOM     28  C   UNL     1       2.341   1.794  18.785  0.00  0.00    +0.000 A 
ATOM     29  C   UNL     1       1.961   3.144  18.911  0.00  0.00    +0.000 A 
ATOM     30  C   UNL     1       0.770   3.443  19.783  0.00  0.00    +0.000 C 
ATOM     31  C   UNL     1       2.717   4.171  18.282  0.00  0.00    +0.000 A 
BRANCH  25  33
ATOM     32  C   UNL     1       5.507   4.024  15.583  0.00  0.00    +0.000 C 
ATOM     33  C   UNL     1       4.663   4.724  16.642  0.00  0.00    +0.000 C 
ENDBRANCH  25  33
ENDBRANCH  21  31
ENDBRANCH  20  22
ENDBRANCH  19  20
ENDBRANCH  18  19
ENDBRANCH   1  18
TORSDOF 7
ENDMDL
