MODEL 1
REMARK VINA RESULT:      -7.1      0.000      0.000
REMARK  Name = 
REMARK  9 active torsions:
REMARK  status: ('A' for Active; 'I' for Inactive)
REMARK    1  A    between atoms: C_1  and  C_2
REMARK    2  A    between atoms: C_4  and  C_5
REMARK    3  A    between atoms: C_6  and  C_7
REMARK    4  A    between atoms: N_9  and  C_10
REMARK    5  A    between atoms: C_16  and  S_17
REMARK    6  A    between atoms: S_17  and  C_18
REMARK    7  A    between atoms: C_18  and  C_19
REMARK    8  A    between atoms: N_21  and  C_22
REMARK    9  A    between atoms: C_28  and  C_29
REMARK                            x       y       z     vdW  Elec       q    Type
REMARK                         _______ _______ _______ _____ _____    ______ ____
ROOT
ATOM      1  C   UNL     1      -1.901  10.004  16.999  0.00  0.00    +0.000 C 
ATOM      2  C   UNL     1      -2.292  10.920  18.123  0.00  0.00    +0.000 A 
ATOM      3  C   UNL     1      -3.598  11.353  18.233  0.00  0.00    +0.000 A 
ATOM      4  C   UNL     1      -3.975  12.153  19.323  0.00  0.00    +0.000 A 
ATOM      5  C   UNL     1      -5.417  12.604  19.333  0.00  0.00    +0.000 C 
ATOM      6  C   UNL     1      -3.022  12.482  20.335  0.00  0.00    +0.000 A 
ATOM      7  C   UNL     1      -1.704  12.035  20.106  0.00  0.00    +0.000 A 
ATOM      8  N   UNL     1      -1.346  11.279  19.017  0.00  0.00    +0.000 NA
ENDROOT
BRANCH   6   9
ATOM      9  C   UNL     1      -3.515  13.191  21.579  0.00  0.00    +0.000 C 
ATOM     10  O   UNL     1      -4.009  12.508  22.484  0.00  0.00    +0.000 OA
ATOM     11  N   UNL     1      -3.471  14.571  21.683  0.00  0.00    +0.000 N 
ATOM     12  H   UNL     1      -3.515  15.068  20.792  0.00  0.00    +0.000 HD
BRANCH  11  13
ATOM     13  C   UNL     1      -4.048  15.244  22.790  0.00  0.00    +0.000 A 
ATOM     14  C   UNL     1      -5.407  15.570  22.821  0.00  0.00    +0.000 A 
ATOM     15  C   UNL     1      -5.924  16.346  23.860  0.00  0.00    +0.000 A 
ATOM     16  C   UNL     1      -5.082  16.804  24.871  0.00  0.00    +0.000 A 
ATOM     17  C   UNL     1      -3.734  16.447  24.867  0.00  0.00    +0.000 A 
ATOM     18  C   UNL     1      -3.224  15.643  23.845  0.00  0.00    +0.000 A 
ENDBRANCH  11  13
ENDBRANCH   6   9
BRANCH   7  19
ATOM     19  S   UNL     1      -0.294  12.269  21.187  0.00  0.00    +0.000 S 
BRANCH  19  20
ATOM     20  C   UNL     1      -0.381  10.707  22.148  0.00  0.00    +0.000 C 
BRANCH  20  21
ATOM     21  C   UNL     1       0.723   9.745  21.717  0.00  0.00    +0.000 C 
ATOM     22  O   UNL     1       1.689   9.519  22.437  0.00  0.00    +0.000 OA
ATOM     23  N   UNL     1       0.538   9.182  20.469  0.00  0.00    +0.000 N 
ATOM     24  H   UNL     1      -0.237   9.515  19.918  0.00  0.00    +0.000 HD
BRANCH  23  25
ATOM     25  C   UNL     1       1.425   8.267  19.841  0.00  0.00    +0.000 A 
ATOM     26  C   UNL     1       1.750   7.031  20.421  0.00  0.00    +0.000 A 
ATOM     27  C   UNL     1       2.631   6.137  19.806  0.00  0.00    +0.000 A 
ATOM     28  C   UNL     1       3.183   6.472  18.576  0.00  0.00    +0.000 A 
ATOM     29 BR   UNL     1       4.363   5.266  17.732  0.00  0.00    +0.000 Br
ATOM     30  C   UNL     1       2.866   7.686  17.974  0.00  0.00    +0.000 A 
ATOM     31  C   UNL     1       1.999   8.604  18.601  0.00  0.00    +0.000 A 
ATOM     32  C   UNL     1       1.743   9.922  17.920  0.00  0.00    +0.000 C 
ENDBRANCH  23  25
ENDBRANCH  20  21
ENDBRANCH  19  20
ENDBRANCH   7  19
TORSDOF 6
ENDMDL
MODEL 2
REMARK VINA RESULT:      -7.0      2.028      2.970
REMARK  Name = 
REMARK  9 active torsions:
REMARK  status: ('A' for Active; 'I' for Inactive)
REMARK    1  A    between atoms: C_1  and  C_2
REMARK    2  A    between atoms: C_4  and  C_5
REMARK    3  A    between atoms: C_6  and  C_7
REMARK    4  A    between atoms: N_9  and  C_10
REMARK    5  A    between atoms: C_16  and  S_17
REMARK    6  A    between atoms: S_17  and  C_18
REMARK    7  A    between atoms: C_18  and  C_19
REMARK    8  A    between atoms: N_21  and  C_22
REMARK    9  A    between atoms: C_28  and  C_29
REMARK                            x       y       z     vdW  Elec       q    Type
REMARK                         _______ _______ _______ _____ _____    ______ ____
ROOT
ATOM      1  C   UNL     1      -2.693   9.790  15.882  0.00  0.00    +0.000 C 
ATOM      2  C   UNL     1      -2.476  10.579  17.141  0.00  0.00    +0.000 A 
ATOM      3  C   UNL     1      -3.552  11.158  17.783  0.00  0.00    +0.000 A 
ATOM      4  C   UNL     1      -3.354  11.836  18.996  0.00  0.00    +0.000 A 
ATOM      5  C   UNL     1      -4.588  12.465  19.600  0.00  0.00    +0.000 C 
ATOM      6  C   UNL     1      -2.054  11.891  19.583  0.00  0.00    +0.000 A 
ATOM      7  C   UNL     1      -1.013  11.314  18.826  0.00  0.00    +0.000 A 
ATOM      8  N   UNL     1      -1.220  10.681  17.626  0.00  0.00    +0.000 NA
ENDROOT
BRANCH   6   9
ATOM      9  C   UNL     1      -1.921  12.474  20.975  0.00  0.00    +0.000 C 
ATOM     10  O   UNL     1      -1.717  11.697  21.916  0.00  0.00    +0.000 OA
ATOM     11  N   UNL     1      -2.080  13.830  21.203  0.00  0.00    +0.000 N 
ATOM     12  H   UNL     1      -2.685  14.307  20.534  0.00  0.00    +0.000 HD
BRANCH  11  13
ATOM     13  C   UNL     1      -2.084  14.360  22.519  0.00  0.00    +0.000 A 
ATOM     14  C   UNL     1      -0.924  14.878  23.102  0.00  0.00    +0.000 A 
ATOM     15  C   UNL     1      -0.922  15.273  24.441  0.00  0.00    +0.000 A 
ATOM     16  C   UNL     1      -2.080  15.147  25.204  0.00  0.00    +0.000 A 
ATOM     17  C   UNL     1      -3.251  14.669  24.617  0.00  0.00    +0.000 A 
ATOM     18  C   UNL     1      -3.261  14.305  23.268  0.00  0.00    +0.000 A 
ENDBRANCH  11  13
ENDBRANCH   6   9
BRANCH   7  19
ATOM     19  S   UNL     1       0.714  11.206  19.293  0.00  0.00    +0.000 S 
BRANCH  19  20
ATOM     20  C   UNL     1       0.847   9.394  19.561  0.00  0.00    +0.000 C 
BRANCH  20  21
ATOM     21  C   UNL     1       1.746   8.756  18.505  0.00  0.00    +0.000 C 
ATOM     22  O   UNL     1       1.931   9.290  17.418  0.00  0.00    +0.000 OA
ATOM     23  N   UNL     1       2.300   7.547  18.879  0.00  0.00    +0.000 N 
ATOM     24  H   UNL     1       1.999   7.148  19.754  0.00  0.00    +0.000 HD
BRANCH  23  25
ATOM     25  C   UNL     1       3.160   6.754  18.073  0.00  0.00    +0.000 A 
ATOM     26  C   UNL     1       4.226   7.312  17.350  0.00  0.00    +0.000 A 
ATOM     27  C   UNL     1       5.064   6.531  16.550  0.00  0.00    +0.000 A 
ATOM     28  C   UNL     1       4.849   5.160  16.486  0.00  0.00    +0.000 A 
ATOM     29 BR   UNL     1       5.984   4.096  15.418  0.00  0.00    +0.000 Br
ATOM     30  C   UNL     1       3.807   4.581  17.203  0.00  0.00    +0.000 A 
ATOM     31  C   UNL     1       2.942   5.365  17.992  0.00  0.00    +0.000 A 
ATOM     32  C   UNL     1       1.802   4.681  18.697  0.00  0.00    +0.000 C 
ENDBRANCH  23  25
ENDBRANCH  20  21
ENDBRANCH  19  20
ENDBRANCH   7  19
TORSDOF 6
ENDMDL
MODEL 3
REMARK VINA RESULT:      -7.0      1.291      1.555
REMARK  Name = 
REMARK  9 active torsions:
REMARK  status: ('A' for Active; 'I' for Inactive)
REMARK    1  A    between atoms: C_1  and  C_2
REMARK    2  A    between atoms: C_4  and  C_5
REMARK    3  A    between atoms: C_6  and  C_7
REMARK    4  A    between atoms: N_9  and  C_10
REMARK    5  A    between atoms: C_16  and  S_17
REMARK    6  A    between atoms: S_17  and  C_18
REMARK    7  A    between atoms: C_18  and  C_19
REMARK    8  A    between atoms: N_21  and  C_22
REMARK    9  A    between atoms: C_28  and  C_29
REMARK                            x       y       z     vdW  Elec       q    Type
REMARK                         _______ _______ _______ _____ _____    ______ ____
ROOT
ATOM      1  C   UNL     1      -2.177  10.073  16.760  0.00  0.00    +0.000 C 
ATOM      2  C   UNL     1      -2.187  10.889  18.021  0.00  0.00    +0.000 A 
ATOM      3  C   UNL     1      -3.348  11.514  18.425  0.00  0.00    +0.000 A 
ATOM      4  C   UNL     1      -3.372  12.219  19.640  0.00  0.00    +0.000 A 
ATOM      5  C   UNL     1      -4.680  12.897  19.975  0.00  0.00    +0.000 C 
ATOM      6  C   UNL     1      -2.212  12.252  20.471  0.00  0.00    +0.000 A 
ATOM      7  C   UNL     1      -1.062  11.627  19.947  0.00  0.00    +0.000 A 
ATOM      8  N   UNL     1      -1.048  10.969  18.742  0.00  0.00    +0.000 NA
ENDROOT
BRANCH   6   9
ATOM      9  C   UNL     1      -2.337  12.868  21.850  0.00  0.00    +0.000 C 
ATOM     10  O   UNL     1      -2.777  12.163  22.765  0.00  0.00    +0.000 OA
ATOM     11  N   UNL     1      -2.024  14.198  22.072  0.00  0.00    +0.000 N 
ATOM     12  H   UNL     1      -2.135  14.805  21.259  0.00  0.00    +0.000 HD
BRANCH  11  13
ATOM     13  C   UNL     1      -2.262  14.809  23.330  0.00  0.00    +0.000 A 
ATOM     14  C   UNL     1      -3.476  15.439  23.620  0.00  0.00    +0.000 A 
ATOM     15  C   UNL     1      -3.639  16.145  24.813  0.00  0.00    +0.000 A 
ATOM     16  C   UNL     1      -2.585  16.227  25.721  0.00  0.00    +0.000 A 
ATOM     17  C   UNL     1      -1.386  15.566  25.456  0.00  0.00    +0.000 A 
ATOM     18  C   UNL     1      -1.235  14.832  24.276  0.00  0.00    +0.000 A 
ENDBRANCH  11  13
ENDBRANCH   6   9
BRANCH   7  19
ATOM     19  S   UNL     1       0.535  11.484  20.749  0.00  0.00    +0.000 S 
BRANCH  19  20
ATOM     20  C   UNL     1       0.139  10.194  21.993  0.00  0.00    +0.000 C 
BRANCH  20  21
ATOM     21  C   UNL     1       0.268   8.799  21.387  0.00  0.00    +0.000 C 
ATOM     22  O   UNL     1      -0.610   7.956  21.531  0.00  0.00    +0.000 OA
ATOM     23  N   UNL     1       1.443   8.583  20.692  0.00  0.00    +0.000 N 
ATOM     24  H   UNL     1       2.142   9.307  20.723  0.00  0.00    +0.000 HD
BRANCH  23  25
ATOM     25  C   UNL     1       1.803   7.369  20.047  0.00  0.00    +0.000 A 
ATOM     26  C   UNL     1       1.770   6.134  20.714  0.00  0.00    +0.000 A 
ATOM     27  C   UNL     1       2.134   4.943  20.080  0.00  0.00    +0.000 A 
ATOM     28  C   UNL     1       2.518   4.980  18.745  0.00  0.00    +0.000 A 
ATOM     29 BR   UNL     1       2.999   3.375  17.877  0.00  0.00    +0.000 Br
ATOM     30  C   UNL     1       2.546   6.190  18.058  0.00  0.00    +0.000 A 
ATOM     31  C   UNL     1       2.206   7.399  18.698  0.00  0.00    +0.000 A 
ATOM     32  C   UNL     1       2.312   8.677  17.911  0.00  0.00    +0.000 C 
ENDBRANCH  23  25
ENDBRANCH  20  21
ENDBRANCH  19  20
ENDBRANCH   7  19
TORSDOF 6
ENDMDL
MODEL 4
REMARK VINA RESULT:      -6.9      1.749      2.431
REMARK  Name = 
REMARK  9 active torsions:
REMARK  status: ('A' for Active; 'I' for Inactive)
REMARK    1  A    between atoms: C_1  and  C_2
REMARK    2  A    between atoms: C_4  and  C_5
REMARK    3  A    between atoms: C_6  and  C_7
REMARK    4  A    between atoms: N_9  and  C_10
REMARK    5  A    between atoms: C_16  and  S_17
REMARK    6  A    between atoms: S_17  and  C_18
REMARK    7  A    between atoms: C_18  and  C_19
REMARK    8  A    between atoms: N_21  and  C_22
REMARK    9  A    between atoms: C_28  and  C_29
REMARK                            x       y       z     vdW  Elec       q    Type
REMARK                         _______ _______ _______ _____ _____    ______ ____
ROOT
ATOM      1  C   UNL     1      -2.722  10.064  15.388  0.00  0.00    +0.000 C 
ATOM      2  C   UNL     1      -3.288  10.855  16.533  0.00  0.00    +0.000 A 
ATOM      3  C   UNL     1      -4.611  11.246  16.509  0.00  0.00    +0.000 A 
ATOM      4  C   UNL     1      -5.154  11.925  17.611  0.00  0.00    +0.000 A 
ATOM      5  C   UNL     1      -6.600  12.340  17.473  0.00  0.00    +0.000 C 
ATOM      6  C   UNL     1      -4.353  12.174  18.766  0.00  0.00    +0.000 A 
ATOM      7  C   UNL     1      -3.001  11.782  18.672  0.00  0.00    +0.000 A 
ATOM      8  N   UNL     1      -2.478  11.146  17.574  0.00  0.00    +0.000 NA
ENDROOT
BRANCH   6   9
ATOM      9  C   UNL     1      -5.027  12.746  19.996  0.00  0.00    +0.000 C 
ATOM     10  O   UNL     1      -5.712  11.987  20.692  0.00  0.00    +0.000 OA
ATOM     11  N   UNL     1      -4.932  14.092  20.306  0.00  0.00    +0.000 N 
ATOM     12  H   UNL     1      -4.787  14.706  19.503  0.00  0.00    +0.000 HD
BRANCH  11  13
ATOM     13  C   UNL     1      -5.667  14.653  21.382  0.00  0.00    +0.000 A 
ATOM     14  C   UNL     1      -6.958  15.157  21.203  0.00  0.00    +0.000 A 
ATOM     15  C   UNL     1      -7.609  15.821  22.244  0.00  0.00    +0.000 A 
ATOM     16  C   UNL     1      -6.967  15.987  23.470  0.00  0.00    +0.000 A 
ATOM     17  C   UNL     1      -5.696  15.449  23.668  0.00  0.00    +0.000 A 
ATOM     18  C   UNL     1      -5.059  14.757  22.635  0.00  0.00    +0.000 A 
ENDBRANCH  11  13
ENDBRANCH   6   9
BRANCH   7  19
ATOM     19  S   UNL     1      -1.752  11.941  19.948  0.00  0.00    +0.000 S 
BRANCH  19  20
ATOM     20  C   UNL     1      -0.364  12.595  18.940  0.00  0.00    +0.000 C 
BRANCH  20  21
ATOM     21  C   UNL     1       0.749  11.557  18.814  0.00  0.00    +0.000 C 
ATOM     22  O   UNL     1       1.889  11.879  18.499  0.00  0.00    +0.000 OA
ATOM     23  N   UNL     1       0.352  10.258  19.068  0.00  0.00    +0.000 N 
ATOM     24  H   UNL     1      -0.630  10.092  19.216  0.00  0.00    +0.000 HD
BRANCH  23  25
ATOM     25  C   UNL     1       1.195   9.116  19.007  0.00  0.00    +0.000 A 
ATOM     26  C   UNL     1       1.825   8.720  17.817  0.00  0.00    +0.000 A 
ATOM     27  C   UNL     1       2.647   7.591  17.757  0.00  0.00    +0.000 A 
ATOM     28  C   UNL     1       2.864   6.854  18.914  0.00  0.00    +0.000 A 
ATOM     29 BR   UNL     1       3.981   5.335  18.847  0.00  0.00    +0.000 Br
ATOM     30  C   UNL     1       2.261   7.233  20.110  0.00  0.00    +0.000 A 
ATOM     31  C   UNL     1       1.411   8.356  20.172  0.00  0.00    +0.000 A 
ATOM     32  C   UNL     1       0.748   8.677  21.484  0.00  0.00    +0.000 C 
ENDBRANCH  23  25
ENDBRANCH  20  21
ENDBRANCH  19  20
ENDBRANCH   7  19
TORSDOF 6
ENDMDL
MODEL 5
REMARK VINA RESULT:      -6.9      3.785      5.431
REMARK  Name = 
REMARK  9 active torsions:
REMARK  status: ('A' for Active; 'I' for Inactive)
REMARK    1  A    between atoms: C_1  and  C_2
REMARK    2  A    between atoms: C_4  and  C_5
REMARK    3  A    between atoms: C_6  and  C_7
REMARK    4  A    between atoms: N_9  and  C_10
REMARK    5  A    between atoms: C_16  and  S_17
REMARK    6  A    between atoms: S_17  and  C_18
REMARK    7  A    between atoms: C_18  and  C_19
REMARK    8  A    between atoms: N_21  and  C_22
REMARK    9  A    between atoms: C_28  and  C_29
REMARK                            x       y       z     vdW  Elec       q    Type
REMARK                         _______ _______ _______ _____ _____    ______ ____
ROOT
ATOM      1  C   UNL     1      -0.453   9.641  23.452  0.00  0.00    +0.000 C 
ATOM      2  C   UNL     1      -0.446  10.750  22.440  0.00  0.00    +0.000 A 
ATOM      3  C   UNL     1      -0.983  11.979  22.763  0.00  0.00    +0.000 A 
ATOM      4  C   UNL     1      -0.913  13.033  21.839  0.00  0.00    +0.000 A 
ATOM      5  C   UNL     1      -1.561  14.326  22.274  0.00  0.00    +0.000 C 
ATOM      6  C   UNL     1      -0.251  12.846  20.588  0.00  0.00    +0.000 A 
ATOM      7  C   UNL     1       0.220  11.542  20.331  0.00  0.00    +0.000 A 
ATOM      8  N   UNL     1       0.115  10.514  21.234  0.00  0.00    +0.000 NA
ENDROOT
BRANCH   6   9
ATOM      9  C   UNL     1      -0.041  14.056  19.701  0.00  0.00    +0.000 C 
ATOM     10  O   UNL     1      -0.824  14.233  18.760  0.00  0.00    +0.000 OA
ATOM     11  N   UNL     1       1.029  14.912  19.897  0.00  0.00    +0.000 N 
ATOM     12  H   UNL     1       1.847  14.481  20.330  0.00  0.00    +0.000 HD
BRANCH  11  13
ATOM     13  C   UNL     1       1.301  15.970  18.992  0.00  0.00    +0.000 A 
ATOM     14  C   UNL     1       0.373  16.990  18.759  0.00  0.00    +0.000 A 
ATOM     15  C   UNL     1       0.608  17.946  17.770  0.00  0.00    +0.000 A 
ATOM     16  C   UNL     1       1.771  17.885  17.006  0.00  0.00    +0.000 A 
ATOM     17  C   UNL     1       2.720  16.895  17.263  0.00  0.00    +0.000 A 
ATOM     18  C   UNL     1       2.499  15.957  18.275  0.00  0.00    +0.000 A 
ENDBRANCH  11  13
ENDBRANCH   6   9
BRANCH   7  19
ATOM     19  S   UNL     1       1.101  10.994  18.869  0.00  0.00    +0.000 S 
BRANCH  19  20
ATOM     20  C   UNL     1       1.305   9.216  19.282  0.00  0.00    +0.000 C 
BRANCH  20  21
ATOM     21  C   UNL     1       2.147   8.508  18.224  0.00  0.00    +0.000 C 
ATOM     22  O   UNL     1       2.268   8.965  17.093  0.00  0.00    +0.000 OA
ATOM     23  N   UNL     1       2.731   7.330  18.651  0.00  0.00    +0.000 N 
ATOM     24  H   UNL     1       2.482   6.993  19.567  0.00  0.00    +0.000 HD
BRANCH  23  25
ATOM     25  C   UNL     1       3.550   6.485  17.855  0.00  0.00    +0.000 A 
ATOM     26  C   UNL     1       4.720   6.952  17.237  0.00  0.00    +0.000 A 
ATOM     27  C   UNL     1       5.519   6.121  16.446  0.00  0.00    +0.000 A 
ATOM     28  C   UNL     1       5.156   4.790  16.287  0.00  0.00    +0.000 A 
ATOM     29 BR   UNL     1       6.235   3.657  15.232  0.00  0.00    +0.000 Br
ATOM     30  C   UNL     1       4.007   4.299  16.900  0.00  0.00    +0.000 A 
ATOM     31  C   UNL     1       3.183   5.138  17.677  0.00  0.00    +0.000 A 
ATOM     32  C   UNL     1       1.926   4.555  18.265  0.00  0.00    +0.000 C 
ENDBRANCH  23  25
ENDBRANCH  20  21
ENDBRANCH  19  20
ENDBRANCH   7  19
TORSDOF 6
ENDMDL
MODEL 6
REMARK VINA RESULT:      -6.9      4.037     10.096
REMARK  Name = 
REMARK  9 active torsions:
REMARK  status: ('A' for Active; 'I' for Inactive)
REMARK    1  A    between atoms: C_1  and  C_2
REMARK    2  A    between atoms: C_4  and  C_5
REMARK    3  A    between atoms: C_6  and  C_7
REMARK    4  A    between atoms: N_9  and  C_10
REMARK    5  A    between atoms: C_16  and  S_17
REMARK    6  A    between atoms: S_17  and  C_18
REMARK    7  A    between atoms: C_18  and  C_19
REMARK    8  A    between atoms: N_21  and  C_22
REMARK    9  A    between atoms: C_28  and  C_29
REMARK                            x       y       z     vdW  Elec       q    Type
REMARK                         _______ _______ _______ _____ _____    ______ ____
ROOT
ATOM      1  C   UNL     1      -0.499   9.241  22.331  0.00  0.00    +0.000 C 
ATOM      2  C   UNL     1       0.442   8.616  21.342  0.00  0.00    +0.000 A 
ATOM      3  C   UNL     1       0.882   7.323  21.535  0.00  0.00    +0.000 A 
ATOM      4  C   UNL     1       1.707   6.718  20.573  0.00  0.00    +0.000 A 
ATOM      5  C   UNL     1       2.164   5.315  20.895  0.00  0.00    +0.000 C 
ATOM      6  C   UNL     1       2.054   7.424  19.382  0.00  0.00    +0.000 A 
ATOM      7  C   UNL     1       1.598   8.756  19.302  0.00  0.00    +0.000 A 
ATOM      8  N   UNL     1       0.817   9.342  20.267  0.00  0.00    +0.000 NA
ENDROOT
BRANCH   6   9
ATOM      9  C   UNL     1       2.793   6.672  18.294  0.00  0.00    +0.000 C 
ATOM     10  O   UNL     1       2.144   5.909  17.569  0.00  0.00    +0.000 OA
ATOM     11  N   UNL     1       4.165   6.786  18.148  0.00  0.00    +0.000 N 
ATOM     12  H   UNL     1       4.668   7.015  19.006  0.00  0.00    +0.000 HD
BRANCH  11  13
ATOM     13  C   UNL     1       4.874   5.987  17.215  0.00  0.00    +0.000 A 
ATOM     14  C   UNL     1       5.529   4.815  17.605  0.00  0.00    +0.000 A 
ATOM     15  C   UNL     1       6.328   4.116  16.698  0.00  0.00    +0.000 A 
ATOM     16  C   UNL     1       6.478   4.590  15.396  0.00  0.00    +0.000 A 
ATOM     17  C   UNL     1       5.793   5.735  14.990  0.00  0.00    +0.000 A 
ATOM     18  C   UNL     1       4.968   6.415  15.889  0.00  0.00    +0.000 A 
ENDBRANCH  11  13
ENDBRANCH   6   9
BRANCH   7  19
ATOM     19  S   UNL     1       1.851   9.891  17.938  0.00  0.00    +0.000 S 
BRANCH  19  20
ATOM     20  C   UNL     1       1.558  11.483  18.804  0.00  0.00    +0.000 C 
BRANCH  20  21
ATOM     21  C   UNL     1       0.171  12.030  18.478  0.00  0.00    +0.000 C 
ATOM     22  O   UNL     1       0.011  13.190  18.116  0.00  0.00    +0.000 OA
ATOM     23  N   UNL     1      -0.856  11.120  18.639  0.00  0.00    +0.000 N 
ATOM     24  H   UNL     1      -0.626  10.225  19.040  0.00  0.00    +0.000 HD
BRANCH  23  25
ATOM     25  C   UNL     1      -2.233  11.387  18.410  0.00  0.00    +0.000 A 
ATOM     26  C   UNL     1      -2.866  11.043  17.205  0.00  0.00    +0.000 A 
ATOM     27  C   UNL     1      -4.218  11.316  16.979  0.00  0.00    +0.000 A 
ATOM     28  C   UNL     1      -4.961  11.923  17.983  0.00  0.00    +0.000 A 
ATOM     29 BR   UNL     1      -6.790  12.283  17.691  0.00  0.00    +0.000 Br
ATOM     30  C   UNL     1      -4.360  12.261  19.192  0.00  0.00    +0.000 A 
ATOM     31  C   UNL     1      -2.990  12.013  19.418  0.00  0.00    +0.000 A 
ATOM     32  C   UNL     1      -2.392  12.455  20.726  0.00  0.00    +0.000 C 
ENDBRANCH  23  25
ENDBRANCH  20  21
ENDBRANCH  19  20
ENDBRANCH   7  19
TORSDOF 6
ENDMDL
MODEL 7
REMARK VINA RESULT:      -6.9      3.616      5.185
REMARK  Name = 
REMARK  9 active torsions:
REMARK  status: ('A' for Active; 'I' for Inactive)
REMARK    1  A    between atoms: C_1  and  C_2
REMARK    2  A    between atoms: C_4  and  C_5
REMARK    3  A    between atoms: C_6  and  C_7
REMARK    4  A    between atoms: N_9  and  C_10
REMARK    5  A    between atoms: C_16  and  S_17
REMARK    6  A    between atoms: S_17  and  C_18
REMARK    7  A    between atoms: C_18  and  C_19
REMARK    8  A    between atoms: N_21  and  C_22
REMARK    9  A    between atoms: C_28  and  C_29
REMARK                            x       y       z     vdW  Elec       q    Type
REMARK                         _______ _______ _______ _____ _____    ______ ____
ROOT
ATOM      1  C   UNL     1      -0.367   9.428  23.568  0.00  0.00    +0.000 C 
ATOM      2  C   UNL     1      -0.487  10.490  22.513  0.00  0.00    +0.000 A 
ATOM      3  C   UNL     1      -1.190  11.646  22.780  0.00  0.00    +0.000 A 
ATOM      4  C   UNL     1      -1.242  12.667  21.817  0.00  0.00    +0.000 A 
ATOM      5  C   UNL     1      -2.067  13.876  22.191  0.00  0.00    +0.000 C 
ATOM      6  C   UNL     1      -0.536  12.525  20.584  0.00  0.00    +0.000 A 
ATOM      7  C   UNL     1       0.110  11.287  20.385  0.00  0.00    +0.000 A 
ATOM      8  N   UNL     1       0.125  10.288  21.326  0.00  0.00    +0.000 NA
ENDROOT
BRANCH   6   9
ATOM      9  C   UNL     1      -0.471  13.719  19.655  0.00  0.00    +0.000 C 
ATOM     10  O   UNL     1      -1.009  13.625  18.545  0.00  0.00    +0.000 OA
ATOM     11  N   UNL     1       0.219  14.866  20.008  0.00  0.00    +0.000 N 
ATOM     12  H   UNL     1       0.990  14.717  20.659  0.00  0.00    +0.000 HD
BRANCH  11  13
ATOM     13  C   UNL     1       0.388  15.935  19.090  0.00  0.00    +0.000 A 
ATOM     14  C   UNL     1       1.636  16.229  18.533  0.00  0.00    +0.000 A 
ATOM     15  C   UNL     1       1.804  17.363  17.735  0.00  0.00    +0.000 A 
ATOM     16  C   UNL     1       0.724  18.209  17.495  0.00  0.00    +0.000 A 
ATOM     17  C   UNL     1      -0.532  17.898  18.014  0.00  0.00    +0.000 A 
ATOM     18  C   UNL     1      -0.707  16.746  18.785  0.00  0.00    +0.000 A 
ENDBRANCH  11  13
ENDBRANCH   6   9
BRANCH   7  19
ATOM     19  S   UNL     1       1.088  10.810  18.960  0.00  0.00    +0.000 S 
BRANCH  19  20
ATOM     20  C   UNL     1       1.418   9.055  19.388  0.00  0.00    +0.000 C 
BRANCH  20  21
ATOM     21  C   UNL     1       2.207   8.367  18.278  0.00  0.00    +0.000 C 
ATOM     22  O   UNL     1       2.234   8.819  17.139  0.00  0.00    +0.000 OA
ATOM     23  N   UNL     1       2.856   7.211  18.668  0.00  0.00    +0.000 N 
ATOM     24  H   UNL     1       2.683   6.872  19.601  0.00  0.00    +0.000 HD
BRANCH  23  25
ATOM     25  C   UNL     1       3.644   6.387  17.821  0.00  0.00    +0.000 A 
ATOM     26  C   UNL     1       4.805   6.863  17.191  0.00  0.00    +0.000 A 
ATOM     27  C   UNL     1       5.573   6.053  16.350  0.00  0.00    +0.000 A 
ATOM     28  C   UNL     1       5.190   4.733  16.151  0.00  0.00    +0.000 A 
ATOM     29 BR   UNL     1       6.228   3.628  15.027  0.00  0.00    +0.000 Br
ATOM     30  C   UNL     1       4.050   4.233  16.774  0.00  0.00    +0.000 A 
ATOM     31  C   UNL     1       3.256   5.051  17.603  0.00  0.00    +0.000 A 
ATOM     32  C   UNL     1       2.007   4.462  18.201  0.00  0.00    +0.000 C 
ENDBRANCH  23  25
ENDBRANCH  20  21
ENDBRANCH  19  20
ENDBRANCH   7  19
TORSDOF 6
ENDMDL
MODEL 8
REMARK VINA RESULT:      -6.9      0.663      1.098
REMARK  Name = 
REMARK  9 active torsions:
REMARK  status: ('A' for Active; 'I' for Inactive)
REMARK    1  A    between atoms: C_1  and  C_2
REMARK    2  A    between atoms: C_4  and  C_5
REMARK    3  A    between atoms: C_6  and  C_7
REMARK    4  A    between atoms: N_9  and  C_10
REMARK    5  A    between atoms: C_16  and  S_17
REMARK    6  A    between atoms: S_17  and  C_18
REMARK    7  A    between atoms: C_18  and  C_19
REMARK    8  A    between atoms: N_21  and  C_22
REMARK    9  A    between atoms: C_28  and  C_29
REMARK                            x       y       z     vdW  Elec       q    Type
REMARK                         _______ _______ _______ _____ _____    ______ ____
ROOT
ATOM      1  C   UNL     1      -1.921   9.764  17.066  0.00  0.00    +0.000 C 
ATOM      2  C   UNL     1      -2.258  10.738  18.158  0.00  0.00    +0.000 A 
ATOM      3  C   UNL     1      -3.525  11.278  18.230  0.00  0.00    +0.000 A 
ATOM      4  C   UNL     1      -3.857  12.136  19.292  0.00  0.00    +0.000 A 
ATOM      5  C   UNL     1      -5.257  12.702  19.260  0.00  0.00    +0.000 C 
ATOM      6  C   UNL     1      -2.899  12.414  20.314  0.00  0.00    +0.000 A 
ATOM      7  C   UNL     1      -1.618  11.856  20.123  0.00  0.00    +0.000 A 
ATOM      8  N   UNL     1      -1.302  11.044  19.062  0.00  0.00    +0.000 NA
ENDROOT
BRANCH   6   9
ATOM      9  C   UNL     1      -3.355  13.195  21.529  0.00  0.00    +0.000 C 
ATOM     10  O   UNL     1      -3.916  12.577  22.442  0.00  0.00    +0.000 OA
ATOM     11  N   UNL     1      -3.205  14.569  21.596  0.00  0.00    +0.000 N 
ATOM     12  H   UNL     1      -3.195  15.042  20.692  0.00  0.00    +0.000 HD
BRANCH  11  13
ATOM     13  C   UNL     1      -3.746  15.316  22.673  0.00  0.00    +0.000 A 
ATOM     14  C   UNL     1      -3.011  15.560  23.837  0.00  0.00    +0.000 A 
ATOM     15  C   UNL     1      -3.609  16.184  24.933  0.00  0.00    +0.000 A 
ATOM     16  C   UNL     1      -4.948  16.564  24.871  0.00  0.00    +0.000 A 
ATOM     17  C   UNL     1      -5.674  16.363  23.698  0.00  0.00    +0.000 A 
ATOM     18  C   UNL     1      -5.065  15.767  22.590  0.00  0.00    +0.000 A 
ENDBRANCH  11  13
ENDBRANCH   6   9
BRANCH   7  19
ATOM     19  S   UNL     1      -0.214  12.005  21.227  0.00  0.00    +0.000 S 
BRANCH  19  20
ATOM     20  C   UNL     1      -0.545  10.582  22.340  0.00  0.00    +0.000 C 
BRANCH  20  21
ATOM     21  C   UNL     1      -0.158   9.268  21.666  0.00  0.00    +0.000 C 
ATOM     22  O   UNL     1      -0.798   8.240  21.858  0.00  0.00    +0.000 OA
ATOM     23  N   UNL     1       0.958   9.346  20.856  0.00  0.00    +0.000 N 
ATOM     24  H   UNL     1       1.470  10.214  20.851  0.00  0.00    +0.000 HD
BRANCH  23  25
ATOM     25  C   UNL     1       1.523   8.263  20.130  0.00  0.00    +0.000 A 
ATOM     26  C   UNL     1       1.728   7.003  20.715  0.00  0.00    +0.000 A 
ATOM     27  C   UNL     1       2.292   5.942  20.001  0.00  0.00    +0.000 A 
ATOM     28  C   UNL     1       2.638   6.133  18.670  0.00  0.00    +0.000 A 
ATOM     29 BR   UNL     1       3.389   4.703  17.695  0.00  0.00    +0.000 Br
ATOM     30  C   UNL     1       2.432   7.369  18.064  0.00  0.00    +0.000 A 
ATOM     31  C   UNL     1       1.888   8.451  18.784  0.00  0.00    +0.000 A 
ATOM     32  C   UNL     1       1.744   9.775  18.082  0.00  0.00    +0.000 C 
ENDBRANCH  23  25
ENDBRANCH  20  21
ENDBRANCH  19  20
ENDBRANCH   7  19
TORSDOF 6
ENDMDL
MODEL 9
REMARK VINA RESULT:      -6.8      5.165     11.846
REMARK  Name = 
REMARK  9 active torsions:
REMARK  status: ('A' for Active; 'I' for Inactive)
REMARK    1  A    between atoms: C_1  and  C_2
REMARK    2  A    between atoms: C_4  and  C_5
REMARK    3  A    between atoms: C_6  and  C_7
REMARK    4  A    between atoms: N_9  and  C_10
REMARK    5  A    between atoms: C_16  and  S_17
REMARK    6  A    between atoms: S_17  and  C_18
REMARK    7  A    between atoms: C_18  and  C_19
REMARK    8  A    between atoms: N_21  and  C_22
REMARK    9  A    between atoms: C_28  and  C_29
REMARK                            x       y       z     vdW  Elec       q    Type
REMARK                         _______ _______ _______ _____ _____    ______ ____
ROOT
ATOM      1  C   UNL     1       0.521   3.580  20.274  0.00  0.00    +0.000 C 
ATOM      2  C   UNL     1       1.761   3.700  19.437  0.00  0.00    +0.000 A 
ATOM      3  C   UNL     1       2.447   2.563  19.059  0.00  0.00    +0.000 A 
ATOM      4  C   UNL     1       3.567   2.674  18.219  0.00  0.00    +0.000 A 
ATOM      5  C   UNL     1       4.268   1.377  17.892  0.00  0.00    +0.000 C 
ATOM      6  C   UNL     1       3.969   3.952  17.726  0.00  0.00    +0.000 A 
ATOM      7  C   UNL     1       3.237   5.056  18.211  0.00  0.00    +0.000 A 
ATOM      8  N   UNL     1       2.163   4.932  19.056  0.00  0.00    +0.000 NA
ENDROOT
BRANCH   6   9
ATOM      9  C   UNL     1       5.067   4.004  16.684  0.00  0.00    +0.000 C 
ATOM     10  O   UNL     1       6.241   4.026  17.074  0.00  0.00    +0.000 OA
ATOM     11  N   UNL     1       4.771   4.085  15.334  0.00  0.00    +0.000 N 
ATOM     12  H   UNL     1       3.878   4.528  15.119  0.00  0.00    +0.000 HD
BRANCH  11  13
ATOM     13  C   UNL     1       5.793   4.263  14.366  0.00  0.00    +0.000 A 
ATOM     14  C   UNL     1       6.825   5.187  14.553  0.00  0.00    +0.000 A 
ATOM     15  C   UNL     1       7.744   5.437  13.532  0.00  0.00    +0.000 A 
ATOM     16  C   UNL     1       7.632   4.765  12.317  0.00  0.00    +0.000 A 
ATOM     17  C   UNL     1       6.630   3.811  12.140  0.00  0.00    +0.000 A 
ATOM     18  C   UNL     1       5.730   3.538  13.174  0.00  0.00    +0.000 A 
ENDBRANCH  11  13
ENDBRANCH   6   9
BRANCH   7  19
ATOM     19  S   UNL     1       3.483   6.776  17.771  0.00  0.00    +0.000 S 
BRANCH  19  20
ATOM     20  C   UNL     1       2.212   7.553  18.846  0.00  0.00    +0.000 C 
BRANCH  20  21
ATOM     21  C   UNL     1       1.959   8.998  18.427  0.00  0.00    +0.000 C 
ATOM     22  O   UNL     1       2.398   9.443  17.373  0.00  0.00    +0.000 OA
ATOM     23  N   UNL     1       1.222   9.737  19.333  0.00  0.00    +0.000 N 
ATOM     24  H   UNL     1       1.000   9.304  20.215  0.00  0.00    +0.000 HD
BRANCH  23  25
ATOM     25  C   UNL     1       0.864  11.103  19.179  0.00  0.00    +0.000 A 
ATOM     26  C   UNL     1       1.726  12.145  19.554  0.00  0.00    +0.000 A 
ATOM     27  C   UNL     1       1.367  13.488  19.411  0.00  0.00    +0.000 A 
ATOM     28  C   UNL     1       0.131  13.800  18.860  0.00  0.00    +0.000 A 
ATOM     29 BR   UNL     1      -0.357  15.611  18.651  0.00  0.00    +0.000 Br
ATOM     30  C   UNL     1      -0.737  12.785  18.468  0.00  0.00    +0.000 A 
ATOM     31  C   UNL     1      -0.393  11.429  18.633  0.00  0.00    +0.000 A 
ATOM     32  C   UNL     1      -1.401  10.383  18.239  0.00  0.00    +0.000 C 
ENDBRANCH  23  25
ENDBRANCH  20  21
ENDBRANCH  19  20
ENDBRANCH   7  19
TORSDOF 6
ENDMDL
