MODEL 1
REMARK VINA RESULT:      -7.4      0.000      0.000
REMARK  Name = 
REMARK  8 active torsions:
REMARK  status: ('A' for Active; 'I' for Inactive)
REMARK    1  A    between atoms: C_1  and  O_2
REMARK    2  A    between atoms: O_2  and  C_3
REMARK    3  A    between atoms: C_5  and  C_6
REMARK    4  A    between atoms: C_9  and  C_10
REMARK    5  A    between atoms: C_12  and  C_13
REMARK    6  A    between atoms: C_13  and  C_14
REMARK    7  A    between atoms: C_13  and  C_15
REMARK    8  A    between atoms: C_15  and  O_17
REMARK                            x       y       z     vdW  Elec       q    Type
REMARK                         _______ _______ _______ _____ _____    ______ ____
ROOT
ATOM      1  C   UNL     1       1.889   7.548  19.823  0.00  0.00    +0.000 A 
ATOM      2  C   UNL     1       1.894   6.330  20.501  0.00  0.00    +0.000 A 
ATOM      3  C   UNL     1       2.578   5.220  19.996  0.00  0.00    +0.000 A 
ATOM      4  C   UNL     1       2.562   3.940  20.789  0.00  0.00    +0.000 C 
ATOM      5  C   UNL     1       3.270   5.331  18.773  0.00  0.00    +0.000 A 
ATOM      6  C   UNL     1       3.299   6.574  18.085  0.00  0.00    +0.000 A 
ATOM      7  C   UNL     1       2.566   7.677  18.591  0.00  0.00    +0.000 A 
ATOM      8  C   UNL     1       2.479   9.004  17.874  0.00  0.00    +0.000 C 
ATOM      9  C   UNL     1       4.081   6.697  16.785  0.00  0.00    +0.000 C 
ATOM     10  C   UNL     1       5.206   5.656  16.640  0.00  0.00    +0.000 C 
ATOM     11  C   UNL     1       4.547   4.280  16.830  0.00  0.00    +0.000 C 
ATOM     12  C   UNL     1       4.020   4.118  18.249  0.00  0.00    +0.000 C 
ENDROOT
BRANCH   1  14
ATOM     13  C   UNL     1       1.165   8.816  21.690  0.00  0.00    +0.000 C 
ATOM     14  O   UNL     1       1.212   8.655  20.275  0.00  0.00    +0.000 OA
ENDBRANCH   1  14
BRANCH  10  15
ATOM     15  C   UNL     1       6.394   5.917  17.615  0.00  0.00    +0.000 C 
ATOM     16  C   UNL     1       7.032   7.295  17.443  0.00  0.00    +0.000 C 
BRANCH  15  17
ATOM     17  C   UNL     1       7.489   4.878  17.435  0.00  0.00    +0.000 C 
ATOM     18  O   UNL     1       8.043   4.287  18.349  0.00  0.00    +0.000 OA
BRANCH  17  19
ATOM     19  O   UNL     1       7.789   4.638  16.138  0.00  0.00    +0.000 OA
ATOM     20  H   UNL     1       8.135   3.742  15.966  0.00  0.00    +0.000 HD
ENDBRANCH  17  19
ENDBRANCH  15  17
ENDBRANCH  10  15
TORSDOF 4
ENDMDL
MODEL 2
REMARK VINA RESULT:      -7.3      0.766      1.094
REMARK  Name = 
REMARK  8 active torsions:
REMARK  status: ('A' for Active; 'I' for Inactive)
REMARK    1  A    between atoms: C_1  and  O_2
REMARK    2  A    between atoms: O_2  and  C_3
REMARK    3  A    between atoms: C_5  and  C_6
REMARK    4  A    between atoms: C_9  and  C_10
REMARK    5  A    between atoms: C_12  and  C_13
REMARK    6  A    between atoms: C_13  and  C_14
REMARK    7  A    between atoms: C_13  and  C_15
REMARK    8  A    between atoms: C_15  and  O_17
REMARK                            x       y       z     vdW  Elec       q    Type
REMARK                         _______ _______ _______ _____ _____    ______ ____
ROOT
ATOM      1  C   UNL     1       1.976   7.175  19.955  0.00  0.00    +0.000 A 
ATOM      2  C   UNL     1       1.844   6.039  20.751  0.00  0.00    +0.000 A 
ATOM      3  C   UNL     1       2.360   4.804  20.346  0.00  0.00    +0.000 A 
ATOM      4  C   UNL     1       2.203   3.620  21.263  0.00  0.00    +0.000 C 
ATOM      5  C   UNL     1       3.021   4.702  19.105  0.00  0.00    +0.000 A 
ATOM      6  C   UNL     1       3.190   5.859  18.295  0.00  0.00    +0.000 A 
ATOM      7  C   UNL     1       2.624   7.093  18.703  0.00  0.00    +0.000 A 
ATOM      8  C   UNL     1       2.688   8.345  17.858  0.00  0.00    +0.000 C 
ATOM      9  C   UNL     1       3.939   5.750  16.975  0.00  0.00    +0.000 C 
ATOM     10  C   UNL     1       4.913   4.559  16.913  0.00  0.00    +0.000 C 
ATOM     11  C   UNL     1       4.086   3.308  17.253  0.00  0.00    +0.000 C 
ATOM     12  C   UNL     1       3.589   3.356  18.691  0.00  0.00    +0.000 C 
ENDROOT
BRANCH   1  14
ATOM     13  C   UNL     1       1.123   8.557  21.681  0.00  0.00    +0.000 C 
ATOM     14  O   UNL     1       1.465   8.401  20.306  0.00  0.00    +0.000 OA
ENDBRANCH   1  14
BRANCH  10  15
ATOM     15  C   UNL     1       6.156   4.752  17.834  0.00  0.00    +0.000 C 
ATOM     16  C   UNL     1       6.264   6.157  18.425  0.00  0.00    +0.000 C 
BRANCH  15  17
ATOM     17  C   UNL     1       7.445   4.469  17.080  0.00  0.00    +0.000 C 
ATOM     18  O   UNL     1       7.607   4.658  15.884  0.00  0.00    +0.000 OA
BRANCH  17  19
ATOM     19  O   UNL     1       8.435   3.998  17.874  0.00  0.00    +0.000 OA
ATOM     20  H   UNL     1       9.288   3.871  17.417  0.00  0.00    +0.000 HD
ENDBRANCH  17  19
ENDBRANCH  15  17
ENDBRANCH  10  15
TORSDOF 4
ENDMDL
MODEL 3
REMARK VINA RESULT:      -7.2      2.421      4.030
REMARK  Name = 
REMARK  8 active torsions:
REMARK  status: ('A' for Active; 'I' for Inactive)
REMARK    1  A    between atoms: C_1  and  O_2
REMARK    2  A    between atoms: O_2  and  C_3
REMARK    3  A    between atoms: C_5  and  C_6
REMARK    4  A    between atoms: C_9  and  C_10
REMARK    5  A    between atoms: C_12  and  C_13
REMARK    6  A    between atoms: C_13  and  C_14
REMARK    7  A    between atoms: C_13  and  C_15
REMARK    8  A    between atoms: C_15  and  O_17
REMARK                            x       y       z     vdW  Elec       q    Type
REMARK                         _______ _______ _______ _____ _____    ______ ____
ROOT
ATOM      1  C   UNL     1       2.343   4.339  18.167  0.00  0.00    +0.000 A 
ATOM      2  C   UNL     1       2.220   5.728  18.161  0.00  0.00    +0.000 A 
ATOM      3  C   UNL     1       3.293   6.551  17.805  0.00  0.00    +0.000 A 
ATOM      4  C   UNL     1       3.088   8.042  17.798  0.00  0.00    +0.000 C 
ATOM      5  C   UNL     1       4.526   5.967  17.451  0.00  0.00    +0.000 A 
ATOM      6  C   UNL     1       4.658   4.552  17.422  0.00  0.00    +0.000 A 
ATOM      7  C   UNL     1       3.572   3.735  17.827  0.00  0.00    +0.000 A 
ATOM      8  C   UNL     1       3.663   2.228  17.904  0.00  0.00    +0.000 C 
ATOM      9  C   UNL     1       5.980   3.928  17.001  0.00  0.00    +0.000 C 
ATOM     10  C   UNL     1       6.845   4.847  16.118  0.00  0.00    +0.000 C 
ATOM     11  C   UNL     1       7.009   6.162  16.898  0.00  0.00    +0.000 C 
ATOM     12  C   UNL     1       5.674   6.878  17.050  0.00  0.00    +0.000 C 
ENDROOT
BRANCH   1  14
ATOM     13  C   UNL     1       0.907   3.578  19.892  0.00  0.00    +0.000 C 
ATOM     14  O   UNL     1       1.320   3.497  18.531  0.00  0.00    +0.000 OA
ENDBRANCH   1  14
BRANCH  10  15
ATOM     15  C   UNL     1       6.249   5.040  14.690  0.00  0.00    +0.000 C 
ATOM     16  C   UNL     1       5.272   3.939  14.283  0.00  0.00    +0.000 C 
BRANCH  15  17
ATOM     17  C   UNL     1       7.349   5.091  13.641  0.00  0.00    +0.000 C 
ATOM     18  O   UNL     1       8.363   5.766  13.729  0.00  0.00    +0.000 OA
BRANCH  17  19
ATOM     19  O   UNL     1       7.112   4.284  12.582  0.00  0.00    +0.000 OA
ATOM     20  H   UNL     1       7.784   4.343  11.876  0.00  0.00    +0.000 HD
ENDBRANCH  17  19
ENDBRANCH  15  17
ENDBRANCH  10  15
TORSDOF 4
ENDMDL
MODEL 4
REMARK VINA RESULT:      -7.1      2.494      5.318
REMARK  Name = 
REMARK  8 active torsions:
REMARK  status: ('A' for Active; 'I' for Inactive)
REMARK    1  A    between atoms: C_1  and  O_2
REMARK    2  A    between atoms: O_2  and  C_3
REMARK    3  A    between atoms: C_5  and  C_6
REMARK    4  A    between atoms: C_9  and  C_10
REMARK    5  A    between atoms: C_12  and  C_13
REMARK    6  A    between atoms: C_13  and  C_14
REMARK    7  A    between atoms: C_13  and  C_15
REMARK    8  A    between atoms: C_15  and  O_17
REMARK                            x       y       z     vdW  Elec       q    Type
REMARK                         _______ _______ _______ _____ _____    ______ ____
ROOT
ATOM      1  C   UNL     1       5.928   6.639  17.012  0.00  0.00    +0.000 A 
ATOM      2  C   UNL     1       4.905   7.530  17.332  0.00  0.00    +0.000 A 
ATOM      3  C   UNL     1       3.622   7.078  17.656  0.00  0.00    +0.000 A 
ATOM      4  C   UNL     1       2.568   8.092  18.014  0.00  0.00    +0.000 C 
ATOM      5  C   UNL     1       3.354   5.694  17.651  0.00  0.00    +0.000 A 
ATOM      6  C   UNL     1       4.394   4.771  17.356  0.00  0.00    +0.000 A 
ATOM      7  C   UNL     1       5.677   5.250  16.990  0.00  0.00    +0.000 A 
ATOM      8  C   UNL     1       6.809   4.335  16.581  0.00  0.00    +0.000 C 
ATOM      9  C   UNL     1       4.107   3.277  17.392  0.00  0.00    +0.000 C 
ATOM     10  C   UNL     1       2.906   2.900  18.278  0.00  0.00    +0.000 C 
ATOM     11  C   UNL     1       1.719   3.739  17.777  0.00  0.00    +0.000 C 
ATOM     12  C   UNL     1       1.958   5.223  18.022  0.00  0.00    +0.000 C 
ENDROOT
BRANCH   1  14
ATOM     13  C   UNL     1       7.808   7.975  17.555  0.00  0.00    +0.000 C 
ATOM     14  O   UNL     1       7.195   7.044  16.668  0.00  0.00    +0.000 OA
ENDBRANCH   1  14
BRANCH  10  15
ATOM     15  C   UNL     1       3.201   3.084  19.798  0.00  0.00    +0.000 C 
ATOM     16  C   UNL     1       4.424   2.305  20.281  0.00  0.00    +0.000 C 
BRANCH  15  17
ATOM     17  C   UNL     1       2.015   2.648  20.643  0.00  0.00    +0.000 C 
ATOM     18  O   UNL     1       0.902   2.402  20.204  0.00  0.00    +0.000 OA
BRANCH  17  19
ATOM     19  O   UNL     1       2.311   2.531  21.958  0.00  0.00    +0.000 OA
ATOM     20  H   UNL     1       3.216   2.210  22.137  0.00  0.00    +0.000 HD
ENDBRANCH  17  19
ENDBRANCH  15  17
ENDBRANCH  10  15
TORSDOF 4
ENDMDL
MODEL 5
REMARK VINA RESULT:      -7.1      2.156      3.809
REMARK  Name = 
REMARK  8 active torsions:
REMARK  status: ('A' for Active; 'I' for Inactive)
REMARK    1  A    between atoms: C_1  and  O_2
REMARK    2  A    between atoms: O_2  and  C_3
REMARK    3  A    between atoms: C_5  and  C_6
REMARK    4  A    between atoms: C_9  and  C_10
REMARK    5  A    between atoms: C_12  and  C_13
REMARK    6  A    between atoms: C_13  and  C_14
REMARK    7  A    between atoms: C_13  and  C_15
REMARK    8  A    between atoms: C_15  and  O_17
REMARK                            x       y       z     vdW  Elec       q    Type
REMARK                         _______ _______ _______ _____ _____    ______ ____
ROOT
ATOM      1  C   UNL     1       2.728   4.444  19.623  0.00  0.00    +0.000 A 
ATOM      2  C   UNL     1       2.239   5.688  19.230  0.00  0.00    +0.000 A 
ATOM      3  C   UNL     1       3.016   6.567  18.469  0.00  0.00    +0.000 A 
ATOM      4  C   UNL     1       2.420   7.888  18.059  0.00  0.00    +0.000 C 
ATOM      5  C   UNL     1       4.322   6.192  18.096  0.00  0.00    +0.000 A 
ATOM      6  C   UNL     1       4.824   4.913  18.463  0.00  0.00    +0.000 A 
ATOM      7  C   UNL     1       4.038   4.053  19.270  0.00  0.00    +0.000 A 
ATOM      8  C   UNL     1       4.534   2.716  19.770  0.00  0.00    +0.000 C 
ATOM      9  C   UNL     1       6.221   4.499  18.023  0.00  0.00    +0.000 C 
ATOM     10  C   UNL     1       6.723   5.247  16.775  0.00  0.00    +0.000 C 
ATOM     11  C   UNL     1       6.601   6.747  17.093  0.00  0.00    +0.000 C 
ATOM     12  C   UNL     1       5.144   7.154  17.255  0.00  0.00    +0.000 C 
ENDROOT
BRANCH   1  14
ATOM     13  C   UNL     1       0.833   3.029  19.778  0.00  0.00    +0.000 C 
ATOM     14  O   UNL     1       2.005   3.561  20.388  0.00  0.00    +0.000 OA
ENDBRANCH   1  14
BRANCH  10  15
ATOM     15  C   UNL     1       5.970   4.823  15.477  0.00  0.00    +0.000 C 
ATOM     16  C   UNL     1       5.239   3.487  15.605  0.00  0.00    +0.000 C 
BRANCH  15  17
ATOM     17  C   UNL     1       6.926   4.714  14.300  0.00  0.00    +0.000 C 
ATOM     18  O   UNL     1       7.869   5.463  14.098  0.00  0.00    +0.000 OA
BRANCH  17  19
ATOM     19  O   UNL     1       6.648   3.671  13.483  0.00  0.00    +0.000 OA
ATOM     20  H   UNL     1       6.561   2.815  13.944  0.00  0.00    +0.000 HD
ENDBRANCH  17  19
ENDBRANCH  15  17
ENDBRANCH  10  15
TORSDOF 4
ENDMDL
MODEL 6
REMARK VINA RESULT:      -6.6      1.656      2.815
REMARK  Name = 
REMARK  8 active torsions:
REMARK  status: ('A' for Active; 'I' for Inactive)
REMARK    1  A    between atoms: C_1  and  O_2
REMARK    2  A    between atoms: O_2  and  C_3
REMARK    3  A    between atoms: C_5  and  C_6
REMARK    4  A    between atoms: C_9  and  C_10
REMARK    5  A    between atoms: C_12  and  C_13
REMARK    6  A    between atoms: C_13  and  C_14
REMARK    7  A    between atoms: C_13  and  C_15
REMARK    8  A    between atoms: C_15  and  O_17
REMARK                            x       y       z     vdW  Elec       q    Type
REMARK                         _______ _______ _______ _____ _____    ______ ____
ROOT
ATOM      1  C   UNL     1       2.461   4.114  20.002  0.00  0.00    +0.000 A 
ATOM      2  C   UNL     1       2.785   2.879  19.442  0.00  0.00    +0.000 A 
ATOM      3  C   UNL     1       3.488   2.790  18.237  0.00  0.00    +0.000 A 
ATOM      4  C   UNL     1       3.825   1.425  17.697  0.00  0.00    +0.000 C 
ATOM      5  C   UNL     1       3.871   3.971  17.569  0.00  0.00    +0.000 A 
ATOM      6  C   UNL     1       3.575   5.237  18.143  0.00  0.00    +0.000 A 
ATOM      7  C   UNL     1       2.825   5.309  19.344  0.00  0.00    +0.000 A 
ATOM      8  C   UNL     1       2.399   6.617  19.970  0.00  0.00    +0.000 C 
ATOM      9  C   UNL     1       4.026   6.507  17.436  0.00  0.00    +0.000 C 
ATOM     10  C   UNL     1       5.225   6.297  16.493  0.00  0.00    +0.000 C 
ATOM     11  C   UNL     1       4.821   5.170  15.528  0.00  0.00    +0.000 C 
ATOM     12  C   UNL     1       4.648   3.852  16.269  0.00  0.00    +0.000 C 
ENDROOT
BRANCH   1  14
ATOM     13  C   UNL     1       1.546   3.041  21.907  0.00  0.00    +0.000 C 
ATOM     14  O   UNL     1       1.754   4.244  21.173  0.00  0.00    +0.000 OA
ENDBRANCH   1  14
BRANCH  10  15
ATOM     15  C   UNL     1       6.551   6.013  17.262  0.00  0.00    +0.000 C 
ATOM     16  C   UNL     1       7.314   7.278  17.650  0.00  0.00    +0.000 C 
BRANCH  15  17
ATOM     17  C   UNL     1       7.487   5.144  16.438  0.00  0.00    +0.000 C 
ATOM     18  O   UNL     1       7.735   5.318  15.254  0.00  0.00    +0.000 OA
BRANCH  17  19
ATOM     19  O   UNL     1       8.057   4.147  17.153  0.00  0.00    +0.000 OA
ATOM     20  H   UNL     1       8.378   4.420  18.034  0.00  0.00    +0.000 HD
ENDBRANCH  17  19
ENDBRANCH  15  17
ENDBRANCH  10  15
TORSDOF 4
ENDMDL
MODEL 7
REMARK VINA RESULT:      -6.6      1.961      3.126
REMARK  Name = 
REMARK  8 active torsions:
REMARK  status: ('A' for Active; 'I' for Inactive)
REMARK    1  A    between atoms: C_1  and  O_2
REMARK    2  A    between atoms: O_2  and  C_3
REMARK    3  A    between atoms: C_5  and  C_6
REMARK    4  A    between atoms: C_9  and  C_10
REMARK    5  A    between atoms: C_12  and  C_13
REMARK    6  A    between atoms: C_13  and  C_14
REMARK    7  A    between atoms: C_13  and  C_15
REMARK    8  A    between atoms: C_15  and  O_17
REMARK                            x       y       z     vdW  Elec       q    Type
REMARK                         _______ _______ _______ _____ _____    ______ ____
ROOT
ATOM      1  C   UNL     1       2.171   3.992  19.814  0.00  0.00    +0.000 A 
ATOM      2  C   UNL     1       2.540   2.801  19.191  0.00  0.00    +0.000 A 
ATOM      3  C   UNL     1       3.398   2.793  18.087  0.00  0.00    +0.000 A 
ATOM      4  C   UNL     1       3.775   1.471  17.474  0.00  0.00    +0.000 C 
ATOM      5  C   UNL     1       3.895   4.014  17.588  0.00  0.00    +0.000 A 
ATOM      6  C   UNL     1       3.553   5.235  18.231  0.00  0.00    +0.000 A 
ATOM      7  C   UNL     1       2.648   5.226  19.323  0.00  0.00    +0.000 A 
ATOM      8  C   UNL     1       2.170   6.488  20.004  0.00  0.00    +0.000 C 
ATOM      9  C   UNL     1       4.125   6.546  17.712  0.00  0.00    +0.000 C 
ATOM     10  C   UNL     1       5.436   6.377  16.922  0.00  0.00    +0.000 C 
ATOM     11  C   UNL     1       5.142   5.355  15.812  0.00  0.00    +0.000 C 
ATOM     12  C   UNL     1       4.840   3.983  16.399  0.00  0.00    +0.000 C 
ENDROOT
BRANCH   1  14
ATOM     13  C   UNL     1       1.308   2.895  21.729  0.00  0.00    +0.000 C 
ATOM     14  O   UNL     1       1.313   4.043  20.886  0.00  0.00    +0.000 OA
ENDBRANCH   1  14
BRANCH  10  15
ATOM     15  C   UNL     1       6.638   5.980  17.832  0.00  0.00    +0.000 C 
ATOM     16  C   UNL     1       6.232   5.644  19.266  0.00  0.00    +0.000 C 
BRANCH  15  17
ATOM     17  C   UNL     1       7.669   7.096  17.896  0.00  0.00    +0.000 C 
ATOM     18  O   UNL     1       7.786   7.983  17.064  0.00  0.00    +0.000 OA
BRANCH  17  19
ATOM     19  O   UNL     1       8.452   7.036  18.997  0.00  0.00    +0.000 OA
ATOM     20  H   UNL     1       8.132   6.418  19.683  0.00  0.00    +0.000 HD
ENDBRANCH  17  19
ENDBRANCH  15  17
ENDBRANCH  10  15
TORSDOF 4
ENDMDL
MODEL 8
REMARK VINA RESULT:      -6.4      2.504      5.714
REMARK  Name = 
REMARK  8 active torsions:
REMARK  status: ('A' for Active; 'I' for Inactive)
REMARK    1  A    between atoms: C_1  and  O_2
REMARK    2  A    between atoms: O_2  and  C_3
REMARK    3  A    between atoms: C_5  and  C_6
REMARK    4  A    between atoms: C_9  and  C_10
REMARK    5  A    between atoms: C_12  and  C_13
REMARK    6  A    between atoms: C_13  and  C_14
REMARK    7  A    between atoms: C_13  and  C_15
REMARK    8  A    between atoms: C_15  and  O_17
REMARK                            x       y       z     vdW  Elec       q    Type
REMARK                         _______ _______ _______ _____ _____    ______ ____
ROOT
ATOM      1  C   UNL     1       7.104   5.980  17.325  0.00  0.00    +0.000 A 
ATOM      2  C   UNL     1       6.621   5.693  16.049  0.00  0.00    +0.000 A 
ATOM      3  C   UNL     1       5.634   4.724  15.846  0.00  0.00    +0.000 A 
ATOM      4  C   UNL     1       5.141   4.477  14.445  0.00  0.00    +0.000 C 
ATOM      5  C   UNL     1       5.120   4.017  16.953  0.00  0.00    +0.000 A 
ATOM      6  C   UNL     1       5.580   4.320  18.263  0.00  0.00    +0.000 A 
ATOM      7  C   UNL     1       6.611   5.276  18.445  0.00  0.00    +0.000 A 
ATOM      8  C   UNL     1       7.211   5.590  19.796  0.00  0.00    +0.000 C 
ATOM      9  C   UNL     1       4.992   3.580  19.456  0.00  0.00    +0.000 C 
ATOM     10  C   UNL     1       3.589   3.002  19.195  0.00  0.00    +0.000 C 
ATOM     11  C   UNL     1       3.710   2.131  17.934  0.00  0.00    +0.000 C 
ATOM     12  C   UNL     1       4.036   2.980  16.713  0.00  0.00    +0.000 C 
ENDROOT
BRANCH   1  14
ATOM     13  C   UNL     1       7.675   8.272  17.518  0.00  0.00    +0.000 C 
ATOM     14  O   UNL     1       8.087   6.910  17.563  0.00  0.00    +0.000 OA
ENDBRANCH   1  14
BRANCH  10  15
ATOM     15  C   UNL     1       2.496   4.109  19.086  0.00  0.00    +0.000 C 
ATOM     16  C   UNL     1       2.614   5.191  20.158  0.00  0.00    +0.000 C 
BRANCH  15  17
ATOM     17  C   UNL     1       1.101   3.512  19.185  0.00  0.00    +0.000 C 
ATOM     18  O   UNL     1       0.565   2.848  18.311  0.00  0.00    +0.000 OA
BRANCH  17  19
ATOM     19  O   UNL     1       0.496   3.765  20.368  0.00  0.00    +0.000 OA
ATOM     20  H   UNL     1       1.095   4.109  21.058  0.00  0.00    +0.000 HD
ENDBRANCH  17  19
ENDBRANCH  15  17
ENDBRANCH  10  15
TORSDOF 4
ENDMDL
MODEL 9
REMARK VINA RESULT:      -6.4      3.808      8.045
REMARK  Name = 
REMARK  8 active torsions:
REMARK  status: ('A' for Active; 'I' for Inactive)
REMARK    1  A    between atoms: C_1  and  O_2
REMARK    2  A    between atoms: O_2  and  C_3
REMARK    3  A    between atoms: C_5  and  C_6
REMARK    4  A    between atoms: C_9  and  C_10
REMARK    5  A    between atoms: C_12  and  C_13
REMARK    6  A    between atoms: C_13  and  C_14
REMARK    7  A    between atoms: C_13  and  C_15
REMARK    8  A    between atoms: C_15  and  O_17
REMARK                            x       y       z     vdW  Elec       q    Type
REMARK                         _______ _______ _______ _____ _____    ______ ____
ROOT
ATOM      1  C   UNL     1       1.692   8.015  20.172  0.00  0.00    +0.000 A 
ATOM      2  C   UNL     1       1.134   8.232  21.431  0.00  0.00    +0.000 A 
ATOM      3  C   UNL     1       0.287   9.317  21.674  0.00  0.00    +0.000 A 
ATOM      4  C   UNL     1      -0.299   9.482  23.051  0.00  0.00    +0.000 C 
ATOM      5  C   UNL     1      -0.004  10.216  20.628  0.00  0.00    +0.000 A 
ATOM      6  C   UNL     1       0.532   9.992  19.331  0.00  0.00    +0.000 A 
ATOM      7  C   UNL     1       1.422   8.910  19.114  0.00  0.00    +0.000 A 
ATOM      8  C   UNL     1       2.098   8.656  17.786  0.00  0.00    +0.000 C 
ATOM      9  C   UNL     1       0.182  10.944  18.197  0.00  0.00    +0.000 C 
ATOM     10  C   UNL     1      -1.139  11.706  18.415  0.00  0.00    +0.000 C 
ATOM     11  C   UNL     1      -1.014  12.400  19.781  0.00  0.00    +0.000 C 
ATOM     12  C   UNL     1      -0.940  11.379  20.908  0.00  0.00    +0.000 C 
ENDROOT
BRANCH   1  14
ATOM     13  C   UNL     1       2.075   5.678  20.261  0.00  0.00    +0.000 C 
ATOM     14  O   UNL     1       2.545   6.973  19.898  0.00  0.00    +0.000 OA
ENDBRANCH   1  14
BRANCH  10  15
ATOM     15  C   UNL     1      -2.390  10.783  18.297  0.00  0.00    +0.000 C 
ATOM     16  C   UNL     1      -2.331   9.824  17.109  0.00  0.00    +0.000 C 
BRANCH  15  17
ATOM     17  C   UNL     1      -3.664  11.602  18.164  0.00  0.00    +0.000 C 
ATOM     18  O   UNL     1      -4.386  11.921  19.097  0.00  0.00    +0.000 OA
BRANCH  17  19
ATOM     19  O   UNL     1      -3.925  11.979  16.891  0.00  0.00    +0.000 OA
ATOM     20  H   UNL     1      -3.140  12.281  16.395  0.00  0.00    +0.000 HD
ENDBRANCH  17  19
ENDBRANCH  15  17
ENDBRANCH  10  15
TORSDOF 4
ENDMDL
