MODEL 1
REMARK VINA RESULT:      -7.3      0.000      0.000
REMARK  Name = 
REMARK  7 active torsions:
REMARK  status: ('A' for Active; 'I' for Inactive)
REMARK    1  A    between atoms: C_2  and  O_3
REMARK    2  A    between atoms: C_2  and  C_4
REMARK    3  A    between atoms: C_7  and  N_8
REMARK    4  A    between atoms: C_13  and  C_14
REMARK    5  A    between atoms: C_13  and  C_16
REMARK    6  A    between atoms: C_14  and  O_15
REMARK    7  A    between atoms: C_16  and  O_17
REMARK                            x       y       z     vdW  Elec       q    Type
REMARK                         _______ _______ _______ _____ _____    ______ ____
ROOT
ATOM      1  N   UNL     1       2.939   4.097  19.396  0.00  0.00    +0.000 N 
ATOM      2  C   UNL     1       2.043   4.725  20.271  0.00  0.00    +0.000 C 
ATOM      3  O   UNL     1       1.936   5.923  20.495  0.00  0.00    +0.000 OA
ATOM      4  C   UNL     1       1.189   3.667  20.921  0.00  0.00    +0.000 C 
ATOM      5  C   UNL     1       1.537   2.401  20.148  0.00  0.00    +0.000 C 
ATOM      6  C   UNL     1       2.956   2.639  19.601  0.00  0.00    +0.000 C 
ENDROOT
BRANCH   1  10
ATOM      7  C   UNL     1       6.129   6.065  17.453  0.00  0.00    +0.000 A 
ATOM      8  C   UNL     1       4.922   5.860  16.777  0.00  0.00    +0.000 A 
ATOM      9  C   UNL     1       3.859   5.211  17.416  0.00  0.00    +0.000 A 
ATOM     10  C   UNL     1       3.978   4.805  18.750  0.00  0.00    +0.000 A 
ATOM     11  C   UNL     1       5.182   5.032  19.424  0.00  0.00    +0.000 A 
ATOM     12  C   UNL     1       6.254   5.662  18.785  0.00  0.00    +0.000 A 
BRANCH   7  14
ATOM     13  O   UNL     1       7.706   7.800  17.073  0.00  0.00    +0.000 OA
ATOM     14  C   UNL     1       7.245   6.724  16.734  0.00  0.00    +0.000 C 
BRANCH  14  15
ATOM     15  O   UNL     1       7.669   6.042  15.648  0.00  0.00    +0.000 OA
ATOM     16  H   UNL     1       6.964   5.593  15.144  0.00  0.00    +0.000 HD
ENDBRANCH  14  15
ENDBRANCH   7  14
ENDBRANCH   1  10
BRANCH   6  17
ATOM     17  C   UNL     1       4.027   2.224  20.658  0.00  0.00    +0.000 C 
BRANCH  17  18
ATOM     18  O   UNL     1       5.177   1.605  20.093  0.00  0.00    +0.000 OA
ATOM     19  H   UNL     1       5.156   0.667  20.348  0.00  0.00    +0.000 HD
ENDBRANCH  17  18
ENDBRANCH   6  17
BRANCH   6  20
ATOM     20  C   UNL     1       3.216   1.772  18.341  0.00  0.00    +0.000 C 
BRANCH  20  21
ATOM     21  O   UNL     1       2.204   1.886  17.346  0.00  0.00    +0.000 OA
ATOM     22  H   UNL     1       1.740   2.731  17.469  0.00  0.00    +0.000 HD
ENDBRANCH  20  21
ENDBRANCH   6  20
TORSDOF 7
ENDMDL
MODEL 2
REMARK VINA RESULT:      -7.2      0.251      1.130
REMARK  Name = 
REMARK  7 active torsions:
REMARK  status: ('A' for Active; 'I' for Inactive)
REMARK    1  A    between atoms: C_2  and  O_3
REMARK    2  A    between atoms: C_2  and  C_4
REMARK    3  A    between atoms: C_7  and  N_8
REMARK    4  A    between atoms: C_13  and  C_14
REMARK    5  A    between atoms: C_13  and  C_16
REMARK    6  A    between atoms: C_14  and  O_15
REMARK    7  A    between atoms: C_16  and  O_17
REMARK                            x       y       z     vdW  Elec       q    Type
REMARK                         _______ _______ _______ _____ _____    ______ ____
ROOT
ATOM      1  N   UNL     1       2.952   4.122  19.397  0.00  0.00    +0.000 N 
ATOM      2  C   UNL     1       2.057   4.771  20.257  0.00  0.00    +0.000 C 
ATOM      3  O   UNL     1       1.981   5.971  20.486  0.00  0.00    +0.000 OA
ATOM      4  C   UNL     1       1.159   3.736  20.882  0.00  0.00    +0.000 C 
ATOM      5  C   UNL     1       1.486   2.465  20.109  0.00  0.00    +0.000 C 
ATOM      6  C   UNL     1       2.922   2.664  19.593  0.00  0.00    +0.000 C 
ENDROOT
BRANCH   1  10
ATOM      7  C   UNL     1       6.080   6.302  17.583  0.00  0.00    +0.000 A 
ATOM      8  C   UNL     1       6.296   5.662  18.807  0.00  0.00    +0.000 A 
ATOM      9  C   UNL     1       5.265   4.936  19.413  0.00  0.00    +0.000 A 
ATOM     10  C   UNL     1       4.025   4.803  18.777  0.00  0.00    +0.000 A 
ATOM     11  C   UNL     1       3.824   5.430  17.544  0.00  0.00    +0.000 A 
ATOM     12  C   UNL     1       4.844   6.174  16.942  0.00  0.00    +0.000 A 
BRANCH   7  14
ATOM     13  O   UNL     1       7.434   8.236  17.324  0.00  0.00    +0.000 OA
ATOM     14  C   UNL     1       7.183   7.092  16.987  0.00  0.00    +0.000 C 
BRANCH  14  15
ATOM     15  O   UNL     1       7.852   6.440  16.011  0.00  0.00    +0.000 OA
ATOM     16  H   UNL     1       7.637   5.492  15.930  0.00  0.00    +0.000 HD
ENDBRANCH  14  15
ENDBRANCH   7  14
ENDBRANCH   1  10
BRANCH   6  17
ATOM     17  C   UNL     1       3.958   2.211  20.669  0.00  0.00    +0.000 C 
BRANCH  17  18
ATOM     18  O   UNL     1       5.105   1.570  20.123  0.00  0.00    +0.000 OA
ATOM     19  H   UNL     1       4.890   0.626  20.024  0.00  0.00    +0.000 HD
ENDBRANCH  17  18
ENDBRANCH   6  17
BRANCH   6  20
ATOM     20  C   UNL     1       3.183   1.797  18.333  0.00  0.00    +0.000 C 
BRANCH  20  21
ATOM     21  O   UNL     1       2.124   1.833  17.380  0.00  0.00    +0.000 OA
ATOM     22  H   UNL     1       1.475   1.147  17.610  0.00  0.00    +0.000 HD
ENDBRANCH  20  21
ENDBRANCH   6  20
TORSDOF 7
ENDMDL
MODEL 3
REMARK VINA RESULT:      -7.1      1.708      3.130
REMARK  Name = 
REMARK  7 active torsions:
REMARK  status: ('A' for Active; 'I' for Inactive)
REMARK    1  A    between atoms: C_2  and  O_3
REMARK    2  A    between atoms: C_2  and  C_4
REMARK    3  A    between atoms: C_7  and  N_8
REMARK    4  A    between atoms: C_13  and  C_14
REMARK    5  A    between atoms: C_13  and  C_16
REMARK    6  A    between atoms: C_14  and  O_15
REMARK    7  A    between atoms: C_16  and  O_17
REMARK                            x       y       z     vdW  Elec       q    Type
REMARK                         _______ _______ _______ _____ _____    ______ ____
ROOT
ATOM      1  N   UNL     1       3.733   3.731  19.659  0.00  0.00    +0.000 N 
ATOM      2  C   UNL     1       3.954   2.594  20.447  0.00  0.00    +0.000 C 
ATOM      3  O   UNL     1       4.849   1.768  20.328  0.00  0.00    +0.000 OA
ATOM      4  C   UNL     1       2.889   2.535  21.511  0.00  0.00    +0.000 C 
ATOM      5  C   UNL     1       2.185   3.880  21.388  0.00  0.00    +0.000 C 
ATOM      6  C   UNL     1       2.413   4.323  19.931  0.00  0.00    +0.000 C 
ENDROOT
BRANCH   1  10
ATOM      7  C   UNL     1       6.055   4.372  16.192  0.00  0.00    +0.000 A 
ATOM      8  C   UNL     1       4.843   3.682  16.100  0.00  0.00    +0.000 A 
ATOM      9  C   UNL     1       4.066   3.468  17.244  0.00  0.00    +0.000 A 
ATOM     10  C   UNL     1       4.472   3.984  18.481  0.00  0.00    +0.000 A 
ATOM     11  C   UNL     1       5.676   4.690  18.560  0.00  0.00    +0.000 A 
ATOM     12  C   UNL     1       6.467   4.889  17.424  0.00  0.00    +0.000 A 
BRANCH   7  14
ATOM     13  O   UNL     1       7.730   5.405  14.862  0.00  0.00    +0.000 OA
ATOM     14  C   UNL     1       6.869   4.549  14.966  0.00  0.00    +0.000 C 
BRANCH  14  15
ATOM     15  O   UNL     1       6.535   3.704  13.967  0.00  0.00    +0.000 OA
ATOM     16  H   UNL     1       6.076   4.120  13.213  0.00  0.00    +0.000 HD
ENDBRANCH  14  15
ENDBRANCH   7  14
ENDBRANCH   1  10
BRANCH   6  17
ATOM     17  C   UNL     1       1.315   3.723  18.998  0.00  0.00    +0.000 C 
BRANCH  17  18
ATOM     18  O   UNL     1       0.241   3.111  19.701  0.00  0.00    +0.000 OA
ATOM     19  H   UNL     1      -0.435   3.794  19.852  0.00  0.00    +0.000 HD
ENDBRANCH  17  18
ENDBRANCH   6  17
BRANCH   6  20
ATOM     20  C   UNL     1       2.313   5.866  19.800  0.00  0.00    +0.000 C 
BRANCH  20  21
ATOM     21  O   UNL     1       1.933   6.522  21.006  0.00  0.00    +0.000 OA
ATOM     22  H   UNL     1       1.202   7.132  20.811  0.00  0.00    +0.000 HD
ENDBRANCH  20  21
ENDBRANCH   6  20
TORSDOF 7
ENDMDL
MODEL 4
REMARK VINA RESULT:      -6.9      1.654      3.239
REMARK  Name = 
REMARK  7 active torsions:
REMARK  status: ('A' for Active; 'I' for Inactive)
REMARK    1  A    between atoms: C_2  and  O_3
REMARK    2  A    between atoms: C_2  and  C_4
REMARK    3  A    between atoms: C_7  and  N_8
REMARK    4  A    between atoms: C_13  and  C_14
REMARK    5  A    between atoms: C_13  and  C_16
REMARK    6  A    between atoms: C_14  and  O_15
REMARK    7  A    between atoms: C_16  and  O_17
REMARK                            x       y       z     vdW  Elec       q    Type
REMARK                         _______ _______ _______ _____ _____    ______ ____
ROOT
ATOM      1  N   UNL     1       3.811   3.738  19.652  0.00  0.00    +0.000 N 
ATOM      2  C   UNL     1       3.960   2.604  20.461  0.00  0.00    +0.000 C 
ATOM      3  O   UNL     1       4.831   1.747  20.390  0.00  0.00    +0.000 OA
ATOM      4  C   UNL     1       2.848   2.592  21.479  0.00  0.00    +0.000 C 
ATOM      5  C   UNL     1       2.195   3.958  21.310  0.00  0.00    +0.000 C 
ATOM      6  C   UNL     1       2.501   4.376  19.860  0.00  0.00    +0.000 C 
ENDROOT
BRANCH   1  10
ATOM      7  C   UNL     1       6.084   4.500  16.177  0.00  0.00    +0.000 A 
ATOM      8  C   UNL     1       6.574   4.887  17.429  0.00  0.00    +0.000 A 
ATOM      9  C   UNL     1       5.828   4.635  18.585  0.00  0.00    +0.000 A 
ATOM     10  C   UNL     1       4.608   3.952  18.505  0.00  0.00    +0.000 A 
ATOM     11  C   UNL     1       4.136   3.551  17.251  0.00  0.00    +0.000 A 
ATOM     12  C   UNL     1       4.868   3.817  16.090  0.00  0.00    +0.000 A 
BRANCH   7  14
ATOM     13  O   UNL     1       7.770   5.653  14.964  0.00  0.00    +0.000 OA
ATOM     14  C   UNL     1       6.886   4.814  14.971  0.00  0.00    +0.000 C 
BRANCH  14  15
ATOM     15  O   UNL     1       6.514   4.116  13.876  0.00  0.00    +0.000 OA
ATOM     16  H   UNL     1       5.645   3.677  13.944  0.00  0.00    +0.000 HD
ENDBRANCH  14  15
ENDBRANCH   7  14
ENDBRANCH   1  10
BRANCH   6  17
ATOM     17  C   UNL     1       1.425   3.801  18.886  0.00  0.00    +0.000 C 
BRANCH  17  18
ATOM     18  O   UNL     1       0.307   3.221  19.549  0.00  0.00    +0.000 OA
ATOM     19  H   UNL     1      -0.013   3.870  20.199  0.00  0.00    +0.000 HD
ENDBRANCH  17  18
ENDBRANCH   6  17
BRANCH   6  20
ATOM     20  C   UNL     1       2.458   5.920  19.708  0.00  0.00    +0.000 C 
BRANCH  20  21
ATOM     21  O   UNL     1       1.878   6.591  20.823  0.00  0.00    +0.000 OA
ATOM     22  H   UNL     1       1.681   5.935  21.512  0.00  0.00    +0.000 HD
ENDBRANCH  20  21
ENDBRANCH   6  20
TORSDOF 7
ENDMDL
MODEL 5
REMARK VINA RESULT:      -6.9      2.190      5.903
REMARK  Name = 
REMARK  7 active torsions:
REMARK  status: ('A' for Active; 'I' for Inactive)
REMARK    1  A    between atoms: C_2  and  O_3
REMARK    2  A    between atoms: C_2  and  C_4
REMARK    3  A    between atoms: C_7  and  N_8
REMARK    4  A    between atoms: C_13  and  C_14
REMARK    5  A    between atoms: C_13  and  C_16
REMARK    6  A    between atoms: C_14  and  O_15
REMARK    7  A    between atoms: C_16  and  O_17
REMARK                            x       y       z     vdW  Elec       q    Type
REMARK                         _______ _______ _______ _____ _____    ______ ____
ROOT
ATOM      1  N   UNL     1       5.864   4.921  18.309  0.00  0.00    +0.000 N 
ATOM      2  C   UNL     1       6.969   5.543  18.901  0.00  0.00    +0.000 C 
ATOM      3  O   UNL     1       7.229   5.624  20.094  0.00  0.00    +0.000 OA
ATOM      4  C   UNL     1       7.834   6.121  17.811  0.00  0.00    +0.000 C 
ATOM      5  C   UNL     1       7.224   5.557  16.534  0.00  0.00    +0.000 C 
ATOM      6  C   UNL     1       5.753   5.267  16.883  0.00  0.00    +0.000 C 
ENDROOT
BRANCH   1  10
ATOM      7  C   UNL     1       2.545   3.446  20.462  0.00  0.00    +0.000 A 
ATOM      8  C   UNL     1       3.517   2.560  19.988  0.00  0.00    +0.000 A 
ATOM      9  C   UNL     1       4.621   3.041  19.277  0.00  0.00    +0.000 A 
ATOM     10  C   UNL     1       4.787   4.417  19.074  0.00  0.00    +0.000 A 
ATOM     11  C   UNL     1       3.820   5.297  19.569  0.00  0.00    +0.000 A 
ATOM     12  C   UNL     1       2.704   4.820  20.263  0.00  0.00    +0.000 A 
BRANCH   7  14
ATOM     13  O   UNL     1       1.437   2.455  22.315  0.00  0.00    +0.000 OA
ATOM     14  C   UNL     1       1.371   2.897  21.181  0.00  0.00    +0.000 C 
BRANCH  14  15
ATOM     15  O   UNL     1       0.237   2.895  20.447  0.00  0.00    +0.000 OA
ATOM     16  H   UNL     1       0.094   3.698  19.910  0.00  0.00    +0.000 HD
ENDBRANCH  14  15
ENDBRANCH   7  14
ENDBRANCH   1  10
BRANCH   6  17
ATOM     17  C   UNL     1       4.879   6.544  16.672  0.00  0.00    +0.000 C 
BRANCH  17  18
ATOM     18  O   UNL     1       5.014   7.120  15.378  0.00  0.00    +0.000 OA
ATOM     19  H   UNL     1       5.235   8.060  15.501  0.00  0.00    +0.000 HD
ENDBRANCH  17  18
ENDBRANCH   6  17
BRANCH   6  20
ATOM     20  C   UNL     1       5.169   4.171  15.953  0.00  0.00    +0.000 C 
BRANCH  20  21
ATOM     21  O   UNL     1       5.521   4.332  14.582  0.00  0.00    +0.000 OA
ATOM     22  H   UNL     1       5.235   5.214  14.289  0.00  0.00    +0.000 HD
ENDBRANCH  20  21
ENDBRANCH   6  20
TORSDOF 7
ENDMDL
MODEL 6
REMARK VINA RESULT:      -6.9      1.525      1.972
REMARK  Name = 
REMARK  7 active torsions:
REMARK  status: ('A' for Active; 'I' for Inactive)
REMARK    1  A    between atoms: C_2  and  O_3
REMARK    2  A    between atoms: C_2  and  C_4
REMARK    3  A    between atoms: C_7  and  N_8
REMARK    4  A    between atoms: C_13  and  C_14
REMARK    5  A    between atoms: C_13  and  C_16
REMARK    6  A    between atoms: C_14  and  O_15
REMARK    7  A    between atoms: C_16  and  O_17
REMARK                            x       y       z     vdW  Elec       q    Type
REMARK                         _______ _______ _______ _____ _____    ______ ____
ROOT
ATOM      1  N   UNL     1       2.732   3.323  18.277  0.00  0.00    +0.000 N 
ATOM      2  C   UNL     1       1.391   3.615  17.996  0.00  0.00    +0.000 C 
ATOM      3  O   UNL     1       0.958   4.449  17.212  0.00  0.00    +0.000 OA
ATOM      4  C   UNL     1       0.519   2.713  18.831  0.00  0.00    +0.000 C 
ATOM      5  C   UNL     1       1.506   1.723  19.436  0.00  0.00    +0.000 C 
ATOM      6  C   UNL     1       2.855   2.463  19.465  0.00  0.00    +0.000 C 
ENDROOT
BRANCH   1  10
ATOM      7  C   UNL     1       5.995   5.614  16.890  0.00  0.00    +0.000 A 
ATOM      8  C   UNL     1       5.665   4.415  16.251  0.00  0.00    +0.000 A 
ATOM      9  C   UNL     1       4.583   3.652  16.703  0.00  0.00    +0.000 A 
ATOM     10  C   UNL     1       3.793   4.105  17.767  0.00  0.00    +0.000 A 
ATOM     11  C   UNL     1       4.120   5.315  18.387  0.00  0.00    +0.000 A 
ATOM     12  C   UNL     1       5.212   6.072  17.953  0.00  0.00    +0.000 A 
BRANCH   7  14
ATOM     13  O   UNL     1       7.560   7.401  16.943  0.00  0.00    +0.000 OA
ATOM     14  C   UNL     1       7.170   6.379  16.406  0.00  0.00    +0.000 C 
BRANCH  14  15
ATOM     15  O   UNL     1       7.735   5.859  15.295  0.00  0.00    +0.000 OA
ATOM     16  H   UNL     1       7.559   4.910  15.150  0.00  0.00    +0.000 HD
ENDBRANCH  14  15
ENDBRANCH   7  14
ENDBRANCH   1  10
BRANCH   6  17
ATOM     17  C   UNL     1       2.987   3.310  20.770  0.00  0.00    +0.000 C 
BRANCH  17  18
ATOM     18  O   UNL     1       2.807   2.553  21.962  0.00  0.00    +0.000 OA
ATOM     19  H   UNL     1       3.685   2.239  22.241  0.00  0.00    +0.000 HD
ENDBRANCH  17  18
ENDBRANCH   6  17
BRANCH   6  20
ATOM     20  C   UNL     1       4.038   1.459  19.465  0.00  0.00    +0.000 C 
BRANCH  20  21
ATOM     21  O   UNL     1       5.174   1.909  20.199  0.00  0.00    +0.000 OA
ATOM     22  H   UNL     1       4.867   2.465  20.936  0.00  0.00    +0.000 HD
ENDBRANCH  20  21
ENDBRANCH   6  20
TORSDOF 7
ENDMDL
MODEL 7
REMARK VINA RESULT:      -6.9      2.192      5.908
REMARK  Name = 
REMARK  7 active torsions:
REMARK  status: ('A' for Active; 'I' for Inactive)
REMARK    1  A    between atoms: C_2  and  O_3
REMARK    2  A    between atoms: C_2  and  C_4
REMARK    3  A    between atoms: C_7  and  N_8
REMARK    4  A    between atoms: C_13  and  C_14
REMARK    5  A    between atoms: C_13  and  C_16
REMARK    6  A    between atoms: C_14  and  O_15
REMARK    7  A    between atoms: C_16  and  O_17
REMARK                            x       y       z     vdW  Elec       q    Type
REMARK                         _______ _______ _______ _____ _____    ______ ____
ROOT
ATOM      1  N   UNL     1       5.819   4.921  18.201  0.00  0.00    +0.000 N 
ATOM      2  C   UNL     1       6.901   5.513  18.864  0.00  0.00    +0.000 C 
ATOM      3  O   UNL     1       7.100   5.561  20.070  0.00  0.00    +0.000 OA
ATOM      4  C   UNL     1       7.828   6.105  17.834  0.00  0.00    +0.000 C 
ATOM      5  C   UNL     1       7.276   5.581  16.514  0.00  0.00    +0.000 C 
ATOM      6  C   UNL     1       5.786   5.304  16.780  0.00  0.00    +0.000 C 
ENDROOT
BRANCH   1  10
ATOM      7  C   UNL     1       2.573   3.373  20.412  0.00  0.00    +0.000 A 
ATOM      8  C   UNL     1       2.667   4.749  20.185  0.00  0.00    +0.000 A 
ATOM      9  C   UNL     1       3.738   5.269  19.450  0.00  0.00    +0.000 A 
ATOM     10  C   UNL     1       4.698   4.413  18.897  0.00  0.00    +0.000 A 
ATOM     11  C   UNL     1       4.584   3.037  19.113  0.00  0.00    +0.000 A 
ATOM     12  C   UNL     1       3.528   2.512  19.863  0.00  0.00    +0.000 A 
BRANCH   7  14
ATOM     13  O   UNL     1       1.578   2.466  22.370  0.00  0.00    +0.000 OA
ATOM     14  C   UNL     1       1.443   2.861  21.224  0.00  0.00    +0.000 C 
BRANCH  14  15
ATOM     15  O   UNL     1       0.267   2.833  20.561  0.00  0.00    +0.000 OA
ATOM     16  H   UNL     1      -0.379   3.508  20.844  0.00  0.00    +0.000 HD
ENDBRANCH  14  15
ENDBRANCH   7  14
ENDBRANCH   1  10
BRANCH   6  17
ATOM     17  C   UNL     1       4.940   6.598  16.557  0.00  0.00    +0.000 C 
BRANCH  17  18
ATOM     18  O   UNL     1       5.011   7.104  15.230  0.00  0.00    +0.000 OA
ATOM     19  H   UNL     1       5.666   7.823  15.228  0.00  0.00    +0.000 HD
ENDBRANCH  17  18
ENDBRANCH   6  17
BRANCH   6  20
ATOM     20  C   UNL     1       5.236   4.239  15.795  0.00  0.00    +0.000 C 
BRANCH  20  21
ATOM     21  O   UNL     1       5.711   4.391  14.460  0.00  0.00    +0.000 OA
ATOM     22  H   UNL     1       4.949   4.533  13.873  0.00  0.00    +0.000 HD
ENDBRANCH  20  21
ENDBRANCH   6  20
TORSDOF 7
ENDMDL
MODEL 8
REMARK VINA RESULT:      -6.9      1.471      1.702
REMARK  Name = 
REMARK  7 active torsions:
REMARK  status: ('A' for Active; 'I' for Inactive)
REMARK    1  A    between atoms: C_2  and  O_3
REMARK    2  A    between atoms: C_2  and  C_4
REMARK    3  A    between atoms: C_7  and  N_8
REMARK    4  A    between atoms: C_13  and  C_14
REMARK    5  A    between atoms: C_13  and  C_16
REMARK    6  A    between atoms: C_14  and  O_15
REMARK    7  A    between atoms: C_16  and  O_17
REMARK                            x       y       z     vdW  Elec       q    Type
REMARK                         _______ _______ _______ _____ _____    ______ ____
ROOT
ATOM      1  N   UNL     1       3.213   4.133  19.130  0.00  0.00    +0.000 N 
ATOM      2  C   UNL     1       2.807   5.209  19.929  0.00  0.00    +0.000 C 
ATOM      3  O   UNL     1       3.036   6.398  19.750  0.00  0.00    +0.000 OA
ATOM      4  C   UNL     1       2.009   4.670  21.089  0.00  0.00    +0.000 C 
ATOM      5  C   UNL     1       1.809   3.202  20.733  0.00  0.00    +0.000 C 
ATOM      6  C   UNL     1       2.987   2.846  19.809  0.00  0.00    +0.000 C 
ENDROOT
BRANCH   1  10
ATOM      7  C   UNL     1       5.966   4.478  15.948  0.00  0.00    +0.000 A 
ATOM      8  C   UNL     1       4.643   4.111  15.687  0.00  0.00    +0.000 A 
ATOM      9  C   UNL     1       3.724   3.997  16.736  0.00  0.00    +0.000 A 
ATOM     10  C   UNL     1       4.108   4.296  18.049  0.00  0.00    +0.000 A 
ATOM     11  C   UNL     1       5.429   4.682  18.298  0.00  0.00    +0.000 A 
ATOM     12  C   UNL     1       6.357   4.778  17.257  0.00  0.00    +0.000 A 
BRANCH   7  14
ATOM     13  O   UNL     1       7.798   5.398  14.748  0.00  0.00    +0.000 OA
ATOM     14  C   UNL     1       6.921   4.554  14.817  0.00  0.00    +0.000 C 
BRANCH  14  15
ATOM     15  O   UNL     1       6.699   3.632  13.856  0.00  0.00    +0.000 OA
ATOM     16  H   UNL     1       7.483   3.394  13.326  0.00  0.00    +0.000 HD
ENDBRANCH  14  15
ENDBRANCH   7  14
ENDBRANCH   1  10
BRANCH   6  17
ATOM     17  C   UNL     1       4.231   2.417  20.648  0.00  0.00    +0.000 C 
BRANCH  17  18
ATOM     18  O   UNL     1       5.120   1.552  19.950  0.00  0.00    +0.000 OA
ATOM     19  H   UNL     1       5.180   1.876  19.035  0.00  0.00    +0.000 HD
ENDBRANCH  17  18
ENDBRANCH   6  17
BRANCH   6  20
ATOM     20  C   UNL     1       2.631   1.642  18.897  0.00  0.00    +0.000 C 
BRANCH  20  21
ATOM     21  O   UNL     1       1.267   1.617  18.484  0.00  0.00    +0.000 OA
ATOM     22  H   UNL     1       0.940   0.704  18.549  0.00  0.00    +0.000 HD
ENDBRANCH  20  21
ENDBRANCH   6  20
TORSDOF 7
ENDMDL
MODEL 9
REMARK VINA RESULT:      -6.8      1.479      2.018
REMARK  Name = 
REMARK  7 active torsions:
REMARK  status: ('A' for Active; 'I' for Inactive)
REMARK    1  A    between atoms: C_2  and  O_3
REMARK    2  A    between atoms: C_2  and  C_4
REMARK    3  A    between atoms: C_7  and  N_8
REMARK    4  A    between atoms: C_13  and  C_14
REMARK    5  A    between atoms: C_13  and  C_16
REMARK    6  A    between atoms: C_14  and  O_15
REMARK    7  A    between atoms: C_16  and  O_17
REMARK                            x       y       z     vdW  Elec       q    Type
REMARK                         _______ _______ _______ _____ _____    ______ ____
ROOT
ATOM      1  N   UNL     1       3.240   4.179  19.130  0.00  0.00    +0.000 N 
ATOM      2  C   UNL     1       2.888   5.314  19.871  0.00  0.00    +0.000 C 
ATOM      3  O   UNL     1       3.210   6.475  19.655  0.00  0.00    +0.000 OA
ATOM      4  C   UNL     1       2.014   4.883  21.021  0.00  0.00    +0.000 C 
ATOM      5  C   UNL     1       1.718   3.420  20.715  0.00  0.00    +0.000 C 
ATOM      6  C   UNL     1       2.897   2.942  19.848  0.00  0.00    +0.000 C 
ENDROOT
BRANCH   1  10
ATOM      7  C   UNL     1       5.980   4.486  15.933  0.00  0.00    +0.000 A 
ATOM      8  C   UNL     1       6.415   4.698  17.245  0.00  0.00    +0.000 A 
ATOM      9  C   UNL     1       5.513   4.596  18.309  0.00  0.00    +0.000 A 
ATOM     10  C   UNL     1       4.181   4.233  18.076  0.00  0.00    +0.000 A 
ATOM     11  C   UNL     1       3.761   4.003  16.763  0.00  0.00    +0.000 A 
ATOM     12  C   UNL     1       4.652   4.123  15.692  0.00  0.00    +0.000 A 
BRANCH   7  14
ATOM     13  O   UNL     1       7.827   5.489  14.825  0.00  0.00    +0.000 OA
ATOM     14  C   UNL     1       6.955   4.637  14.826  0.00  0.00    +0.000 C 
BRANCH  14  15
ATOM     15  O   UNL     1       6.758   3.773  13.807  0.00  0.00    +0.000 OA
ATOM     16  H   UNL     1       6.294   2.949  14.051  0.00  0.00    +0.000 HD
ENDBRANCH  14  15
ENDBRANCH   7  14
ENDBRANCH   1  10
BRANCH   6  17
ATOM     17  C   UNL     1       4.077   2.458  20.749  0.00  0.00    +0.000 C 
BRANCH  17  18
ATOM     18  O   UNL     1       5.027   1.653  20.061  0.00  0.00    +0.000 OA
ATOM     19  H   UNL     1       5.892   2.094  20.139  0.00  0.00    +0.000 HD
ENDBRANCH  17  18
ENDBRANCH   6  17
BRANCH   6  20
ATOM     20  C   UNL     1       2.484   1.731  18.971  0.00  0.00    +0.000 C 
BRANCH  20  21
ATOM     21  O   UNL     1       1.116   1.751  18.570  0.00  0.00    +0.000 OA
ATOM     22  H   UNL     1       0.988   2.482  17.942  0.00  0.00    +0.000 HD
ENDBRANCH  20  21
ENDBRANCH   6  20
TORSDOF 7
ENDMDL
