MODEL 1
REMARK VINA RESULT:      -7.6      0.000      0.000
REMARK  Name = 
REMARK  4 active torsions:
REMARK  status: ('A' for Active; 'I' for Inactive)
REMARK    1  A    between atoms: C_2  and  O_3
REMARK    2  A    between atoms: C_2  and  C_4
REMARK    3  A    between atoms: C_9  and  C_10
REMARK    4  A    between atoms: N_16  and  O_17
REMARK                            x       y       z     vdW  Elec       q    Type
REMARK                         _______ _______ _______ _____ _____    ______ ____
ROOT
ATOM      1  C   UNL     1       6.546   4.523  14.680  0.00  0.00    +0.000 A 
ATOM      2  C   UNL     1       7.488   4.859  15.665  0.00  0.00    +0.000 A 
ATOM      3  C   UNL     1       7.147   4.850  17.024  0.00  0.00    +0.000 A 
ATOM      4  C   UNL     1       5.845   4.479  17.389  0.00  0.00    +0.000 A 
ATOM      5  N   UNL     1       5.274   4.398  18.632  0.00  0.00    +0.000 NA
ATOM      6  C   UNL     1       4.050   3.926  18.451  0.00  0.00    +0.000 A 
ATOM      7  N   UNL     1       3.815   3.765  17.099  0.00  0.00    +0.000 N 
ATOM      8  C   UNL     1       4.940   4.113  16.398  0.00  0.00    +0.000 A 
ATOM      9  C   UNL     1       5.245   4.125  15.033  0.00  0.00    +0.000 A 
ENDROOT
BRANCH   6  10
ATOM     10  C   UNL     1       3.102   3.644  19.534  0.00  0.00    +0.000 A 
ATOM     11  C   UNL     1       3.456   2.714  20.525  0.00  0.00    +0.000 A 
ATOM     12  C   UNL     1       2.562   2.381  21.546  0.00  0.00    +0.000 A 
ATOM     13  C   UNL     1       1.305   2.982  21.593  0.00  0.00    +0.000 A 
ATOM     14  C   UNL     1       0.942   3.908  20.620  0.00  0.00    +0.000 A 
ATOM     15  C   UNL     1       1.829   4.227  19.590  0.00  0.00    +0.000 A 
ENDBRANCH   6  10
BRANCH   1  17
ATOM     16  O   UNL     1       6.565   3.765  12.425  0.00  0.00    +0.000 OA
ATOM     17  C   UNL     1       6.976   4.559  13.258  0.00  0.00    +0.000 C 
BRANCH  17  18
ATOM     18  O   UNL     1       7.893   5.506  12.993  0.00  0.00    +0.000 OA
ATOM     19  H   UNL     1       8.741   5.178  12.641  0.00  0.00    +0.000 HD
ENDBRANCH  17  18
ENDBRANCH   1  17
BRANCH   7  20
ATOM     20  O   UNL     1       2.651   3.307  16.475  0.00  0.00    +0.000 OA
ATOM     21  H   UNL     1       2.877   3.448  15.541  0.00  0.00    +0.000 HD
ENDBRANCH   7  20
TORSDOF 4
ENDMDL
MODEL 2
REMARK VINA RESULT:      -7.6      0.114      1.110
REMARK  Name = 
REMARK  4 active torsions:
REMARK  status: ('A' for Active; 'I' for Inactive)
REMARK    1  A    between atoms: C_2  and  O_3
REMARK    2  A    between atoms: C_2  and  C_4
REMARK    3  A    between atoms: C_9  and  C_10
REMARK    4  A    between atoms: N_16  and  O_17
REMARK                            x       y       z     vdW  Elec       q    Type
REMARK                         _______ _______ _______ _____ _____    ______ ____
ROOT
ATOM      1  C   UNL     1       6.607   4.570  14.756  0.00  0.00    +0.000 A 
ATOM      2  C   UNL     1       7.538   4.865  15.763  0.00  0.00    +0.000 A 
ATOM      3  C   UNL     1       7.181   4.804  17.117  0.00  0.00    +0.000 A 
ATOM      4  C   UNL     1       5.874   4.425  17.452  0.00  0.00    +0.000 A 
ATOM      5  N   UNL     1       5.289   4.299  18.685  0.00  0.00    +0.000 NA
ATOM      6  C   UNL     1       4.065   3.838  18.472  0.00  0.00    +0.000 A 
ATOM      7  N   UNL     1       3.846   3.729  17.112  0.00  0.00    +0.000 N 
ATOM      8  C   UNL     1       4.979   4.100  16.437  0.00  0.00    +0.000 A 
ATOM      9  C   UNL     1       5.300   4.163  15.078  0.00  0.00    +0.000 A 
ENDROOT
BRANCH   6  10
ATOM     10  C   UNL     1       3.104   3.518  19.532  0.00  0.00    +0.000 A 
ATOM     11  C   UNL     1       1.827   4.101  19.496  0.00  0.00    +0.000 A 
ATOM     12  C   UNL     1       0.900   3.859  20.512  0.00  0.00    +0.000 A 
ATOM     13  C   UNL     1       1.237   3.024  21.576  0.00  0.00    +0.000 A 
ATOM     14  C   UNL     1       2.498   2.436  21.625  0.00  0.00    +0.000 A 
ATOM     15  C   UNL     1       3.430   2.692  20.617  0.00  0.00    +0.000 A 
ENDBRANCH   6  10
BRANCH   1  17
ATOM     16  O   UNL     1       6.662   3.889  12.476  0.00  0.00    +0.000 OA
ATOM     17  C   UNL     1       7.053   4.658  13.341  0.00  0.00    +0.000 C 
BRANCH  17  18
ATOM     18  O   UNL     1       7.961   5.625  13.119  0.00  0.00    +0.000 OA
ATOM     19  H   UNL     1       7.642   6.535  13.257  0.00  0.00    +0.000 HD
ENDBRANCH  17  18
ENDBRANCH   1  17
BRANCH   7  20
ATOM     20  O   UNL     1       2.687   3.300  16.458  0.00  0.00    +0.000 OA
ATOM     21  H   UNL     1       3.046   2.588  15.901  0.00  0.00    +0.000 HD
ENDBRANCH   7  20
TORSDOF 4
ENDMDL
MODEL 3
REMARK VINA RESULT:      -7.4      5.096      8.105
REMARK  Name = 
REMARK  4 active torsions:
REMARK  status: ('A' for Active; 'I' for Inactive)
REMARK    1  A    between atoms: C_2  and  O_3
REMARK    2  A    between atoms: C_2  and  C_4
REMARK    3  A    between atoms: C_9  and  C_10
REMARK    4  A    between atoms: N_16  and  O_17
REMARK                            x       y       z     vdW  Elec       q    Type
REMARK                         _______ _______ _______ _____ _____    ______ ____
ROOT
ATOM      1  C   UNL     1       0.432   9.524  21.298  0.00  0.00    +0.000 A 
ATOM      2  C   UNL     1       0.282  10.297  20.136  0.00  0.00    +0.000 A 
ATOM      3  C   UNL     1       0.912   9.930  18.939  0.00  0.00    +0.000 A 
ATOM      4  C   UNL     1       1.685   8.761  18.916  0.00  0.00    +0.000 A 
ATOM      5  N   UNL     1       2.395   8.201  17.886  0.00  0.00    +0.000 NA
ATOM      6  C   UNL     1       2.888   7.062  18.347  0.00  0.00    +0.000 A 
ATOM      7  N   UNL     1       2.550   6.921  19.680  0.00  0.00    +0.000 N 
ATOM      8  C   UNL     1       1.788   7.990  20.071  0.00  0.00    +0.000 A 
ATOM      9  C   UNL     1       1.183   8.336  21.283  0.00  0.00    +0.000 A 
ENDROOT
BRANCH   6  10
ATOM     10  C   UNL     1       3.682   6.120  17.551  0.00  0.00    +0.000 A 
ATOM     11  C   UNL     1       4.678   6.618  16.697  0.00  0.00    +0.000 A 
ATOM     12  C   UNL     1       5.423   5.758  15.887  0.00  0.00    +0.000 A 
ATOM     13  C   UNL     1       5.185   4.385  15.927  0.00  0.00    +0.000 A 
ATOM     14  C   UNL     1       4.203   3.875  16.771  0.00  0.00    +0.000 A 
ATOM     15  C   UNL     1       3.447   4.738  17.568  0.00  0.00    +0.000 A 
ENDBRANCH   6  10
BRANCH   1  17
ATOM     16  O   UNL     1      -0.243  11.137  22.912  0.00  0.00    +0.000 OA
ATOM     17  C   UNL     1      -0.261   9.976  22.533  0.00  0.00    +0.000 C 
BRANCH  17  18
ATOM     18  O   UNL     1      -0.859   8.982  23.213  0.00  0.00    +0.000 OA
ATOM     19  H   UNL     1      -1.456   8.418  22.688  0.00  0.00    +0.000 HD
ENDBRANCH  17  18
ENDBRANCH   1  17
BRANCH   7  20
ATOM     20  O   UNL     1       2.881   5.876  20.547  0.00  0.00    +0.000 OA
ATOM     21  H   UNL     1       2.007   5.475  20.690  0.00  0.00    +0.000 HD
ENDBRANCH   7  20
TORSDOF 4
ENDMDL
MODEL 4
REMARK VINA RESULT:      -7.4      1.129      1.778
REMARK  Name = 
REMARK  4 active torsions:
REMARK  status: ('A' for Active; 'I' for Inactive)
REMARK    1  A    between atoms: C_2  and  O_3
REMARK    2  A    between atoms: C_2  and  C_4
REMARK    3  A    between atoms: C_9  and  C_10
REMARK    4  A    between atoms: N_16  and  O_17
REMARK                            x       y       z     vdW  Elec       q    Type
REMARK                         _______ _______ _______ _____ _____    ______ ____
ROOT
ATOM      1  C   UNL     1       6.231   5.012  14.740  0.00  0.00    +0.000 A 
ATOM      2  C   UNL     1       5.924   6.310  15.175  0.00  0.00    +0.000 A 
ATOM      3  C   UNL     1       5.077   6.523  16.271  0.00  0.00    +0.000 A 
ATOM      4  C   UNL     1       4.552   5.410  16.942  0.00  0.00    +0.000 A 
ATOM      5  N   UNL     1       3.709   5.357  18.021  0.00  0.00    +0.000 NA
ATOM      6  C   UNL     1       3.572   4.075  18.325  0.00  0.00    +0.000 A 
ATOM      7  N   UNL     1       4.271   3.309  17.411  0.00  0.00    +0.000 N 
ATOM      8  C   UNL     1       4.901   4.132  16.516  0.00  0.00    +0.000 A 
ATOM      9  C   UNL     1       5.732   3.887  15.418  0.00  0.00    +0.000 A 
ENDROOT
BRANCH   6  10
ATOM     10  C   UNL     1       2.781   3.571  19.452  0.00  0.00    +0.000 A 
ATOM     11  C   UNL     1       1.389   3.752  19.445  0.00  0.00    +0.000 A 
ATOM     12  C   UNL     1       0.606   3.329  20.522  0.00  0.00    +0.000 A 
ATOM     13  C   UNL     1       1.206   2.711  21.617  0.00  0.00    +0.000 A 
ATOM     14  C   UNL     1       2.585   2.521  21.638  0.00  0.00    +0.000 A 
ATOM     15  C   UNL     1       3.369   2.960  20.569  0.00  0.00    +0.000 A 
ENDBRANCH   6  10
BRANCH   1  17
ATOM     16  O   UNL     1       8.116   5.566  13.397  0.00  0.00    +0.000 OA
ATOM     17  C   UNL     1       7.132   4.861  13.567  0.00  0.00    +0.000 C 
BRANCH  17  18
ATOM     18  O   UNL     1       6.734   3.920  12.694  0.00  0.00    +0.000 OA
ATOM     19  H   UNL     1       5.771   3.866  12.551  0.00  0.00    +0.000 HD
ENDBRANCH  17  18
ENDBRANCH   1  17
BRANCH   7  20
ATOM     20  O   UNL     1       4.378   1.917  17.358  0.00  0.00    +0.000 OA
ATOM     21  H   UNL     1       3.793   1.718  16.607  0.00  0.00    +0.000 HD
ENDBRANCH   7  20
TORSDOF 4
ENDMDL
MODEL 5
REMARK VINA RESULT:      -7.4      1.157      1.452
REMARK  Name = 
REMARK  4 active torsions:
REMARK  status: ('A' for Active; 'I' for Inactive)
REMARK    1  A    between atoms: C_2  and  O_3
REMARK    2  A    between atoms: C_2  and  C_4
REMARK    3  A    between atoms: C_9  and  C_10
REMARK    4  A    between atoms: N_16  and  O_17
REMARK                            x       y       z     vdW  Elec       q    Type
REMARK                         _______ _______ _______ _____ _____    ______ ____
ROOT
ATOM      1  C   UNL     1       6.215   5.027  14.757  0.00  0.00    +0.000 A 
ATOM      2  C   UNL     1       5.879   6.332  15.148  0.00  0.00    +0.000 A 
ATOM      3  C   UNL     1       5.013   6.562  16.226  0.00  0.00    +0.000 A 
ATOM      4  C   UNL     1       4.498   5.461  16.924  0.00  0.00    +0.000 A 
ATOM      5  N   UNL     1       3.641   5.425  17.993  0.00  0.00    +0.000 NA
ATOM      6  C   UNL     1       3.522   4.151  18.334  0.00  0.00    +0.000 A 
ATOM      7  N   UNL     1       4.247   3.370  17.453  0.00  0.00    +0.000 N 
ATOM      8  C   UNL     1       4.876   4.177  16.542  0.00  0.00    +0.000 A 
ATOM      9  C   UNL     1       5.726   3.913  15.463  0.00  0.00    +0.000 A 
ENDROOT
BRANCH   6  10
ATOM     10  C   UNL     1       2.724   3.667  19.465  0.00  0.00    +0.000 A 
ATOM     11  C   UNL     1       3.379   3.080  20.560  0.00  0.00    +0.000 A 
ATOM     12  C   UNL     1       2.651   2.563  21.635  0.00  0.00    +0.000 A 
ATOM     13  C   UNL     1       1.260   2.634  21.632  0.00  0.00    +0.000 A 
ATOM     14  C   UNL     1       0.597   3.216  20.555  0.00  0.00    +0.000 A 
ATOM     15  C   UNL     1       1.323   3.717  19.472  0.00  0.00    +0.000 A 
ENDBRANCH   6  10
BRANCH   1  17
ATOM     16  O   UNL     1       8.124   5.555  13.440  0.00  0.00    +0.000 OA
ATOM     17  C   UNL     1       7.135   4.857  13.603  0.00  0.00    +0.000 C 
BRANCH  17  18
ATOM     18  O   UNL     1       6.747   3.905  12.736  0.00  0.00    +0.000 OA
ATOM     19  H   UNL     1       6.563   3.033  13.131  0.00  0.00    +0.000 HD
ENDBRANCH  17  18
ENDBRANCH   1  17
BRANCH   7  20
ATOM     20  O   UNL     1       4.379   1.979  17.443  0.00  0.00    +0.000 OA
ATOM     21  H   UNL     1       5.291   1.885  17.121  0.00  0.00    +0.000 HD
ENDBRANCH   7  20
TORSDOF 4
ENDMDL
MODEL 6
REMARK VINA RESULT:      -7.3      5.275      8.171
REMARK  Name = 
REMARK  4 active torsions:
REMARK  status: ('A' for Active; 'I' for Inactive)
REMARK    1  A    between atoms: C_2  and  O_3
REMARK    2  A    between atoms: C_2  and  C_4
REMARK    3  A    between atoms: C_9  and  C_10
REMARK    4  A    between atoms: N_16  and  O_17
REMARK                            x       y       z     vdW  Elec       q    Type
REMARK                         _______ _______ _______ _____ _____    ______ ____
ROOT
ATOM      1  C   UNL     1       0.347   9.764  21.443  0.00  0.00    +0.000 A 
ATOM      2  C   UNL     1       0.280  10.547  20.280  0.00  0.00    +0.000 A 
ATOM      3  C   UNL     1       0.905  10.135  19.095  0.00  0.00    +0.000 A 
ATOM      4  C   UNL     1       1.588   8.911  19.085  0.00  0.00    +0.000 A 
ATOM      5  N   UNL     1       2.275   8.301  18.068  0.00  0.00    +0.000 NA
ATOM      6  C   UNL     1       2.671   7.127  18.536  0.00  0.00    +0.000 A 
ATOM      7  N   UNL     1       2.295   7.011  19.861  0.00  0.00    +0.000 N 
ATOM      8  C   UNL     1       1.608   8.134  20.239  0.00  0.00    +0.000 A 
ATOM      9  C   UNL     1       1.007   8.523  21.440  0.00  0.00    +0.000 A 
ENDROOT
BRANCH   6  10
ATOM     10  C   UNL     1       3.407   6.128  17.754  0.00  0.00    +0.000 A 
ATOM     11  C   UNL     1       2.960   4.797  17.751  0.00  0.00    +0.000 A 
ATOM     12  C   UNL     1       3.661   3.808  17.058  0.00  0.00    +0.000 A 
ATOM     13  C   UNL     1       4.816   4.139  16.353  0.00  0.00    +0.000 A 
ATOM     14  C   UNL     1       5.271   5.455  16.343  0.00  0.00    +0.000 A 
ATOM     15  C   UNL     1       4.579   6.440  17.050  0.00  0.00    +0.000 A 
ENDBRANCH   6  10
BRANCH   1  17
ATOM     16  O   UNL     1      -0.435  11.456  22.922  0.00  0.00    +0.000 OA
ATOM     17  C   UNL     1      -0.336  10.266  22.664  0.00  0.00    +0.000 C 
BRANCH  17  18
ATOM     18  O   UNL     1      -0.782   9.290  23.475  0.00  0.00    +0.000 OA
ATOM     19  H   UNL     1      -1.701   9.008  23.318  0.00  0.00    +0.000 HD
ENDBRANCH  17  18
ENDBRANCH   1  17
BRANCH   7  20
ATOM     20  O   UNL     1       2.528   5.942  20.732  0.00  0.00    +0.000 OA
ATOM     21  H   UNL     1       3.373   5.607  20.387  0.00  0.00    +0.000 HD
ENDBRANCH   7  20
TORSDOF 4
ENDMDL
MODEL 7
REMARK VINA RESULT:      -6.9      2.149      6.953
REMARK  Name = 
REMARK  4 active torsions:
REMARK  status: ('A' for Active; 'I' for Inactive)
REMARK    1  A    between atoms: C_2  and  O_3
REMARK    2  A    between atoms: C_2  and  C_4
REMARK    3  A    between atoms: C_9  and  C_10
REMARK    4  A    between atoms: N_16  and  O_17
REMARK                            x       y       z     vdW  Elec       q    Type
REMARK                         _______ _______ _______ _____ _____    ______ ____
ROOT
ATOM      1  C   UNL     1       2.550   4.038  20.071  0.00  0.00    +0.000 A 
ATOM      2  C   UNL     1       2.485   5.431  19.918  0.00  0.00    +0.000 A 
ATOM      3  C   UNL     1       3.125   6.070  18.846  0.00  0.00    +0.000 A 
ATOM      4  C   UNL     1       3.820   5.288  17.914  0.00  0.00    +0.000 A 
ATOM      5  N   UNL     1       4.522   5.670  16.801  0.00  0.00    +0.000 NA
ATOM      6  C   UNL     1       4.925   4.554  16.212  0.00  0.00    +0.000 A 
ATOM      7  N   UNL     1       4.540   3.468  16.974  0.00  0.00    +0.000 N 
ATOM      8  C   UNL     1       3.838   3.904  18.066  0.00  0.00    +0.000 A 
ATOM      9  C   UNL     1       3.222   3.239  19.130  0.00  0.00    +0.000 A 
ENDROOT
BRANCH   6  10
ATOM     10  C   UNL     1       5.679   4.507  14.955  0.00  0.00    +0.000 A 
ATOM     11  C   UNL     1       5.156   3.780  13.873  0.00  0.00    +0.000 A 
ATOM     12  C   UNL     1       5.867   3.671  12.675  0.00  0.00    +0.000 A 
ATOM     13  C   UNL     1       7.106   4.294  12.541  0.00  0.00    +0.000 A 
ATOM     14  C   UNL     1       7.635   5.021  13.604  0.00  0.00    +0.000 A 
ATOM     15  C   UNL     1       6.933   5.115  14.807  0.00  0.00    +0.000 A 
ENDBRANCH   6  10
BRANCH   1  17
ATOM     16  O   UNL     1       2.389   3.276  22.320  0.00  0.00    +0.000 OA
ATOM     17  C   UNL     1       1.851   3.429  21.233  0.00  0.00    +0.000 C 
BRANCH  17  18
ATOM     18  O   UNL     1       0.601   3.017  20.960  0.00  0.00    +0.000 OA
ATOM     19  H   UNL     1       0.157   3.492  20.233  0.00  0.00    +0.000 HD
ENDBRANCH  17  18
ENDBRANCH   1  17
BRANCH   7  20
ATOM     20  O   UNL     1       4.776   2.113  16.723  0.00  0.00    +0.000 OA
ATOM     21  H   UNL     1       5.733   2.123  16.554  0.00  0.00    +0.000 HD
ENDBRANCH   7  20
TORSDOF 4
ENDMDL
MODEL 8
REMARK VINA RESULT:      -6.8      2.171      6.932
REMARK  Name = 
REMARK  4 active torsions:
REMARK  status: ('A' for Active; 'I' for Inactive)
REMARK    1  A    between atoms: C_2  and  O_3
REMARK    2  A    between atoms: C_2  and  C_4
REMARK    3  A    between atoms: C_9  and  C_10
REMARK    4  A    between atoms: N_16  and  O_17
REMARK                            x       y       z     vdW  Elec       q    Type
REMARK                         _______ _______ _______ _____ _____    ______ ____
ROOT
ATOM      1  C   UNL     1       2.642   4.027  20.020  0.00  0.00    +0.000 A 
ATOM      2  C   UNL     1       2.557   5.413  19.822  0.00  0.00    +0.000 A 
ATOM      3  C   UNL     1       3.179   6.026  18.726  0.00  0.00    +0.000 A 
ATOM      4  C   UNL     1       3.877   5.224  17.813  0.00  0.00    +0.000 A 
ATOM      5  N   UNL     1       4.564   5.580  16.682  0.00  0.00    +0.000 NA
ATOM      6  C   UNL     1       4.979   4.452  16.125  0.00  0.00    +0.000 A 
ATOM      7  N   UNL     1       4.615   3.385  16.925  0.00  0.00    +0.000 N 
ATOM      8  C   UNL     1       3.916   3.847  18.009  0.00  0.00    +0.000 A 
ATOM      9  C   UNL     1       3.318   3.207  19.099  0.00  0.00    +0.000 A 
ENDROOT
BRANCH   6  10
ATOM     10  C   UNL     1       5.723   4.375  14.864  0.00  0.00    +0.000 A 
ATOM     11  C   UNL     1       6.939   5.066  14.745  0.00  0.00    +0.000 A 
ATOM     12  C   UNL     1       7.653   5.056  13.545  0.00  0.00    +0.000 A 
ATOM     13  C   UNL     1       7.163   4.348  12.449  0.00  0.00    +0.000 A 
ATOM     14  C   UNL     1       5.960   3.655  12.552  0.00  0.00    +0.000 A 
ATOM     15  C   UNL     1       5.238   3.680  13.747  0.00  0.00    +0.000 A 
ENDBRANCH   6  10
BRANCH   1  17
ATOM     16  O   UNL     1       2.562   3.144  22.228  0.00  0.00    +0.000 OA
ATOM     17  C   UNL     1       1.962   3.445  21.207  0.00  0.00    +0.000 C 
BRANCH  17  18
ATOM     18  O   UNL     1       0.646   3.236  21.029  0.00  0.00    +0.000 OA
ATOM     19  H   UNL     1       0.107   4.042  20.927  0.00  0.00    +0.000 HD
ENDBRANCH  17  18
ENDBRANCH   1  17
BRANCH   7  20
ATOM     20  O   UNL     1       4.868   2.026  16.716  0.00  0.00    +0.000 OA
ATOM     21  H   UNL     1       5.805   1.975  16.968  0.00  0.00    +0.000 HD
ENDBRANCH   7  20
TORSDOF 4
ENDMDL
MODEL 9
REMARK VINA RESULT:      -6.7      5.077      6.332
REMARK  Name = 
REMARK  4 active torsions:
REMARK  status: ('A' for Active; 'I' for Inactive)
REMARK    1  A    between atoms: C_2  and  O_3
REMARK    2  A    between atoms: C_2  and  C_4
REMARK    3  A    between atoms: C_9  and  C_10
REMARK    4  A    between atoms: N_16  and  O_17
REMARK                            x       y       z     vdW  Elec       q    Type
REMARK                         _______ _______ _______ _____ _____    ______ ____
ROOT
ATOM      1  C   UNL     1       4.531   5.247  18.602  0.00  0.00    +0.000 A 
ATOM      2  C   UNL     1       4.762   5.904  17.384  0.00  0.00    +0.000 A 
ATOM      3  C   UNL     1       4.045   7.058  17.038  0.00  0.00    +0.000 A 
ATOM      4  C   UNL     1       3.099   7.559  17.943  0.00  0.00    +0.000 A 
ATOM      5  N   UNL     1       2.279   8.652  17.835  0.00  0.00    +0.000 NA
ATOM      6  C   UNL     1       1.629   8.746  18.986  0.00  0.00    +0.000 A 
ATOM      7  N   UNL     1       1.983   7.687  19.801  0.00  0.00    +0.000 N 
ATOM      8  C   UNL     1       2.915   6.913  19.161  0.00  0.00    +0.000 A 
ATOM      9  C   UNL     1       3.603   5.753  19.530  0.00  0.00    +0.000 A 
ENDROOT
BRANCH   6  10
ATOM     10  C   UNL     1       0.674   9.809  19.313  0.00  0.00    +0.000 A 
ATOM     11  C   UNL     1      -0.370  10.089  18.416  0.00  0.00    +0.000 A 
ATOM     12  C   UNL     1      -1.271  11.126  18.669  0.00  0.00    +0.000 A 
ATOM     13  C   UNL     1      -1.145  11.891  19.827  0.00  0.00    +0.000 A 
ATOM     14  C   UNL     1      -0.118  11.623  20.727  0.00  0.00    +0.000 A 
ATOM     15  C   UNL     1       0.793  10.598  20.466  0.00  0.00    +0.000 A 
ENDBRANCH   6  10
BRANCH   1  17
ATOM     16  O   UNL     1       4.909   3.130  19.619  0.00  0.00    +0.000 OA
ATOM     17  C   UNL     1       5.324   4.027  18.901  0.00  0.00    +0.000 C 
BRANCH  17  18
ATOM     18  O   UNL     1       6.552   4.031  18.354  0.00  0.00    +0.000 OA
ATOM     19  H   UNL     1       7.014   4.889  18.375  0.00  0.00    +0.000 HD
ENDBRANCH  17  18
ENDBRANCH   1  17
BRANCH   7  20
ATOM     20  O   UNL     1       1.521   7.400  21.088  0.00  0.00    +0.000 OA
ATOM     21  H   UNL     1       1.153   6.511  20.956  0.00  0.00    +0.000 HD
ENDBRANCH   7  20
TORSDOF 4
ENDMDL
