MODEL 1
REMARK VINA RESULT:      -7.3      0.000      0.000
REMARK  Name = 
REMARK  8 active torsions:
REMARK  status: ('A' for Active; 'I' for Inactive)
REMARK    1  A    between atoms: C_1  and  O_2
REMARK    2  A    between atoms: O_2  and  C_3
REMARK    3  A    between atoms: C_3  and  C_5
REMARK    4  A    between atoms: C_7  and  C_8
REMARK    5  A    between atoms: C_10  and  C_11
REMARK    6  A    between atoms: C_20  and  S_21
REMARK    7  A    between atoms: S_21  and  C_22
REMARK    8  A    between atoms: C_29  and  C_30
REMARK                            x       y       z     vdW  Elec       q    Type
REMARK                         _______ _______ _______ _____ _____    ______ ____
ROOT
ATOM      1  C   UNL     1      -0.514  11.512  19.652  0.00  0.00    +0.000 A 
ATOM      2  C   UNL     1      -0.211  10.166  19.514  0.00  0.00    +0.000 A 
ATOM      3  C   UNL     1       1.026  10.089  18.842  0.00  0.00    +0.000 A 
ATOM      4  N   UNL     1       1.504  11.319  18.592  0.00  0.00    +0.000 NA
ATOM      5  N   UNL     1       0.538  12.187  19.026  0.00  0.00    +0.000 N 
ATOM      6  C   UNL     1       0.712  13.596  18.817  0.00  0.00    +0.000 A 
ATOM      7  C   UNL     1       2.004  14.087  18.618  0.00  0.00    +0.000 A 
ATOM      8  C   UNL     1       2.196  15.467  18.544  0.00  0.00    +0.000 A 
ATOM      9  C   UNL     1       1.089  16.305  18.629  0.00  0.00    +0.000 A 
ATOM     10  C   UNL     1      -0.164  15.751  18.799  0.00  0.00    +0.000 A 
ATOM     11  N   UNL     1      -0.372  14.417  18.879  0.00  0.00    +0.000 NA
ENDROOT
BRANCH   1  14
ATOM     12  C   UNL     1      -4.025  12.682  20.457  0.00  0.00    +0.000 A 
ATOM     13  C   UNL     1      -2.870  12.279  19.753  0.00  0.00    +0.000 A 
ATOM     14  C   UNL     1      -1.645  12.081  20.402  0.00  0.00    +0.000 A 
ATOM     15  C   UNL     1      -1.593  12.327  21.775  0.00  0.00    +0.000 A 
ATOM     16  C   UNL     1      -2.718  12.785  22.470  0.00  0.00    +0.000 A 
ATOM     17  C   UNL     1      -3.964  12.938  21.839  0.00  0.00    +0.000 A 
BRANCH  17  18
ATOM     18  C   UNL     1      -5.124  13.253  22.673  0.00  0.00    +0.000 A 
ATOM     19  C   UNL     1      -5.752  14.415  23.076  0.00  0.00    +0.000 A 
ATOM     20  C   UNL     1      -6.879  14.031  23.846  0.00  0.00    +0.000 A 
ATOM     21  C   UNL     1      -6.881  12.658  23.854  0.00  0.00    +0.000 A 
ATOM     22  O   UNL     1      -5.828  12.177  23.146  0.00  0.00    +0.000 OA
ENDBRANCH  17  18
BRANCH  12  23
ATOM     23  C   UNL     1      -5.278  12.822  19.675  0.00  0.00    +0.000 C 
ATOM     24  O   UNL     1      -5.839  13.874  19.421  0.00  0.00    +0.000 OA
BRANCH  23  26
ATOM     25  C   UNL     1      -6.917  11.172  19.962  0.00  0.00    +0.000 C 
ATOM     26  O   UNL     1      -5.707  11.581  19.324  0.00  0.00    +0.000 OA
ENDBRANCH  23  26
ENDBRANCH  12  23
ENDBRANCH   1  14
BRANCH   3  27
ATOM     27  C   UNL     1       1.758   8.827  18.467  0.00  0.00    +0.000 C 
ATOM     28  F   UNL     1       1.103   8.138  17.490  0.00  0.00    +0.000 F 
ATOM     29  F   UNL     1       3.004   9.078  17.988  0.00  0.00    +0.000 F 
ATOM     30  F   UNL     1       1.895   7.971  19.513  0.00  0.00    +0.000 F 
ENDBRANCH   3  27
BRANCH   9  31
ATOM     31  S   UNL     1       1.262  18.055  18.592  0.00  0.00    +0.000 S 
ATOM     32  C   UNL     1      -0.360  18.631  19.013  0.00  0.00    +0.000 C 
ATOM     33  O   UNL     1       2.169  18.427  19.662  0.00  0.00    +0.000 OA
ATOM     34  O   UNL     1       1.535  18.433  17.220  0.00  0.00    +0.000 OA
ENDBRANCH   9  31
TORSDOF 6
ENDMDL
MODEL 2
REMARK VINA RESULT:      -7.3      1.229      1.611
REMARK  Name = 
REMARK  8 active torsions:
REMARK  status: ('A' for Active; 'I' for Inactive)
REMARK    1  A    between atoms: C_1  and  O_2
REMARK    2  A    between atoms: O_2  and  C_3
REMARK    3  A    between atoms: C_3  and  C_5
REMARK    4  A    between atoms: C_7  and  C_8
REMARK    5  A    between atoms: C_10  and  C_11
REMARK    6  A    between atoms: C_20  and  S_21
REMARK    7  A    between atoms: S_21  and  C_22
REMARK    8  A    between atoms: C_29  and  C_30
REMARK                            x       y       z     vdW  Elec       q    Type
REMARK                         _______ _______ _______ _____ _____    ______ ____
ROOT
ATOM      1  C   UNL     1      -0.612  11.331  18.986  0.00  0.00    +0.000 A 
ATOM      2  C   UNL     1      -0.261   9.997  18.852  0.00  0.00    +0.000 A 
ATOM      3  C   UNL     1       1.120   9.959  18.574  0.00  0.00    +0.000 A 
ATOM      4  N   UNL     1       1.632  11.201  18.562  0.00  0.00    +0.000 NA
ATOM      5  N   UNL     1       0.568  12.042  18.749  0.00  0.00    +0.000 N 
ATOM      6  C   UNL     1       0.775  13.461  18.697  0.00  0.00    +0.000 A 
ATOM      7  C   UNL     1       2.060  13.957  18.925  0.00  0.00    +0.000 A 
ATOM      8  C   UNL     1       2.245  15.337  19.006  0.00  0.00    +0.000 A 
ATOM      9  C   UNL     1       1.150  16.174  18.817  0.00  0.00    +0.000 A 
ATOM     10  C   UNL     1      -0.089  15.618  18.568  0.00  0.00    +0.000 A 
ATOM     11  N   UNL     1      -0.291  14.282  18.492  0.00  0.00    +0.000 NA
ENDROOT
BRANCH   1  14
ATOM     12  C   UNL     1      -4.346  11.964  19.022  0.00  0.00    +0.000 A 
ATOM     13  C   UNL     1      -3.045  11.616  18.600  0.00  0.00    +0.000 A 
ATOM     14  C   UNL     1      -1.923  11.853  19.404  0.00  0.00    +0.000 A 
ATOM     15  C   UNL     1      -2.129  12.479  20.634  0.00  0.00    +0.000 A 
ATOM     16  C   UNL     1      -3.408  12.882  21.035  0.00  0.00    +0.000 A 
ATOM     17  C   UNL     1      -4.546  12.604  20.258  0.00  0.00    +0.000 A 
BRANCH  17  18
ATOM     18  C   UNL     1      -5.860  12.906  20.830  0.00  0.00    +0.000 A 
ATOM     19  C   UNL     1      -6.721  13.983  20.785  0.00  0.00    +0.000 A 
ATOM     20  C   UNL     1      -7.880  13.618  21.517  0.00  0.00    +0.000 A 
ATOM     21  C   UNL     1      -7.662  12.334  21.952  0.00  0.00    +0.000 A 
ATOM     22  O   UNL     1      -6.447  11.891  21.540  0.00  0.00    +0.000 OA
ENDBRANCH  17  18
BRANCH  12  23
ATOM     23  C   UNL     1      -5.465  11.630  18.107  0.00  0.00    +0.000 C 
ATOM     24  O   UNL     1      -6.174  10.642  18.188  0.00  0.00    +0.000 OA
BRANCH  23  26
ATOM     25  C   UNL     1      -6.810  13.235  17.055  0.00  0.00    +0.000 C 
ATOM     26  O   UNL     1      -5.538  12.592  17.149  0.00  0.00    +0.000 OA
ENDBRANCH  23  26
ENDBRANCH  12  23
ENDBRANCH   1  14
BRANCH   3  27
ATOM     27  C   UNL     1       1.949   8.722  18.347  0.00  0.00    +0.000 C 
ATOM     28  F   UNL     1       3.178   9.026  17.843  0.00  0.00    +0.000 F 
ATOM     29  F   UNL     1       2.167   8.031  19.496  0.00  0.00    +0.000 F 
ATOM     30  F   UNL     1       1.375   7.862  17.465  0.00  0.00    +0.000 F 
ENDBRANCH   3  27
BRANCH   9  31
ATOM     31  S   UNL     1       1.300  17.921  18.953  0.00  0.00    +0.000 S 
ATOM     32  C   UNL     1      -0.265  18.410  19.625  0.00  0.00    +0.000 C 
ATOM     33  O   UNL     1       2.325  18.196  19.941  0.00  0.00    +0.000 OA
ATOM     34  O   UNL     1       1.402  18.453  17.608  0.00  0.00    +0.000 OA
ENDBRANCH   9  31
TORSDOF 6
ENDMDL
MODEL 3
REMARK VINA RESULT:      -7.3      1.098      1.368
REMARK  Name = 
REMARK  8 active torsions:
REMARK  status: ('A' for Active; 'I' for Inactive)
REMARK    1  A    between atoms: C_1  and  O_2
REMARK    2  A    between atoms: O_2  and  C_3
REMARK    3  A    between atoms: C_3  and  C_5
REMARK    4  A    between atoms: C_7  and  C_8
REMARK    5  A    between atoms: C_10  and  C_11
REMARK    6  A    between atoms: C_20  and  S_21
REMARK    7  A    between atoms: S_21  and  C_22
REMARK    8  A    between atoms: C_29  and  C_30
REMARK                            x       y       z     vdW  Elec       q    Type
REMARK                         _______ _______ _______ _____ _____    ______ ____
ROOT
ATOM      1  C   UNL     1      -0.660  11.410  19.182  0.00  0.00    +0.000 A 
ATOM      2  C   UNL     1      -0.302  10.077  19.043  0.00  0.00    +0.000 A 
ATOM      3  C   UNL     1       1.056  10.052  18.666  0.00  0.00    +0.000 A 
ATOM      4  N   UNL     1       1.549  11.299  18.599  0.00  0.00    +0.000 NA
ATOM      5  N   UNL     1       0.491  12.130  18.850  0.00  0.00    +0.000 N 
ATOM      6  C   UNL     1       0.674  13.551  18.763  0.00  0.00    +0.000 A 
ATOM      7  C   UNL     1       1.966  14.066  18.890  0.00  0.00    +0.000 A 
ATOM      8  C   UNL     1       2.139  15.449  18.937  0.00  0.00    +0.000 A 
ATOM      9  C   UNL     1       1.022  16.270  18.815  0.00  0.00    +0.000 A 
ATOM     10  C   UNL     1      -0.224  15.695  18.664  0.00  0.00    +0.000 A 
ATOM     11  N   UNL     1      -0.414  14.356  18.622  0.00  0.00    +0.000 NA
ENDROOT
BRANCH   1  14
ATOM     12  C   UNL     1      -4.358  12.215  19.339  0.00  0.00    +0.000 A 
ATOM     13  C   UNL     1      -3.074  11.875  18.859  0.00  0.00    +0.000 A 
ATOM     14  C   UNL     1      -1.945  11.922  19.685  0.00  0.00    +0.000 A 
ATOM     15  C   UNL     1      -2.123  12.350  21.001  0.00  0.00    +0.000 A 
ATOM     16  C   UNL     1      -3.381  12.747  21.469  0.00  0.00    +0.000 A 
ATOM     17  C   UNL     1      -4.529  12.656  20.663  0.00  0.00    +0.000 A 
BRANCH  17  18
ATOM     18  C   UNL     1      -5.827  12.927  21.283  0.00  0.00    +0.000 A 
ATOM     19  C   UNL     1      -6.658  14.025  21.372  0.00  0.00    +0.000 A 
ATOM     20  C   UNL     1      -7.819  13.612  22.073  0.00  0.00    +0.000 A 
ATOM     21  C   UNL     1      -7.634  12.281  22.357  0.00  0.00    +0.000 A 
ATOM     22  O   UNL     1      -6.437  11.855  21.881  0.00  0.00    +0.000 OA
ENDBRANCH  17  18
BRANCH  12  23
ATOM     23  C   UNL     1      -5.489  12.091  18.387  0.00  0.00    +0.000 C 
ATOM     24  O   UNL     1      -6.125  13.019  17.919  0.00  0.00    +0.000 OA
BRANCH  23  26
ATOM     25  C   UNL     1      -6.808  10.220  18.892  0.00  0.00    +0.000 C 
ATOM     26  O   UNL     1      -5.714  10.770  18.157  0.00  0.00    +0.000 OA
ENDBRANCH  23  26
ENDBRANCH  12  23
ENDBRANCH   1  14
BRANCH   3  27
ATOM     27  C   UNL     1       1.882   8.822  18.398  0.00  0.00    +0.000 C 
ATOM     28  F   UNL     1       2.078   8.091  19.531  0.00  0.00    +0.000 F 
ATOM     29  F   UNL     1       1.289   7.988  17.504  0.00  0.00    +0.000 F 
ATOM     30  F   UNL     1       3.117   9.116  17.913  0.00  0.00    +0.000 F 
ENDBRANCH   3  27
BRANCH   9  31
ATOM     31  S   UNL     1       1.158  18.020  18.914  0.00  0.00    +0.000 S 
ATOM     32  C   UNL     1       1.018  18.534  17.224  0.00  0.00    +0.000 C 
ATOM     33  O   UNL     1      -0.002  18.509  19.635  0.00  0.00    +0.000 OA
ATOM     34  O   UNL     1       2.500  18.324  19.371  0.00  0.00    +0.000 OA
ENDBRANCH   9  31
TORSDOF 6
ENDMDL
MODEL 4
REMARK VINA RESULT:      -7.2      1.194      1.467
REMARK  Name = 
REMARK  8 active torsions:
REMARK  status: ('A' for Active; 'I' for Inactive)
REMARK    1  A    between atoms: C_1  and  O_2
REMARK    2  A    between atoms: O_2  and  C_3
REMARK    3  A    between atoms: C_3  and  C_5
REMARK    4  A    between atoms: C_7  and  C_8
REMARK    5  A    between atoms: C_10  and  C_11
REMARK    6  A    between atoms: C_20  and  S_21
REMARK    7  A    between atoms: S_21  and  C_22
REMARK    8  A    between atoms: C_29  and  C_30
REMARK                            x       y       z     vdW  Elec       q    Type
REMARK                         _______ _______ _______ _____ _____    ______ ____
ROOT
ATOM      1  C   UNL     1      -0.673  11.436  19.178  0.00  0.00    +0.000 A 
ATOM      2  C   UNL     1      -0.318  10.105  19.019  0.00  0.00    +0.000 A 
ATOM      3  C   UNL     1       1.050  10.079  18.683  0.00  0.00    +0.000 A 
ATOM      4  N   UNL     1       1.553  11.324  18.660  0.00  0.00    +0.000 NA
ATOM      5  N   UNL     1       0.492  12.156  18.898  0.00  0.00    +0.000 N 
ATOM      6  C   UNL     1       0.687  13.578  18.850  0.00  0.00    +0.000 A 
ATOM      7  C   UNL     1       1.977  14.080  19.028  0.00  0.00    +0.000 A 
ATOM      8  C   UNL     1       2.156  15.461  19.113  0.00  0.00    +0.000 A 
ATOM      9  C   UNL     1       1.048  16.292  18.975  0.00  0.00    +0.000 A 
ATOM     10  C   UNL     1      -0.196  15.729  18.774  0.00  0.00    +0.000 A 
ATOM     11  N   UNL     1      -0.392  14.393  18.695  0.00  0.00    +0.000 NA
ENDROOT
BRANCH   1  14
ATOM     12  C   UNL     1      -4.378  12.214  19.265  0.00  0.00    +0.000 A 
ATOM     13  C   UNL     1      -3.085  11.878  18.810  0.00  0.00    +0.000 A 
ATOM     14  C   UNL     1      -1.969  11.944  19.653  0.00  0.00    +0.000 A 
ATOM     15  C   UNL     1      -2.171  12.389  20.961  0.00  0.00    +0.000 A 
ATOM     16  C   UNL     1      -3.440  12.782  21.402  0.00  0.00    +0.000 A 
ATOM     17  C   UNL     1      -4.574  12.671  20.580  0.00  0.00    +0.000 A 
BRANCH  17  18
ATOM     18  C   UNL     1      -5.884  12.940  21.175  0.00  0.00    +0.000 A 
ATOM     19  C   UNL     1      -6.786  13.983  21.122  0.00  0.00    +0.000 A 
ATOM     20  C   UNL     1      -7.913  13.596  21.891  0.00  0.00    +0.000 A 
ATOM     21  C   UNL     1      -7.638  12.333  22.354  0.00  0.00    +0.000 A 
ATOM     22  O   UNL     1      -6.417  11.924  21.925  0.00  0.00    +0.000 OA
ENDBRANCH  17  18
BRANCH  12  23
ATOM     23  C   UNL     1      -5.493  12.068  18.297  0.00  0.00    +0.000 C 
ATOM     24  O   UNL     1      -6.095  12.986  17.767  0.00  0.00    +0.000 OA
BRANCH  23  26
ATOM     25  C   UNL     1      -6.903  10.272  18.827  0.00  0.00    +0.000 C 
ATOM     26  O   UNL     1      -5.747  10.743  18.131  0.00  0.00    +0.000 OA
ENDBRANCH  23  26
ENDBRANCH  12  23
ENDBRANCH   1  14
BRANCH   3  27
ATOM     27  C   UNL     1       1.877   8.850  18.412  0.00  0.00    +0.000 C 
ATOM     28  F   UNL     1       3.112   9.170  17.934  0.00  0.00    +0.000 F 
ATOM     29  F   UNL     1       2.082   8.109  19.533  0.00  0.00    +0.000 F 
ATOM     30  F   UNL     1       1.310   8.030  17.489  0.00  0.00    +0.000 F 
ENDBRANCH   3  27
BRANCH   9  31
ATOM     31  S   UNL     1       1.192  18.039  19.120  0.00  0.00    +0.000 S 
ATOM     32  C   UNL     1       2.384  18.241  20.415  0.00  0.00    +0.000 C 
ATOM     33  O   UNL     1       1.772  18.533  17.885  0.00  0.00    +0.000 OA
ATOM     34  O   UNL     1      -0.083  18.540  19.594  0.00  0.00    +0.000 OA
ENDBRANCH   9  31
TORSDOF 6
ENDMDL
MODEL 5
REMARK VINA RESULT:      -7.0      0.419      1.008
REMARK  Name = 
REMARK  8 active torsions:
REMARK  status: ('A' for Active; 'I' for Inactive)
REMARK    1  A    between atoms: C_1  and  O_2
REMARK    2  A    between atoms: O_2  and  C_3
REMARK    3  A    between atoms: C_3  and  C_5
REMARK    4  A    between atoms: C_7  and  C_8
REMARK    5  A    between atoms: C_10  and  C_11
REMARK    6  A    between atoms: C_20  and  S_21
REMARK    7  A    between atoms: S_21  and  C_22
REMARK    8  A    between atoms: C_29  and  C_30
REMARK                            x       y       z     vdW  Elec       q    Type
REMARK                         _______ _______ _______ _____ _____    ______ ____
ROOT
ATOM      1  C   UNL     1      -0.550  11.501  19.610  0.00  0.00    +0.000 A 
ATOM      2  C   UNL     1      -0.242  10.159  19.447  0.00  0.00    +0.000 A 
ATOM      3  C   UNL     1       1.005  10.097  18.794  0.00  0.00    +0.000 A 
ATOM      4  N   UNL     1       1.485  11.333  18.579  0.00  0.00    +0.000 NA
ATOM      5  N   UNL     1       0.512  12.190  19.017  0.00  0.00    +0.000 N 
ATOM      6  C   UNL     1       0.687  13.604  18.841  0.00  0.00    +0.000 A 
ATOM      7  C   UNL     1       1.982  14.100  18.674  0.00  0.00    +0.000 A 
ATOM      8  C   UNL     1       2.174  15.481  18.633  0.00  0.00    +0.000 A 
ATOM      9  C   UNL     1       1.065  16.316  18.719  0.00  0.00    +0.000 A 
ATOM     10  C   UNL     1      -0.190  15.758  18.857  0.00  0.00    +0.000 A 
ATOM     11  N   UNL     1      -0.398  14.422  18.904  0.00  0.00    +0.000 NA
ENDROOT
BRANCH   1  14
ATOM     12  C   UNL     1      -4.091  12.575  20.414  0.00  0.00    +0.000 A 
ATOM     13  C   UNL     1      -2.929  12.192  19.711  0.00  0.00    +0.000 A 
ATOM     14  C   UNL     1      -1.693  12.052  20.354  0.00  0.00    +0.000 A 
ATOM     15  C   UNL     1      -1.638  12.337  21.719  0.00  0.00    +0.000 A 
ATOM     16  C   UNL     1      -2.772  12.776  22.412  0.00  0.00    +0.000 A 
ATOM     17  C   UNL     1      -4.028  12.871  21.788  0.00  0.00    +0.000 A 
BRANCH  17  18
ATOM     18  C   UNL     1      -5.191  13.170  22.624  0.00  0.00    +0.000 A 
ATOM     19  C   UNL     1      -5.705  14.308  23.211  0.00  0.00    +0.000 A 
ATOM     20  C   UNL     1      -6.912  13.933  23.856  0.00  0.00    +0.000 A 
ATOM     21  C   UNL     1      -7.070  12.592  23.609  0.00  0.00    +0.000 A 
ATOM     22  O   UNL     1      -6.039  12.121  22.862  0.00  0.00    +0.000 OA
ENDBRANCH  17  18
BRANCH  12  23
ATOM     23  C   UNL     1      -5.354  12.652  19.639  0.00  0.00    +0.000 C 
ATOM     24  O   UNL     1      -5.959  11.700  19.177  0.00  0.00    +0.000 OA
BRANCH  23  26
ATOM     25  C   UNL     1      -7.085  14.184  19.252  0.00  0.00    +0.000 C 
ATOM     26  O   UNL     1      -5.697  13.960  19.506  0.00  0.00    +0.000 OA
ENDBRANCH  23  26
ENDBRANCH  12  23
ENDBRANCH   1  14
BRANCH   3  27
ATOM     27  C   UNL     1       1.744   8.844  18.402  0.00  0.00    +0.000 C 
ATOM     28  F   UNL     1       2.971   9.126  17.884  0.00  0.00    +0.000 F 
ATOM     29  F   UNL     1       1.956   8.020  19.461  0.00  0.00    +0.000 F 
ATOM     30  F   UNL     1       1.085   8.122  17.458  0.00  0.00    +0.000 F 
ENDBRANCH   3  27
BRANCH   9  31
ATOM     31  S   UNL     1       1.236  18.066  18.724  0.00  0.00    +0.000 S 
ATOM     32  C   UNL     1      -0.375  18.630  19.200  0.00  0.00    +0.000 C 
ATOM     33  O   UNL     1       2.169  18.411  19.780  0.00  0.00    +0.000 OA
ATOM     34  O   UNL     1       1.476  18.481  17.355  0.00  0.00    +0.000 OA
ENDBRANCH   9  31
TORSDOF 6
ENDMDL
MODEL 6
REMARK VINA RESULT:      -6.9      1.402      2.395
REMARK  Name = 
REMARK  8 active torsions:
REMARK  status: ('A' for Active; 'I' for Inactive)
REMARK    1  A    between atoms: C_1  and  O_2
REMARK    2  A    between atoms: O_2  and  C_3
REMARK    3  A    between atoms: C_3  and  C_5
REMARK    4  A    between atoms: C_7  and  C_8
REMARK    5  A    between atoms: C_10  and  C_11
REMARK    6  A    between atoms: C_20  and  S_21
REMARK    7  A    between atoms: S_21  and  C_22
REMARK    8  A    between atoms: C_29  and  C_30
REMARK                            x       y       z     vdW  Elec       q    Type
REMARK                         _______ _______ _______ _____ _____    ______ ____
ROOT
ATOM      1  C   UNL     1      -0.482  11.192  19.225  0.00  0.00    +0.000 A 
ATOM      2  C   UNL     1      -0.105   9.867  19.065  0.00  0.00    +0.000 A 
ATOM      3  C   UNL     1       1.232   9.869  18.618  0.00  0.00    +0.000 A 
ATOM      4  N   UNL     1       1.696  11.126  18.528  0.00  0.00    +0.000 NA
ATOM      5  N   UNL     1       0.636  11.936  18.834  0.00  0.00    +0.000 N 
ATOM      6  C   UNL     1       0.786  13.360  18.740  0.00  0.00    +0.000 A 
ATOM      7  C   UNL     1       2.073  13.900  18.802  0.00  0.00    +0.000 A 
ATOM      8  C   UNL     1       2.220  15.287  18.842  0.00  0.00    +0.000 A 
ATOM      9  C   UNL     1       1.082  16.085  18.779  0.00  0.00    +0.000 A 
ATOM     10  C   UNL     1      -0.159  15.485  18.693  0.00  0.00    +0.000 A 
ATOM     11  N   UNL     1      -0.324  14.143  18.658  0.00  0.00    +0.000 NA
ENDROOT
BRANCH   1  14
ATOM     12  C   UNL     1      -2.953  12.603  21.724  0.00  0.00    +0.000 A 
ATOM     13  C   UNL     1      -1.811  11.996  21.157  0.00  0.00    +0.000 A 
ATOM     14  C   UNL     1      -1.748  11.678  19.795  0.00  0.00    +0.000 A 
ATOM     15  C   UNL     1      -2.871  11.953  19.013  0.00  0.00    +0.000 A 
ATOM     16  C   UNL     1      -4.030  12.498  19.579  0.00  0.00    +0.000 A 
ATOM     17  C   UNL     1      -4.086  12.868  20.934  0.00  0.00    +0.000 A 
BRANCH  17  18
ATOM     18  C   UNL     1      -5.270  13.589  21.402  0.00  0.00    +0.000 A 
ATOM     19  C   UNL     1      -6.539  13.225  21.807  0.00  0.00    +0.000 A 
ATOM     20  C   UNL     1      -7.205  14.414  22.200  0.00  0.00    +0.000 A 
ATOM     21  C   UNL     1      -6.297  15.430  22.027  0.00  0.00    +0.000 A 
ATOM     22  O   UNL     1      -5.123  14.943  21.549  0.00  0.00    +0.000 OA
ENDBRANCH  17  18
BRANCH  12  23
ATOM     23  C   UNL     1      -2.894  12.933  23.169  0.00  0.00    +0.000 C 
ATOM     24  O   UNL     1      -2.347  13.911  23.650  0.00  0.00    +0.000 OA
BRANCH  23  26
ATOM     25  C   UNL     1      -4.459  12.408  24.833  0.00  0.00    +0.000 C 
ATOM     26  O   UNL     1      -3.520  11.945  23.862  0.00  0.00    +0.000 OA
ENDBRANCH  23  26
ENDBRANCH  12  23
ENDBRANCH   1  14
BRANCH   3  27
ATOM     27  C   UNL     1       2.067   8.656  18.306  0.00  0.00    +0.000 C 
ATOM     28  F   UNL     1       2.319   7.917  19.423  0.00  0.00    +0.000 F 
ATOM     29  F   UNL     1       1.455   7.821  17.426  0.00  0.00    +0.000 F 
ATOM     30  F   UNL     1       3.278   8.976  17.777  0.00  0.00    +0.000 F 
ENDBRANCH   3  27
BRANCH   9  31
ATOM     31  S   UNL     1       1.188  17.838  18.874  0.00  0.00    +0.000 S 
ATOM     32  C   UNL     1       1.057  18.344  17.181  0.00  0.00    +0.000 C 
ATOM     33  O   UNL     1       0.013  18.309  19.582  0.00  0.00    +0.000 OA
ATOM     34  O   UNL     1       2.520  18.165  19.344  0.00  0.00    +0.000 OA
ENDBRANCH   9  31
TORSDOF 6
ENDMDL
MODEL 7
REMARK VINA RESULT:      -6.7      1.280      1.734
REMARK  Name = 
REMARK  8 active torsions:
REMARK  status: ('A' for Active; 'I' for Inactive)
REMARK    1  A    between atoms: C_1  and  O_2
REMARK    2  A    between atoms: O_2  and  C_3
REMARK    3  A    between atoms: C_3  and  C_5
REMARK    4  A    between atoms: C_7  and  C_8
REMARK    5  A    between atoms: C_10  and  C_11
REMARK    6  A    between atoms: C_20  and  S_21
REMARK    7  A    between atoms: S_21  and  C_22
REMARK    8  A    between atoms: C_29  and  C_30
REMARK                            x       y       z     vdW  Elec       q    Type
REMARK                         _______ _______ _______ _____ _____    ______ ____
ROOT
ATOM      1  C   UNL     1      -0.712  11.434  19.161  0.00  0.00    +0.000 A 
ATOM      2  C   UNL     1      -0.358  10.105  18.986  0.00  0.00    +0.000 A 
ATOM      3  C   UNL     1       1.005  10.085  18.626  0.00  0.00    +0.000 A 
ATOM      4  N   UNL     1       1.504  11.331  18.601  0.00  0.00    +0.000 NA
ATOM      5  N   UNL     1       0.446  12.159  18.864  0.00  0.00    +0.000 N 
ATOM      6  C   UNL     1       0.637  13.581  18.821  0.00  0.00    +0.000 A 
ATOM      7  C   UNL     1       1.929  14.086  18.980  0.00  0.00    +0.000 A 
ATOM      8  C   UNL     1       2.107  15.467  19.070  0.00  0.00    +0.000 A 
ATOM      9  C   UNL     1       0.994  16.295  18.958  0.00  0.00    +0.000 A 
ATOM     10  C   UNL     1      -0.252  15.731  18.776  0.00  0.00    +0.000 A 
ATOM     11  N   UNL     1      -0.447  14.395  18.692  0.00  0.00    +0.000 NA
ENDROOT
BRANCH   1  14
ATOM     12  C   UNL     1      -4.427  12.145  19.355  0.00  0.00    +0.000 A 
ATOM     13  C   UNL     1      -3.144  11.815  18.866  0.00  0.00    +0.000 A 
ATOM     14  C   UNL     1      -2.000  11.937  19.664  0.00  0.00    +0.000 A 
ATOM     15  C   UNL     1      -2.164  12.429  20.959  0.00  0.00    +0.000 A 
ATOM     16  C   UNL     1      -3.423  12.816  21.432  0.00  0.00    +0.000 A 
ATOM     17  C   UNL     1      -4.585  12.651  20.657  0.00  0.00    +0.000 A 
BRANCH  17  18
ATOM     18  C   UNL     1      -5.877  12.918  21.290  0.00  0.00    +0.000 A 
ATOM     19  C   UNL     1      -7.021  12.182  21.523  0.00  0.00    +0.000 A 
ATOM     20  C   UNL     1      -7.911  13.018  22.245  0.00  0.00    +0.000 A 
ATOM     21  C   UNL     1      -7.250  14.208  22.423  0.00  0.00    +0.000 A 
ATOM     22  O   UNL     1      -6.019  14.159  21.853  0.00  0.00    +0.000 OA
ENDBRANCH  17  18
BRANCH  12  23
ATOM     23  C   UNL     1      -5.573  11.938  18.435  0.00  0.00    +0.000 C 
ATOM     24  O   UNL     1      -6.094  10.865  18.185  0.00  0.00    +0.000 OA
BRANCH  23  26
ATOM     25  C   UNL     1      -6.998  13.083  16.968  0.00  0.00    +0.000 C 
ATOM     26  O   UNL     1      -5.915  13.139  17.898  0.00  0.00    +0.000 OA
ENDBRANCH  23  26
ENDBRANCH  12  23
ENDBRANCH   1  14
BRANCH   3  27
ATOM     27  C   UNL     1       1.829   8.859  18.331  0.00  0.00    +0.000 C 
ATOM     28  F   UNL     1       2.029   8.107  19.449  0.00  0.00    +0.000 F 
ATOM     29  F   UNL     1       1.232   8.042  17.424  0.00  0.00    +0.000 F 
ATOM     30  F   UNL     1       3.062   9.161  17.847  0.00  0.00    +0.000 F 
ENDBRANCH   3  27
BRANCH   9  31
ATOM     31  S   UNL     1       1.137  18.041  19.111  0.00  0.00    +0.000 S 
ATOM     32  C   UNL     1       2.349  18.238  20.389  0.00  0.00    +0.000 C 
ATOM     33  O   UNL     1       1.698  18.544  17.871  0.00  0.00    +0.000 OA
ATOM     34  O   UNL     1      -0.131  18.537  19.609  0.00  0.00    +0.000 OA
ENDBRANCH   9  31
TORSDOF 6
ENDMDL
MODEL 8
REMARK VINA RESULT:      -6.7      1.443      2.403
REMARK  Name = 
REMARK  8 active torsions:
REMARK  status: ('A' for Active; 'I' for Inactive)
REMARK    1  A    between atoms: C_1  and  O_2
REMARK    2  A    between atoms: O_2  and  C_3
REMARK    3  A    between atoms: C_3  and  C_5
REMARK    4  A    between atoms: C_7  and  C_8
REMARK    5  A    between atoms: C_10  and  C_11
REMARK    6  A    between atoms: C_20  and  S_21
REMARK    7  A    between atoms: S_21  and  C_22
REMARK    8  A    between atoms: C_29  and  C_30
REMARK                            x       y       z     vdW  Elec       q    Type
REMARK                         _______ _______ _______ _____ _____    ______ ____
ROOT
ATOM      1  C   UNL     1      -0.556  11.118  18.969  0.00  0.00    +0.000 A 
ATOM      2  C   UNL     1      -0.155   9.801  18.803  0.00  0.00    +0.000 A 
ATOM      3  C   UNL     1       1.232   9.821  18.549  0.00  0.00    +0.000 A 
ATOM      4  N   UNL     1       1.699  11.080  18.584  0.00  0.00    +0.000 NA
ATOM      5  N   UNL     1       0.602  11.876  18.775  0.00  0.00    +0.000 N 
ATOM      6  C   UNL     1       0.758  13.303  18.770  0.00  0.00    +0.000 A 
ATOM      7  C   UNL     1       2.021  13.837  19.036  0.00  0.00    +0.000 A 
ATOM      8  C   UNL     1       2.155  15.220  19.162  0.00  0.00    +0.000 A 
ATOM      9  C   UNL     1       1.034  16.022  18.976  0.00  0.00    +0.000 A 
ATOM     10  C   UNL     1      -0.179  15.430  18.688  0.00  0.00    +0.000 A 
ATOM     11  N   UNL     1      -0.332  14.092  18.569  0.00  0.00    +0.000 NA
ENDROOT
BRANCH   1  14
ATOM     12  C   UNL     1      -3.304  12.652  21.076  0.00  0.00    +0.000 A 
ATOM     13  C   UNL     1      -2.085  12.062  20.678  0.00  0.00    +0.000 A 
ATOM     14  C   UNL     1      -1.892  11.580  19.377  0.00  0.00    +0.000 A 
ATOM     15  C   UNL     1      -2.963  11.673  18.487  0.00  0.00    +0.000 A 
ATOM     16  C   UNL     1      -4.195  12.200  18.891  0.00  0.00    +0.000 A 
ATOM     17  C   UNL     1      -4.383  12.733  20.178  0.00  0.00    +0.000 A 
BRANCH  17  18
ATOM     18  C   UNL     1      -5.644  13.420  20.461  0.00  0.00    +0.000 A 
ATOM     19  C   UNL     1      -6.872  13.041  20.963  0.00  0.00    +0.000 A 
ATOM     20  C   UNL     1      -7.666  14.213  21.045  0.00  0.00    +0.000 A 
ATOM     21  C   UNL     1      -6.869  15.240  20.603  0.00  0.00    +0.000 A 
ATOM     22  O   UNL     1      -5.644  14.774  20.251  0.00  0.00    +0.000 OA
ENDBRANCH  17  18
BRANCH  12  23
ATOM     23  C   UNL     1      -3.383  13.164  22.466  0.00  0.00    +0.000 C 
ATOM     24  O   UNL     1      -3.064  14.284  22.827  0.00  0.00    +0.000 OA
BRANCH  23  26
ATOM     25  C   UNL     1      -4.207  12.583  24.582  0.00  0.00    +0.000 C 
ATOM     26  O   UNL     1      -3.837  12.165  23.268  0.00  0.00    +0.000 OA
ENDBRANCH  23  26
ENDBRANCH  12  23
ENDBRANCH   1  14
BRANCH   3  27
ATOM     27  C   UNL     1       2.108   8.621  18.302  0.00  0.00    +0.000 C 
ATOM     28  F   UNL     1       1.524   7.741  17.442  0.00  0.00    +0.000 F 
ATOM     29  F   UNL     1       3.302   8.961  17.748  0.00  0.00    +0.000 F 
ATOM     30  F   UNL     1       2.378   7.926  19.438  0.00  0.00    +0.000 F 
ENDBRANCH   3  27
BRANCH   9  31
ATOM     31  S   UNL     1       1.118  17.769  19.167  0.00  0.00    +0.000 S 
ATOM     32  C   UNL     1       2.336  17.979  20.437  0.00  0.00    +0.000 C 
ATOM     33  O   UNL     1       1.649  18.318  17.933  0.00  0.00    +0.000 OA
ATOM     34  O   UNL     1      -0.161  18.210  19.687  0.00  0.00    +0.000 OA
ENDBRANCH   9  31
TORSDOF 6
ENDMDL
MODEL 9
REMARK VINA RESULT:      -6.6      1.251      2.424
REMARK  Name = 
REMARK  8 active torsions:
REMARK  status: ('A' for Active; 'I' for Inactive)
REMARK    1  A    between atoms: C_1  and  O_2
REMARK    2  A    between atoms: O_2  and  C_3
REMARK    3  A    between atoms: C_3  and  C_5
REMARK    4  A    between atoms: C_7  and  C_8
REMARK    5  A    between atoms: C_10  and  C_11
REMARK    6  A    between atoms: C_20  and  S_21
REMARK    7  A    between atoms: S_21  and  C_22
REMARK    8  A    between atoms: C_29  and  C_30
REMARK                            x       y       z     vdW  Elec       q    Type
REMARK                         _______ _______ _______ _____ _____    ______ ____
ROOT
ATOM      1  C   UNL     1      -0.273  11.058  19.219  0.00  0.00    +0.000 A 
ATOM      2  C   UNL     1       0.072   9.724  19.060  0.00  0.00    +0.000 A 
ATOM      3  C   UNL     1       1.402   9.695  18.594  0.00  0.00    +0.000 A 
ATOM      4  N   UNL     1       1.893  10.941  18.492  0.00  0.00    +0.000 NA
ATOM      5  N   UNL     1       0.855  11.775  18.810  0.00  0.00    +0.000 N 
ATOM      6  C   UNL     1       1.036  13.195  18.708  0.00  0.00    +0.000 A 
ATOM      7  C   UNL     1       2.335  13.707  18.749  0.00  0.00    +0.000 A 
ATOM      8  C   UNL     1       2.514  15.090  18.782  0.00  0.00    +0.000 A 
ATOM      9  C   UNL     1       1.393  15.913  18.732  0.00  0.00    +0.000 A 
ATOM     10  C   UNL     1       0.138  15.341  18.665  0.00  0.00    +0.000 A 
ATOM     11  N   UNL     1      -0.057  14.003  18.639  0.00  0.00    +0.000 NA
ENDROOT
BRANCH   1  14
ATOM     12  C   UNL     1      -2.719  12.381  21.791  0.00  0.00    +0.000 A 
ATOM     13  C   UNL     1      -1.605  11.753  21.192  0.00  0.00    +0.000 A 
ATOM     14  C   UNL     1      -1.520  11.574  19.806  0.00  0.00    +0.000 A 
ATOM     15  C   UNL     1      -2.594  12.011  19.030  0.00  0.00    +0.000 A 
ATOM     16  C   UNL     1      -3.729  12.579  19.620  0.00  0.00    +0.000 A 
ATOM     17  C   UNL     1      -3.803  12.809  21.005  0.00  0.00    +0.000 A 
BRANCH  17  18
ATOM     18  C   UNL     1      -4.949  13.563  21.517  0.00  0.00    +0.000 A 
ATOM     19  C   UNL     1      -5.228  14.899  21.716  0.00  0.00    +0.000 A 
ATOM     20  C   UNL     1      -6.561  14.977  22.195  0.00  0.00    +0.000 A 
ATOM     21  C   UNL     1      -7.020  13.684  22.243  0.00  0.00    +0.000 A 
ATOM     22  O   UNL     1      -6.057  12.821  21.832  0.00  0.00    +0.000 OA
ENDBRANCH  17  18
BRANCH  12  23
ATOM     23  C   UNL     1      -2.684  12.553  23.264  0.00  0.00    +0.000 C 
ATOM     24  O   UNL     1      -3.462  12.045  24.054  0.00  0.00    +0.000 OA
BRANCH  23  26
ATOM     25  C   UNL     1      -2.082  14.704  23.975  0.00  0.00    +0.000 C 
ATOM     26  O   UNL     1      -1.666  13.398  23.574  0.00  0.00    +0.000 OA
ENDBRANCH  23  26
ENDBRANCH  12  23
ENDBRANCH   1  14
BRANCH   3  27
ATOM     27  C   UNL     1       2.206   8.462  18.274  0.00  0.00    +0.000 C 
ATOM     28  F   UNL     1       3.413   8.777  17.728  0.00  0.00    +0.000 F 
ATOM     29  F   UNL     1       2.470   7.718  19.381  0.00  0.00    +0.000 F 
ATOM     30  F   UNL     1       1.582   7.647  17.384  0.00  0.00    +0.000 F 
ENDBRANCH   3  27
BRANCH   9  31
ATOM     31  S   UNL     1       1.540  17.664  18.818  0.00  0.00    +0.000 S 
ATOM     32  C   UNL     1      -0.046  18.173  19.423  0.00  0.00    +0.000 C 
ATOM     33  O   UNL     1       2.532  17.969  19.831  0.00  0.00    +0.000 OA
ATOM     34  O   UNL     1       1.687  18.153  17.461  0.00  0.00    +0.000 OA
ENDBRANCH   9  31
TORSDOF 6
ENDMDL
