MODEL 1
REMARK VINA RESULT:      -7.1      0.000      0.000
REMARK  Name = 
REMARK  8 active torsions:
REMARK  status: ('A' for Active; 'I' for Inactive)
REMARK    1  A    between atoms: C_1  and  C_2
REMARK    2  A    between atoms: C_5  and  C_6
REMARK    3  A    between atoms: C_5  and  N_7
REMARK    4  A    between atoms: N_8  and  C_9
REMARK    5  A    between atoms: C_14  and  C_15
REMARK    6  A    between atoms: C_15  and  O_17
REMARK    7  A    between atoms: C_21  and  C_22
REMARK    8  A    between atoms: C_22  and  O_24
REMARK                            x       y       z     vdW  Elec       q    Type
REMARK                         _______ _______ _______ _____ _____    ______ ____
ROOT
ATOM      1  C   UNL     1       4.690   2.544  19.943  0.00  0.00    +0.000 C 
ATOM      2  C   UNL     1       4.189   3.939  20.353  0.00  0.00    +0.000 C 
ATOM      3  C   UNL     1       2.727   3.883  20.788  0.00  0.00    +0.000 C 
ATOM      4  C   UNL     1       1.833   3.701  19.572  0.00  0.00    +0.000 C 
ATOM      5  C   UNL     1       1.958   4.917  18.650  0.00  0.00    +0.000 C 
ATOM      6  C   UNL     1       1.249   4.653  17.314  0.00  0.00    +0.000 C 
ATOM      7  C   UNL     1       3.444   5.310  18.386  0.00  0.00    +0.000 A 
ATOM      8  N   UNL     1       3.702   6.080  17.370  0.00  0.00    +0.000 NA
ATOM      9  C   UNL     1       4.996   6.468  17.150  0.00  0.00    +0.000 A 
ATOM     10  C   UNL     1       6.041   6.143  17.918  0.00  0.00    +0.000 A 
ATOM     11  C   UNL     1       5.746   5.309  19.092  0.00  0.00    +0.000 A 
ATOM     12  O   UNL     1       6.681   4.981  19.828  0.00  0.00    +0.000 OA
ATOM     13  N   UNL     1       4.427   4.914  19.278  0.00  0.00    +0.000 N 
ENDROOT
BRANCH   5  14
ATOM     14  N   UNL     1       1.361   6.111  19.312  0.00  0.00    +0.000 NA
ATOM     15  N   UNL     1       2.174   7.000  19.658  0.00  0.00    +0.000 NA
BRANCH  15  16
ATOM     16  C   UNL     1       1.527   8.112  20.260  0.00  0.00    +0.000 A 
ATOM     17  C   UNL     1       1.022   8.026  21.574  0.00  0.00    +0.000 A 
ATOM     18  C   UNL     1       0.383   9.104  22.189  0.00  0.00    +0.000 A 
ATOM     19  C   UNL     1       0.251  10.305  21.508  0.00  0.00    +0.000 A 
ATOM     20  C   UNL     1       0.761  10.426  20.217  0.00  0.00    +0.000 A 
ATOM     21  C   UNL     1       1.402   9.344  19.580  0.00  0.00    +0.000 A 
BRANCH  21  22
ATOM     22  C   UNL     1       1.894   9.619  18.191  0.00  0.00    +0.000 C 
ATOM     23  O   UNL     1       2.243  10.733  17.833  0.00  0.00    +0.000 OA
BRANCH  22  24
ATOM     24  O   UNL     1       1.936   8.566  17.352  0.00  0.00    +0.000 OA
ATOM     25  H   UNL     1       2.760   8.492  16.838  0.00  0.00    +0.000 HD
ENDBRANCH  22  24
ENDBRANCH  21  22
ENDBRANCH  15  16
ENDBRANCH   5  14
BRANCH  10  26
ATOM     26  C   UNL     1       7.395   6.594  17.543  0.00  0.00    +0.000 C 
ATOM     27  O   UNL     1       7.805   6.603  16.393  0.00  0.00    +0.000 OA
BRANCH  26  28
ATOM     28  O   UNL     1       8.171   6.988  18.578  0.00  0.00    +0.000 OA
ATOM     29  H   UNL     1       8.913   7.590  18.330  0.00  0.00    +0.000 HD
ENDBRANCH  26  28
ENDBRANCH  10  26
TORSDOF 6
ENDMDL
MODEL 2
REMARK VINA RESULT:      -6.4      4.824      9.386
REMARK  Name = 
REMARK  8 active torsions:
REMARK  status: ('A' for Active; 'I' for Inactive)
REMARK    1  A    between atoms: C_1  and  C_2
REMARK    2  A    between atoms: C_5  and  C_6
REMARK    3  A    between atoms: C_5  and  N_7
REMARK    4  A    between atoms: N_8  and  C_9
REMARK    5  A    between atoms: C_14  and  C_15
REMARK    6  A    between atoms: C_15  and  O_17
REMARK    7  A    between atoms: C_21  and  C_22
REMARK    8  A    between atoms: C_22  and  O_24
REMARK                            x       y       z     vdW  Elec       q    Type
REMARK                         _______ _______ _______ _____ _____    ______ ____
ROOT
ATOM      1  C   UNL     1       0.608  16.078  21.901  0.00  0.00    +0.000 C 
ATOM      2  C   UNL     1       0.944  14.582  22.016  0.00  0.00    +0.000 C 
ATOM      3  C   UNL     1       2.004  14.185  20.993  0.00  0.00    +0.000 C 
ATOM      4  C   UNL     1       1.391  14.143  19.603  0.00  0.00    +0.000 C 
ATOM      5  C   UNL     1       0.313  13.057  19.545  0.00  0.00    +0.000 C 
ATOM      6  C   UNL     1      -0.476  13.152  18.231  0.00  0.00    +0.000 C 
ATOM      7  C   UNL     1      -0.670  13.132  20.753  0.00  0.00    +0.000 A 
ATOM      8  N   UNL     1      -1.811  12.515  20.653  0.00  0.00    +0.000 NA
ATOM      9  C   UNL     1      -2.667  12.538  21.721  0.00  0.00    +0.000 A 
ATOM     10  C   UNL     1      -2.421  13.126  22.896  0.00  0.00    +0.000 A 
ATOM     11  C   UNL     1      -1.115  13.787  23.027  0.00  0.00    +0.000 A 
ATOM     12  O   UNL     1      -0.846  14.347  24.093  0.00  0.00    +0.000 OA
ATOM     13  N   UNL     1      -0.276  13.765  21.920  0.00  0.00    +0.000 N 
ENDROOT
BRANCH   5  14
ATOM     14  N   UNL     1       0.949  11.714  19.656  0.00  0.00    +0.000 NA
ATOM     15  N   UNL     1       0.382  10.793  19.021  0.00  0.00    +0.000 NA
BRANCH  15  16
ATOM     16  C   UNL     1       1.059   9.553  19.158  0.00  0.00    +0.000 A 
ATOM     17  C   UNL     1       1.798   9.014  18.084  0.00  0.00    +0.000 A 
ATOM     18  C   UNL     1       2.474   7.797  18.193  0.00  0.00    +0.000 A 
ATOM     19  C   UNL     1       2.443   7.098  19.390  0.00  0.00    +0.000 A 
ATOM     20  C   UNL     1       1.740   7.618  20.476  0.00  0.00    +0.000 A 
ATOM     21  C   UNL     1       1.047   8.841  20.379  0.00  0.00    +0.000 A 
BRANCH  21  22
ATOM     22  C   UNL     1       0.333   9.272  21.623  0.00  0.00    +0.000 C 
ATOM     23  O   UNL     1      -0.565   8.612  22.121  0.00  0.00    +0.000 OA
BRANCH  22  24
ATOM     24  O   UNL     1       0.737  10.434  22.174  0.00  0.00    +0.000 OA
ATOM     25  H   UNL     1       0.992  11.119  21.528  0.00  0.00    +0.000 HD
ENDBRANCH  22  24
ENDBRANCH  21  22
ENDBRANCH  15  16
ENDBRANCH   5  14
BRANCH  10  26
ATOM     26  C   UNL     1      -3.450  13.112  23.953  0.00  0.00    +0.000 C 
ATOM     27  O   UNL     1      -3.826  14.116  24.538  0.00  0.00    +0.000 OA
BRANCH  26  28
ATOM     28  O   UNL     1      -3.947  11.890  24.248  0.00  0.00    +0.000 OA
ATOM     29  H   UNL     1      -4.261  11.786  25.179  0.00  0.00    +0.000 HD
ENDBRANCH  26  28
ENDBRANCH  10  26
TORSDOF 6
ENDMDL
MODEL 3
REMARK VINA RESULT:      -6.4      8.091     11.558
REMARK  Name = 
REMARK  8 active torsions:
REMARK  status: ('A' for Active; 'I' for Inactive)
REMARK    1  A    between atoms: C_1  and  C_2
REMARK    2  A    between atoms: C_5  and  C_6
REMARK    3  A    between atoms: C_5  and  N_7
REMARK    4  A    between atoms: N_8  and  C_9
REMARK    5  A    between atoms: C_14  and  C_15
REMARK    6  A    between atoms: C_15  and  O_17
REMARK    7  A    between atoms: C_21  and  C_22
REMARK    8  A    between atoms: C_22  and  O_24
REMARK                            x       y       z     vdW  Elec       q    Type
REMARK                         _______ _______ _______ _____ _____    ______ ____
ROOT
ATOM      1  C   UNL     1      -2.234  14.945  25.111  0.00  0.00    +0.000 C 
ATOM      2  C   UNL     1      -2.166  13.881  24.004  0.00  0.00    +0.000 C 
ATOM      3  C   UNL     1      -1.005  14.162  23.053  0.00  0.00    +0.000 C 
ATOM      4  C   UNL     1      -1.340  15.350  22.166  0.00  0.00    +0.000 C 
ATOM      5  C   UNL     1      -2.544  15.013  21.282  0.00  0.00    +0.000 C 
ATOM      6  C   UNL     1      -3.042  16.268  20.551  0.00  0.00    +0.000 C 
ATOM      7  C   UNL     1      -3.716  14.379  22.093  0.00  0.00    +0.000 A 
ATOM      8  N   UNL     1      -4.899  14.369  21.552  0.00  0.00    +0.000 NA
ATOM      9  C   UNL     1      -5.929  13.779  22.234  0.00  0.00    +0.000 A 
ATOM     10  C   UNL     1      -5.823  13.173  23.421  0.00  0.00    +0.000 A 
ATOM     11  C   UNL     1      -4.478  13.145  24.014  0.00  0.00    +0.000 A 
ATOM     12  O   UNL     1      -4.333  12.598  25.111  0.00  0.00    +0.000 OA
ATOM     13  N   UNL     1      -3.458  13.768  23.309  0.00  0.00    +0.000 N 
ENDROOT
BRANCH   5  14
ATOM     14  N   UNL     1      -2.161  13.970  20.290  0.00  0.00    +0.000 NA
ATOM     15  N   UNL     1      -2.689  12.844  20.457  0.00  0.00    +0.000 NA
BRANCH  15  16
ATOM     16  C   UNL     1      -2.291  11.913  19.461  0.00  0.00    +0.000 A 
ATOM     17  C   UNL     1      -0.971  11.419  19.424  0.00  0.00    +0.000 A 
ATOM     18  C   UNL     1      -0.554  10.504  18.456  0.00  0.00    +0.000 A 
ATOM     19  C   UNL     1      -1.459  10.043  17.512  0.00  0.00    +0.000 A 
ATOM     20  C   UNL     1      -2.777  10.495  17.539  0.00  0.00    +0.000 A 
ATOM     21  C   UNL     1      -3.210  11.425  18.505  0.00  0.00    +0.000 A 
BRANCH  21  22
ATOM     22  C   UNL     1      -4.651  11.825  18.408  0.00  0.00    +0.000 C 
ATOM     23  O   UNL     1      -5.514  11.060  18.007  0.00  0.00    +0.000 OA
BRANCH  22  24
ATOM     24  O   UNL     1      -4.950  13.082  18.792  0.00  0.00    +0.000 OA
ATOM     25  H   UNL     1      -4.206  13.709  18.737  0.00  0.00    +0.000 HD
ENDBRANCH  22  24
ENDBRANCH  21  22
ENDBRANCH  15  16
ENDBRANCH   5  14
BRANCH  10  26
ATOM     26  C   UNL     1      -7.024  12.613  24.068  0.00  0.00    +0.000 C 
ATOM     27  O   UNL     1      -7.421  11.473  23.878  0.00  0.00    +0.000 OA
BRANCH  26  28
ATOM     28  O   UNL     1      -7.679  13.465  24.889  0.00  0.00    +0.000 OA
ATOM     29  H   UNL     1      -8.381  14.004  24.449  0.00  0.00    +0.000 HD
ENDBRANCH  26  28
ENDBRANCH  10  26
TORSDOF 6
ENDMDL
MODEL 4
REMARK VINA RESULT:      -6.4      2.733      3.933
REMARK  Name = 
REMARK  8 active torsions:
REMARK  status: ('A' for Active; 'I' for Inactive)
REMARK    1  A    between atoms: C_1  and  C_2
REMARK    2  A    between atoms: C_5  and  C_6
REMARK    3  A    between atoms: C_5  and  N_7
REMARK    4  A    between atoms: N_8  and  C_9
REMARK    5  A    between atoms: C_14  and  C_15
REMARK    6  A    between atoms: C_15  and  O_17
REMARK    7  A    between atoms: C_21  and  C_22
REMARK    8  A    between atoms: C_22  and  O_24
REMARK                            x       y       z     vdW  Elec       q    Type
REMARK                         _______ _______ _______ _____ _____    ______ ____
ROOT
ATOM      1  C   UNL     1       8.231   4.392  17.971  0.00  0.00    +0.000 C 
ATOM      2  C   UNL     1       7.282   5.536  17.575  0.00  0.00    +0.000 C 
ATOM      3  C   UNL     1       6.591   6.116  18.806  0.00  0.00    +0.000 C 
ATOM      4  C   UNL     1       5.534   5.147  19.310  0.00  0.00    +0.000 C 
ATOM      5  C   UNL     1       4.443   4.973  18.249  0.00  0.00    +0.000 C 
ATOM      6  C   UNL     1       3.494   3.830  18.637  0.00  0.00    +0.000 C 
ATOM      7  C   UNL     1       5.033   4.707  16.831  0.00  0.00    +0.000 A 
ATOM      8  N   UNL     1       4.246   4.203  15.925  0.00  0.00    +0.000 NA
ATOM      9  C   UNL     1       4.739   4.002  14.664  0.00  0.00    +0.000 A 
ATOM     10  C   UNL     1       5.975   4.309  14.259  0.00  0.00    +0.000 A 
ATOM     11  C   UNL     1       6.853   4.918  15.268  0.00  0.00    +0.000 A 
ATOM     12  O   UNL     1       8.005   5.215  14.940  0.00  0.00    +0.000 OA
ATOM     13  N   UNL     1       6.333   5.091  16.544  0.00  0.00    +0.000 N 
ENDROOT
BRANCH   5  14
ATOM     14  N   UNL     1       3.675   6.242  18.108  0.00  0.00    +0.000 NA
ATOM     15  N   UNL     1       3.022   6.594  19.119  0.00  0.00    +0.000 NA
BRANCH  15  16
ATOM     16  C   UNL     1       2.337   7.821  18.914  0.00  0.00    +0.000 A 
ATOM     17  C   UNL     1       2.407   8.485  17.672  0.00  0.00    +0.000 A 
ATOM     18  C   UNL     1       1.744   9.691  17.444  0.00  0.00    +0.000 A 
ATOM     19  C   UNL     1       0.973  10.253  18.451  0.00  0.00    +0.000 A 
ATOM     20  C   UNL     1       0.865   9.607  19.680  0.00  0.00    +0.000 A 
ATOM     21  C   UNL     1       1.536   8.392  19.928  0.00  0.00    +0.000 A 
BRANCH  21  22
ATOM     22  C   UNL     1       1.333   7.817  21.297  0.00  0.00    +0.000 C 
ATOM     23  O   UNL     1       1.030   8.508  22.256  0.00  0.00    +0.000 OA
BRANCH  22  24
ATOM     24  O   UNL     1       1.498   6.484  21.416  0.00  0.00    +0.000 OA
ATOM     25  H   UNL     1       2.205   6.220  22.034  0.00  0.00    +0.000 HD
ENDBRANCH  22  24
ENDBRANCH  21  22
ENDBRANCH  15  16
ENDBRANCH   5  14
BRANCH  10  26
ATOM     26  C   UNL     1       6.392   4.000  12.878  0.00  0.00    +0.000 C 
ATOM     27  O   UNL     1       5.917   3.086  12.221  0.00  0.00    +0.000 OA
BRANCH  26  28
ATOM     28  O   UNL     1       7.365   4.799  12.384  0.00  0.00    +0.000 OA
ATOM     29  H   UNL     1       8.212   4.778  12.890  0.00  0.00    +0.000 HD
ENDBRANCH  26  28
ENDBRANCH  10  26
TORSDOF 6
ENDMDL
MODEL 5
REMARK VINA RESULT:      -6.2      3.376      7.758
REMARK  Name = 
REMARK  8 active torsions:
REMARK  status: ('A' for Active; 'I' for Inactive)
REMARK    1  A    between atoms: C_1  and  C_2
REMARK    2  A    between atoms: C_5  and  C_6
REMARK    3  A    between atoms: C_5  and  N_7
REMARK    4  A    between atoms: N_8  and  C_9
REMARK    5  A    between atoms: C_14  and  C_15
REMARK    6  A    between atoms: C_15  and  O_17
REMARK    7  A    between atoms: C_21  and  C_22
REMARK    8  A    between atoms: C_22  and  O_24
REMARK                            x       y       z     vdW  Elec       q    Type
REMARK                         _______ _______ _______ _____ _____    ______ ____
ROOT
ATOM      1  C   UNL     1      -2.403  12.366  19.537  0.00  0.00    +0.000 C 
ATOM      2  C   UNL     1      -1.205  11.750  18.795  0.00  0.00    +0.000 C 
ATOM      3  C   UNL     1      -1.305  10.227  18.776  0.00  0.00    +0.000 C 
ATOM      4  C   UNL     1      -0.990   9.672  20.155  0.00  0.00    +0.000 C 
ATOM      5  C   UNL     1       0.459  10.001  20.527  0.00  0.00    +0.000 C 
ATOM      6  C   UNL     1       0.727   9.656  22.000  0.00  0.00    +0.000 C 
ATOM      7  C   UNL     1       0.813  11.497  20.266  0.00  0.00    +0.000 A 
ATOM      8  N   UNL     1       1.868  11.987  20.848  0.00  0.00    +0.000 NA
ATOM      9  C   UNL     1       2.214  13.287  20.596  0.00  0.00    +0.000 A 
ATOM     10  C   UNL     1       1.570  14.111  19.764  0.00  0.00    +0.000 A 
ATOM     11  C   UNL     1       0.403  13.547  19.071  0.00  0.00    +0.000 A 
ATOM     12  O   UNL     1      -0.226  14.272  18.296  0.00  0.00    +0.000 OA
ATOM     13  N   UNL     1       0.063  12.232  19.362  0.00  0.00    +0.000 N 
ENDROOT
BRANCH   5  14
ATOM     14  N   UNL     1       1.388   9.232  19.651  0.00  0.00    +0.000 NA
ATOM     15  N   UNL     1       1.497   8.012  19.918  0.00  0.00    +0.000 NA
BRANCH  15  16
ATOM     16  C   UNL     1       2.380   7.346  19.027  0.00  0.00    +0.000 A 
ATOM     17  C   UNL     1       3.049   8.059  18.011  0.00  0.00    +0.000 A 
ATOM     18  C   UNL     1       3.923   7.430  17.123  0.00  0.00    +0.000 A 
ATOM     19  C   UNL     1       4.164   6.069  17.244  0.00  0.00    +0.000 A 
ATOM     20  C   UNL     1       3.535   5.344  18.254  0.00  0.00    +0.000 A 
ATOM     21  C   UNL     1       2.644   5.964  19.153  0.00  0.00    +0.000 A 
BRANCH  21  22
ATOM     22  C   UNL     1       2.039   5.058  20.181  0.00  0.00    +0.000 C 
ATOM     23  O   UNL     1       1.262   4.164  19.885  0.00  0.00    +0.000 OA
BRANCH  22  24
ATOM     24  O   UNL     1       2.400   5.278  21.461  0.00  0.00    +0.000 OA
ATOM     25  H   UNL     1       2.862   4.531  21.884  0.00  0.00    +0.000 HD
ENDBRANCH  22  24
ENDBRANCH  21  22
ENDBRANCH  15  16
ENDBRANCH   5  14
BRANCH  10  26
ATOM     26  C   UNL     1       2.025  15.506  19.615  0.00  0.00    +0.000 C 
ATOM     27  O   UNL     1       2.195  16.262  20.559  0.00  0.00    +0.000 OA
BRANCH  26  28
ATOM     28  O   UNL     1       2.231  15.905  18.339  0.00  0.00    +0.000 OA
ATOM     29  H   UNL     1       1.548  15.597  17.695  0.00  0.00    +0.000 HD
ENDBRANCH  26  28
ENDBRANCH  10  26
TORSDOF 6
ENDMDL
MODEL 6
REMARK VINA RESULT:      -6.1      4.587      7.731
REMARK  Name = 
REMARK  8 active torsions:
REMARK  status: ('A' for Active; 'I' for Inactive)
REMARK    1  A    between atoms: C_1  and  C_2
REMARK    2  A    between atoms: C_5  and  C_6
REMARK    3  A    between atoms: C_5  and  N_7
REMARK    4  A    between atoms: N_8  and  C_9
REMARK    5  A    between atoms: C_14  and  C_15
REMARK    6  A    between atoms: C_15  and  O_17
REMARK    7  A    between atoms: C_21  and  C_22
REMARK    8  A    between atoms: C_22  and  O_24
REMARK                            x       y       z     vdW  Elec       q    Type
REMARK                         _______ _______ _______ _____ _____    ______ ____
ROOT
ATOM      1  C   UNL     1       2.778  13.792  19.283  0.00  0.00    +0.000 C 
ATOM      2  C   UNL     1       1.442  13.441  18.608  0.00  0.00    +0.000 C 
ATOM      3  C   UNL     1       0.398  14.521  18.878  0.00  0.00    +0.000 C 
ATOM      4  C   UNL     1      -0.079  14.430  20.318  0.00  0.00    +0.000 C 
ATOM      5  C   UNL     1      -0.783  13.089  20.547  0.00  0.00    +0.000 C 
ATOM      6  C   UNL     1      -1.064  12.878  22.042  0.00  0.00    +0.000 C 
ATOM      7  C   UNL     1       0.041  11.886  19.993  0.00  0.00    +0.000 A 
ATOM      8  N   UNL     1      -0.257  10.693  20.419  0.00  0.00    +0.000 NA
ATOM      9  C   UNL     1       0.429   9.623  19.911  0.00  0.00    +0.000 A 
ATOM     10  C   UNL     1       1.380   9.689  18.975  0.00  0.00    +0.000 A 
ATOM     11  C   UNL     1       1.689  11.031  18.461  0.00  0.00    +0.000 A 
ATOM     12  O   UNL     1       2.564  11.141  17.597  0.00  0.00    +0.000 OA
ATOM     13  N   UNL     1       0.991  12.099  19.009  0.00  0.00    +0.000 N 
ENDROOT
BRANCH   5  14
ATOM     14  N   UNL     1      -2.061  13.058  19.783  0.00  0.00    +0.000 NA
ATOM     15  N   UNL     1      -2.685  11.971  19.816  0.00  0.00    +0.000 NA
BRANCH  15  16
ATOM     16  C   UNL     1      -3.901  12.028  19.085  0.00  0.00    +0.000 A 
ATOM     17  C   UNL     1      -5.083  12.501  19.691  0.00  0.00    +0.000 A 
ATOM     18  C   UNL     1      -6.291  12.569  18.995  0.00  0.00    +0.000 A 
ATOM     19  C   UNL     1      -6.340  12.184  17.663  0.00  0.00    +0.000 A 
ATOM     20  C   UNL     1      -5.182  11.735  17.031  0.00  0.00    +0.000 A 
ATOM     21  C   UNL     1      -3.957  11.654  17.723  0.00  0.00    +0.000 A 
BRANCH  21  22
ATOM     22  C   UNL     1      -2.799  11.149  16.917  0.00  0.00    +0.000 C 
ATOM     23  O   UNL     1      -2.836  10.085  16.320  0.00  0.00    +0.000 OA
BRANCH  22  24
ATOM     24  O   UNL     1      -1.706  11.937  16.881  0.00  0.00    +0.000 OA
ATOM     25  H   UNL     1      -1.513  12.398  17.718  0.00  0.00    +0.000 HD
ENDBRANCH  22  24
ENDBRANCH  21  22
ENDBRANCH  15  16
ENDBRANCH   5  14
BRANCH  10  26
ATOM     26  C   UNL     1       2.073   8.459  18.545  0.00  0.00    +0.000 C 
ATOM     27  O   UNL     1       2.289   7.515  19.289  0.00  0.00    +0.000 OA
BRANCH  26  28
ATOM     28  O   UNL     1       2.474   8.453  17.254  0.00  0.00    +0.000 OA
ATOM     29  H   UNL     1       2.669   9.345  16.878  0.00  0.00    +0.000 HD
ENDBRANCH  26  28
ENDBRANCH  10  26
TORSDOF 6
ENDMDL
MODEL 7
REMARK VINA RESULT:      -6.1      3.836      6.082
REMARK  Name = 
REMARK  8 active torsions:
REMARK  status: ('A' for Active; 'I' for Inactive)
REMARK    1  A    between atoms: C_1  and  C_2
REMARK    2  A    between atoms: C_5  and  C_6
REMARK    3  A    between atoms: C_5  and  N_7
REMARK    4  A    between atoms: N_8  and  C_9
REMARK    5  A    between atoms: C_14  and  C_15
REMARK    6  A    between atoms: C_15  and  O_17
REMARK    7  A    between atoms: C_21  and  C_22
REMARK    8  A    between atoms: C_22  and  O_24
REMARK                            x       y       z     vdW  Elec       q    Type
REMARK                         _______ _______ _______ _____ _____    ______ ____
ROOT
ATOM      1  C   UNL     1      -0.738   8.184  21.544  0.00  0.00    +0.000 C 
ATOM      2  C   UNL     1       0.510   9.079  21.619  0.00  0.00    +0.000 C 
ATOM      3  C   UNL     1       0.165  10.441  22.215  0.00  0.00    +0.000 C 
ATOM      4  C   UNL     1      -0.610  11.267  21.202  0.00  0.00    +0.000 C 
ATOM      5  C   UNL     1       0.269  11.547  19.980  0.00  0.00    +0.000 C 
ATOM      6  C   UNL     1      -0.563  12.175  18.852  0.00  0.00    +0.000 C 
ATOM      7  C   UNL     1       0.978  10.262  19.454  0.00  0.00    +0.000 A 
ATOM      8  N   UNL     1       1.462  10.280  18.246  0.00  0.00    +0.000 NA
ATOM      9  C   UNL     1       2.123   9.174  17.786  0.00  0.00    +0.000 A 
ATOM     10  C   UNL     1       2.350   8.060  18.489  0.00  0.00    +0.000 A 
ATOM     11  C   UNL     1       1.843   8.053  19.869  0.00  0.00    +0.000 A 
ATOM     12  O   UNL     1       2.026   7.044  20.555  0.00  0.00    +0.000 OA
ATOM     13  N   UNL     1       1.158   9.181  20.302  0.00  0.00    +0.000 N 
ENDROOT
BRANCH   5  14
ATOM     14  N   UNL     1       1.379  12.465  20.361  0.00  0.00    +0.000 NA
ATOM     15  N   UNL     1       1.213  13.670  20.056  0.00  0.00    +0.000 NA
BRANCH  15  16
ATOM     16  C   UNL     1       2.301  14.482  20.472  0.00  0.00    +0.000 A 
ATOM     17  C   UNL     1       2.397  14.927  21.807  0.00  0.00    +0.000 A 
ATOM     18  C   UNL     1       3.456  15.725  22.242  0.00  0.00    +0.000 A 
ATOM     19  C   UNL     1       4.459  16.081  21.352  0.00  0.00    +0.000 A 
ATOM     20  C   UNL     1       4.402  15.636  20.033  0.00  0.00    +0.000 A 
ATOM     21  C   UNL     1       3.336  14.837  19.577  0.00  0.00    +0.000 A 
BRANCH  21  22
ATOM     22  C   UNL     1       3.405  14.439  18.134  0.00  0.00    +0.000 C 
ATOM     23  O   UNL     1       3.784  15.207  17.264  0.00  0.00    +0.000 OA
BRANCH  22  24
ATOM     24  O   UNL     1       3.028  13.178  17.842  0.00  0.00    +0.000 OA
ATOM     25  H   UNL     1       3.746  12.609  17.510  0.00  0.00    +0.000 HD
ENDBRANCH  22  24
ENDBRANCH  21  22
ENDBRANCH  15  16
ENDBRANCH   5  14
BRANCH  10  26
ATOM     26  C   UNL     1       3.042   6.921  17.857  0.00  0.00    +0.000 C 
ATOM     27  O   UNL     1       4.097   7.029  17.250  0.00  0.00    +0.000 OA
BRANCH  26  28
ATOM     28  O   UNL     1       2.412   5.731  17.981  0.00  0.00    +0.000 OA
ATOM     29  H   UNL     1       1.980   5.582  18.857  0.00  0.00    +0.000 HD
ENDBRANCH  26  28
ENDBRANCH  10  26
TORSDOF 6
ENDMDL
MODEL 8
REMARK VINA RESULT:      -6.1      4.104      6.422
REMARK  Name = 
REMARK  8 active torsions:
REMARK  status: ('A' for Active; 'I' for Inactive)
REMARK    1  A    between atoms: C_1  and  C_2
REMARK    2  A    between atoms: C_5  and  C_6
REMARK    3  A    between atoms: C_5  and  N_7
REMARK    4  A    between atoms: N_8  and  C_9
REMARK    5  A    between atoms: C_14  and  C_15
REMARK    6  A    between atoms: C_15  and  O_17
REMARK    7  A    between atoms: C_21  and  C_22
REMARK    8  A    between atoms: C_22  and  O_24
REMARK                            x       y       z     vdW  Elec       q    Type
REMARK                         _______ _______ _______ _____ _____    ______ ____
ROOT
ATOM      1  C   UNL     1      -0.655   8.534  21.846  0.00  0.00    +0.000 C 
ATOM      2  C   UNL     1       0.491   9.523  21.576  0.00  0.00    +0.000 C 
ATOM      3  C   UNL     1       0.041  10.957  21.841  0.00  0.00    +0.000 C 
ATOM      4  C   UNL     1      -0.886  11.421  20.730  0.00  0.00    +0.000 C 
ATOM      5  C   UNL     1      -0.128  11.450  19.400  0.00  0.00    +0.000 C 
ATOM      6  C   UNL     1      -1.098  11.689  18.234  0.00  0.00    +0.000 C 
ATOM      7  C   UNL     1       0.680  10.140  19.150  0.00  0.00    +0.000 A 
ATOM      8  N   UNL     1       1.074   9.886  17.937  0.00  0.00    +0.000 NA
ATOM      9  C   UNL     1       1.819   8.761  17.709  0.00  0.00    +0.000 A 
ATOM     10  C   UNL     1       2.213   7.892  18.646  0.00  0.00    +0.000 A 
ATOM     11  C   UNL     1       1.805   8.199  20.024  0.00  0.00    +0.000 A 
ATOM     12  O   UNL     1       2.142   7.422  20.922  0.00  0.00    +0.000 OA
ATOM     13  N   UNL     1       1.033   9.336  20.222  0.00  0.00    +0.000 N 
ENDROOT
BRANCH   5  14
ATOM     14  N   UNL     1       0.899  12.529  19.432  0.00  0.00    +0.000 NA
ATOM     15  N   UNL     1       0.979  13.231  18.396  0.00  0.00    +0.000 NA
BRANCH  15  16
ATOM     16  C   UNL     1       1.962  14.248  18.513  0.00  0.00    +0.000 A 
ATOM     17  C   UNL     1       3.302  14.000  18.148  0.00  0.00    +0.000 A 
ATOM     18  C   UNL     1       4.288  14.983  18.253  0.00  0.00    +0.000 A 
ATOM     19  C   UNL     1       3.951  16.249  18.708  0.00  0.00    +0.000 A 
ATOM     20  C   UNL     1       2.630  16.530  19.053  0.00  0.00    +0.000 A 
ATOM     21  C   UNL     1       1.626  15.546  18.960  0.00  0.00    +0.000 A 
BRANCH  21  22
ATOM     22  C   UNL     1       0.255  15.990  19.371  0.00  0.00    +0.000 C 
ATOM     23  O   UNL     1       0.076  16.882  20.185  0.00  0.00    +0.000 OA
BRANCH  22  24
ATOM     24  O   UNL     1      -0.780  15.352  18.789  0.00  0.00    +0.000 OA
ATOM     25  H   UNL     1      -0.528  14.571  18.263  0.00  0.00    +0.000 HD
ENDBRANCH  22  24
ENDBRANCH  21  22
ENDBRANCH  15  16
ENDBRANCH   5  14
BRANCH  10  26
ATOM     26  C   UNL     1       2.980   6.693  18.258  0.00  0.00    +0.000 C 
ATOM     27  O   UNL     1       3.837   6.696  17.387  0.00  0.00    +0.000 OA
BRANCH  26  28
ATOM     28  O   UNL     1       2.654   5.566  18.931  0.00  0.00    +0.000 OA
ATOM     29  H   UNL     1       2.096   5.711  19.732  0.00  0.00    +0.000 HD
ENDBRANCH  26  28
ENDBRANCH  10  26
TORSDOF 6
ENDMDL
MODEL 9
REMARK VINA RESULT:      -6.0      7.543     10.580
REMARK  Name = 
REMARK  8 active torsions:
REMARK  status: ('A' for Active; 'I' for Inactive)
REMARK    1  A    between atoms: C_1  and  C_2
REMARK    2  A    between atoms: C_5  and  C_6
REMARK    3  A    between atoms: C_5  and  N_7
REMARK    4  A    between atoms: N_8  and  C_9
REMARK    5  A    between atoms: C_14  and  C_15
REMARK    6  A    between atoms: C_15  and  O_17
REMARK    7  A    between atoms: C_21  and  C_22
REMARK    8  A    between atoms: C_22  and  O_24
REMARK                            x       y       z     vdW  Elec       q    Type
REMARK                         _______ _______ _______ _____ _____    ______ ____
ROOT
ATOM      1  C   UNL     1       3.850  15.484  22.699  0.00  0.00    +0.000 C 
ATOM      2  C   UNL     1       4.653  14.458  21.882  0.00  0.00    +0.000 C 
ATOM      3  C   UNL     1       6.150  14.726  21.997  0.00  0.00    +0.000 C 
ATOM      4  C   UNL     1       6.519  15.957  21.185  0.00  0.00    +0.000 C 
ATOM      5  C   UNL     1       6.243  15.699  19.700  0.00  0.00    +0.000 C 
ATOM      6  C   UNL     1       6.386  16.998  18.894  0.00  0.00    +0.000 C 
ATOM      7  C   UNL     1       4.831  15.084  19.458  0.00  0.00    +0.000 A 
ATOM      8  N   UNL     1       4.337  15.140  18.256  0.00  0.00    +0.000 NA
ATOM      9  C   UNL     1       3.117  14.568  18.019  0.00  0.00    +0.000 A 
ATOM     10  C   UNL     1       2.380  13.917  18.924  0.00  0.00    +0.000 A 
ATOM     11  C   UNL     1       2.954  13.814  20.273  0.00  0.00    +0.000 A 
ATOM     12  O   UNL     1       2.307  13.224  21.142  0.00  0.00    +0.000 OA
ATOM     13  N   UNL     1       4.184  14.421  20.488  0.00  0.00    +0.000 N 
ENDROOT
BRANCH   5  14
ATOM     14  N   UNL     1       7.196  14.677  19.185  0.00  0.00    +0.000 NA
ATOM     15  N   UNL     1       8.357  15.089  18.950  0.00  0.00    +0.000 NA
BRANCH  15  16
ATOM     16  C   UNL     1       9.209  14.053  18.484  0.00  0.00    +0.000 A 
ATOM     17  C   UNL     1       8.935  12.704  18.790  0.00  0.00    +0.000 A 
ATOM     18  C   UNL     1       9.755  11.666  18.344  0.00  0.00    +0.000 A 
ATOM     19  C   UNL     1      10.863  11.954  17.561  0.00  0.00    +0.000 A 
ATOM     20  C   UNL     1      11.145  13.276  17.222  0.00  0.00    +0.000 A 
ATOM     21  C   UNL     1      10.330  14.335  17.671  0.00  0.00    +0.000 A 
BRANCH  21  22
ATOM     22  C   UNL     1      10.759  15.702  17.234  0.00  0.00    +0.000 C 
ATOM     23  O   UNL     1      11.202  16.527  18.017  0.00  0.00    +0.000 OA
BRANCH  22  24
ATOM     24  O   UNL     1      10.634  15.977  15.921  0.00  0.00    +0.000 OA
ATOM     25  H   UNL     1      11.206  15.443  15.340  0.00  0.00    +0.000 HD
ENDBRANCH  22  24
ENDBRANCH  21  22
ENDBRANCH  15  16
ENDBRANCH   5  14
BRANCH  10  26
ATOM     26  C   UNL     1       1.057  13.383  18.545  0.00  0.00    +0.000 C 
ATOM     27  O   UNL     1       0.044  14.063  18.507  0.00  0.00    +0.000 OA
BRANCH  26  28
ATOM     28  O   UNL     1       1.038  12.062  18.255  0.00  0.00    +0.000 OA
ATOM     29  H   UNL     1       1.279  11.471  19.008  0.00  0.00    +0.000 HD
ENDBRANCH  26  28
ENDBRANCH  10  26
TORSDOF 6
ENDMDL
