MODEL 1
REMARK VINA RESULT:      -6.6      0.000      0.000
REMARK  Name = 
REMARK  7 active torsions:
REMARK  status: ('A' for Active; 'I' for Inactive)
REMARK    1  A    between atoms: C_1  and  N_2
REMARK    2  A    between atoms: N_2  and  C_3
REMARK    3  A    between atoms: N_12  and  C1*_13
REMARK    4  A    between atoms: C4*_15  and  C5*_16
REMARK    5  A    between atoms: C5*_16  and  O5*_17
REMARK    6  A    between atoms: C3*_18  and  O3*_19
REMARK    7  A    between atoms: C2*_20  and  O2*_21
REMARK                            x       y       z     vdW  Elec       q    Type
REMARK                         _______ _______ _______ _____ _____    ______ ____
ROOT
ATOM      1  C   UNL     1       1.858   2.800  19.714  0.00  0.00    +0.000 A 
ATOM      2  N   UNL     1       2.174   1.591  19.188  0.00  0.00    +0.000 NA
ATOM      3  C   UNL     1       3.233   1.493  18.367  0.00  0.00    +0.000 A 
ATOM      4  N   UNL     1       4.069   2.467  17.975  0.00  0.00    +0.000 NA
ATOM      5  C   UNL     1       3.738   3.652  18.511  0.00  0.00    +0.000 A 
ATOM      6  C   UNL     1       2.676   3.898  19.378  0.00  0.00    +0.000 A 
ATOM      7  C   UNL     1       2.745   5.276  19.696  0.00  0.00    +0.000 A 
ATOM      8 BR   UNL     1       1.606   6.191  20.874  0.00  0.00    +0.000 Br
ATOM      9  C   UNL     1       3.802   5.840  19.025  0.00  0.00    +0.000 A 
ATOM     10  N   UNL     1       4.404   4.838  18.298  0.00  0.00    +0.000 N 
ENDROOT
BRANCH  10  11
ATOM     11  C1* UNL     1       5.582   5.038  17.468  0.00  0.00    +0.000 C 
ATOM     12  O4* UNL     1       6.763   4.600  18.176  0.00  0.00    +0.000 OA
ATOM     13  C4* UNL     1       7.838   5.529  17.884  0.00  0.00    +0.000 C 
ATOM     14  C3* UNL     1       7.326   6.468  16.793  0.00  0.00    +0.000 C 
ATOM     15  C2* UNL     1       5.820   6.474  17.005  0.00  0.00    +0.000 C 
BRANCH  14  16
ATOM     16  O3* UNL     1       7.579   5.943  15.474  0.00  0.00    +0.000 OA
ATOM     17  H3* UNL     1       8.469   6.217  15.186  0.00  0.00    +0.000 HD
ENDBRANCH  14  16
BRANCH  15  18
ATOM     18  O2* UNL     1       5.128   6.783  15.794  0.00  0.00    +0.000 OA
ATOM     19  H2* UNL     1       5.809   6.790  15.088  0.00  0.00    +0.000 HD
ENDBRANCH  15  18
BRANCH  13  20
ATOM     20  C5* UNL     1       8.233   6.258  19.169  0.00  0.00    +0.000 C 
BRANCH  20  21
ATOM     21  O5* UNL     1       7.746   5.536  20.298  0.00  0.00    +0.000 OA
ATOM     22  H5* UNL     1       6.777   5.477  20.180  0.00  0.00    +0.000 HD
ENDBRANCH  20  21
ENDBRANCH  13  20
ENDBRANCH  10  11
BRANCH   1  24
ATOM     23  C   UNL     1       0.954   2.676  21.947  0.00  0.00    +0.000 C 
ATOM     24  N   UNL     1       0.742   2.933  20.539  0.00  0.00    +0.000 N 
ATOM     25  H   UNL     1       0.207   3.770  20.329  0.00  0.00    +0.000 HD
ENDBRANCH   1  24
TORSDOF 6
ENDMDL
MODEL 2
REMARK VINA RESULT:      -6.5      1.323      2.511
REMARK  Name = 
REMARK  7 active torsions:
REMARK  status: ('A' for Active; 'I' for Inactive)
REMARK    1  A    between atoms: C_1  and  N_2
REMARK    2  A    between atoms: N_2  and  C_3
REMARK    3  A    between atoms: N_12  and  C1*_13
REMARK    4  A    between atoms: C4*_15  and  C5*_16
REMARK    5  A    between atoms: C5*_16  and  O5*_17
REMARK    6  A    between atoms: C3*_18  and  O3*_19
REMARK    7  A    between atoms: C2*_20  and  O2*_21
REMARK                            x       y       z     vdW  Elec       q    Type
REMARK                         _______ _______ _______ _____ _____    ______ ____
ROOT
ATOM      1  C   UNL     1       1.971   3.007  19.499  0.00  0.00    +0.000 A 
ATOM      2  N   UNL     1       2.383   1.879  18.872  0.00  0.00    +0.000 NA
ATOM      3  C   UNL     1       3.391   1.955  17.987  0.00  0.00    +0.000 A 
ATOM      4  N   UNL     1       4.087   3.040  17.616  0.00  0.00    +0.000 NA
ATOM      5  C   UNL     1       3.662   4.143  18.252  0.00  0.00    +0.000 A 
ATOM      6  C   UNL     1       2.639   4.211  19.194  0.00  0.00    +0.000 A 
ATOM      7  C   UNL     1       2.576   5.565  19.604  0.00  0.00    +0.000 A 
ATOM      8 BR   UNL     1       1.422   6.267  20.907  0.00  0.00    +0.000 Br
ATOM      9  C   UNL     1       3.518   6.287  18.914  0.00  0.00    +0.000 A 
ATOM     10  N   UNL     1       4.179   5.409  18.085  0.00  0.00    +0.000 N 
ENDROOT
BRANCH  10  11
ATOM     11  C1* UNL     1       5.270   5.794  17.205  0.00  0.00    +0.000 C 
ATOM     12  O4* UNL     1       4.792   5.899  15.845  0.00  0.00    +0.000 OA
ATOM     13  C4* UNL     1       5.816   5.376  14.962  0.00  0.00    +0.000 C 
ATOM     14  C3* UNL     1       7.052   5.116  15.822  0.00  0.00    +0.000 C 
ATOM     15  C2* UNL     1       6.474   4.854  17.205  0.00  0.00    +0.000 C 
BRANCH  14  16
ATOM     16  O3* UNL     1       7.894   6.283  15.915  0.00  0.00    +0.000 OA
ATOM     17  H3* UNL     1       8.399   6.380  15.087  0.00  0.00    +0.000 HD
ENDBRANCH  14  16
BRANCH  15  18
ATOM     18  O2* UNL     1       7.419   5.172  18.229  0.00  0.00    +0.000 OA
ATOM     19  H2* UNL     1       7.314   6.131  18.406  0.00  0.00    +0.000 HD
ENDBRANCH  15  18
BRANCH  13  20
ATOM     20  C5* UNL     1       5.288   4.118  14.273  0.00  0.00    +0.000 C 
BRANCH  20  21
ATOM     21  O5* UNL     1       6.381   3.288  13.885  0.00  0.00    +0.000 OA
ATOM     22  H5* UNL     1       7.168   3.869  13.878  0.00  0.00    +0.000 HD
ENDBRANCH  20  21
ENDBRANCH  13  20
ENDBRANCH  10  11
BRANCH   1  24
ATOM     23  C   UNL     1       1.232   2.624  21.763  0.00  0.00    +0.000 C 
ATOM     24  N   UNL     1       0.903   2.959  20.395  0.00  0.00    +0.000 N 
ATOM     25  H   UNL     1       0.273   3.746  20.283  0.00  0.00    +0.000 HD
ENDBRANCH   1  24
TORSDOF 6
ENDMDL
MODEL 3
REMARK VINA RESULT:      -6.3      3.232      6.286
REMARK  Name = 
REMARK  7 active torsions:
REMARK  status: ('A' for Active; 'I' for Inactive)
REMARK    1  A    between atoms: C_1  and  N_2
REMARK    2  A    between atoms: N_2  and  C_3
REMARK    3  A    between atoms: N_12  and  C1*_13
REMARK    4  A    between atoms: C4*_15  and  C5*_16
REMARK    5  A    between atoms: C5*_16  and  O5*_17
REMARK    6  A    between atoms: C3*_18  and  O3*_19
REMARK    7  A    between atoms: C2*_20  and  O2*_21
REMARK                            x       y       z     vdW  Elec       q    Type
REMARK                         _______ _______ _______ _____ _____    ______ ____
ROOT
ATOM      1  C   UNL     1       7.326   6.646  17.997  0.00  0.00    +0.000 A 
ATOM      2  N   UNL     1       8.191   6.309  18.984  0.00  0.00    +0.000 NA
ATOM      3  C   UNL     1       7.772   5.496  19.969  0.00  0.00    +0.000 A 
ATOM      4  N   UNL     1       6.562   4.938  20.123  0.00  0.00    +0.000 NA
ATOM      5  C   UNL     1       5.725   5.285  19.132  0.00  0.00    +0.000 A 
ATOM      6  C   UNL     1       6.024   6.109  18.051  0.00  0.00    +0.000 A 
ATOM      7  C   UNL     1       4.848   6.157  17.262  0.00  0.00    +0.000 A 
ATOM      8 BR   UNL     1       4.653   7.070  15.634  0.00  0.00    +0.000 Br
ATOM      9  C   UNL     1       3.873   5.402  17.864  0.00  0.00    +0.000 A 
ATOM     10  N   UNL     1       4.417   4.872  19.012  0.00  0.00    +0.000 N 
ENDROOT
BRANCH  10  11
ATOM     11  C1* UNL     1       3.695   3.992  19.917  0.00  0.00    +0.000 C 
ATOM     12  O4* UNL     1       3.489   2.705  19.291  0.00  0.00    +0.000 OA
ATOM     13  C4* UNL     1       2.165   2.235  19.648  0.00  0.00    +0.000 C 
ATOM     14  C3* UNL     1       1.619   3.202  20.697  0.00  0.00    +0.000 C 
ATOM     15  C2* UNL     1       2.336   4.507  20.386  0.00  0.00    +0.000 C 
BRANCH  14  16
ATOM     16  O3* UNL     1       1.991   2.808  22.034  0.00  0.00    +0.000 OA
ATOM     17  H3* UNL     1       1.455   3.310  22.676  0.00  0.00    +0.000 HD
ENDBRANCH  14  16
BRANCH  15  18
ATOM     18  O2* UNL     1       2.432   5.335  21.547  0.00  0.00    +0.000 OA
ATOM     19  H2* UNL     1       2.389   6.260  21.223  0.00  0.00    +0.000 HD
ENDBRANCH  15  18
BRANCH  13  20
ATOM     20  C5* UNL     1       1.302   2.164  18.388  0.00  0.00    +0.000 C 
BRANCH  20  21
ATOM     21  O5* UNL     1       2.099   2.463  17.244  0.00  0.00    +0.000 OA
ATOM     22  H5* UNL     1       1.487   2.848  16.586  0.00  0.00    +0.000 HD
ENDBRANCH  20  21
ENDBRANCH  13  20
ENDBRANCH  10  11
BRANCH   1  24
ATOM     23  C   UNL     1       7.969   8.888  17.379  0.00  0.00    +0.000 C 
ATOM     24  N   UNL     1       7.727   7.517  16.984  0.00  0.00    +0.000 N 
ATOM     25  H   UNL     1       8.439   7.108  16.386  0.00  0.00    +0.000 HD
ENDBRANCH   1  24
TORSDOF 6
ENDMDL
MODEL 4
REMARK VINA RESULT:      -6.2      2.618      4.042
REMARK  Name = 
REMARK  7 active torsions:
REMARK  status: ('A' for Active; 'I' for Inactive)
REMARK    1  A    between atoms: C_1  and  N_2
REMARK    2  A    between atoms: N_2  and  C_3
REMARK    3  A    between atoms: N_12  and  C1*_13
REMARK    4  A    between atoms: C4*_15  and  C5*_16
REMARK    5  A    between atoms: C5*_16  and  O5*_17
REMARK    6  A    between atoms: C3*_18  and  O3*_19
REMARK    7  A    between atoms: C2*_20  and  O2*_21
REMARK                            x       y       z     vdW  Elec       q    Type
REMARK                         _______ _______ _______ _____ _____    ______ ____
ROOT
ATOM      1  C   UNL     1       2.223   5.238  19.372  0.00  0.00    +0.000 A 
ATOM      2  N   UNL     1       2.231   6.593  19.414  0.00  0.00    +0.000 NA
ATOM      3  C   UNL     1       3.060   7.266  18.598  0.00  0.00    +0.000 A 
ATOM      4  N   UNL     1       3.921   6.766  17.699  0.00  0.00    +0.000 NA
ATOM      5  C   UNL     1       3.892   5.425  17.674  0.00  0.00    +0.000 A 
ATOM      6  C   UNL     1       3.084   4.603  18.455  0.00  0.00    +0.000 A 
ATOM      7  C   UNL     1       3.380   3.275  18.058  0.00  0.00    +0.000 A 
ATOM      8 BR   UNL     1       2.561   1.721  18.718  0.00  0.00    +0.000 Br
ATOM      9  C   UNL     1       4.349   3.303  17.086  0.00  0.00    +0.000 A 
ATOM     10  N   UNL     1       4.660   4.625  16.858  0.00  0.00    +0.000 N 
ENDROOT
BRANCH  10  11
ATOM     11  C1* UNL     1       5.635   5.068  15.874  0.00  0.00    +0.000 C 
ATOM     12  O4* UNL     1       5.002   5.212  14.583  0.00  0.00    +0.000 OA
ATOM     13  C4* UNL     1       5.926   4.745  13.569  0.00  0.00    +0.000 C 
ATOM     14  C3* UNL     1       7.258   4.482  14.271  0.00  0.00    +0.000 C 
ATOM     15  C2* UNL     1       6.848   4.156  15.699  0.00  0.00    +0.000 C 
BRANCH  14  16
ATOM     16  O3* UNL     1       8.083   5.663  14.312  0.00  0.00    +0.000 OA
ATOM     17  H3* UNL     1       7.600   6.405  13.904  0.00  0.00    +0.000 HD
ENDBRANCH  14  16
BRANCH  15  18
ATOM     18  O2* UNL     1       7.900   4.457  16.620  0.00  0.00    +0.000 OA
ATOM     19  H2* UNL     1       8.396   3.620  16.746  0.00  0.00    +0.000 HD
ENDBRANCH  15  18
BRANCH  13  20
ATOM     20  C5* UNL     1       5.345   3.501  12.895  0.00  0.00    +0.000 C 
BRANCH  20  21
ATOM     21  O5* UNL     1       6.405   2.664  12.438  0.00  0.00    +0.000 OA
ATOM     22  H5* UNL     1       5.974   1.901  12.005  0.00  0.00    +0.000 HD
ENDBRANCH  20  21
ENDBRANCH  13  20
ENDBRANCH  10  11
BRANCH   1  24
ATOM     23  C   UNL     1       2.017   4.019  21.444  0.00  0.00    +0.000 C 
ATOM     24  N   UNL     1       1.398   4.517  20.235  0.00  0.00    +0.000 N 
ATOM     25  H   UNL     1       0.496   4.964  20.366  0.00  0.00    +0.000 HD
ENDBRANCH   1  24
TORSDOF 6
ENDMDL
MODEL 5
REMARK VINA RESULT:      -6.1      2.035      3.502
REMARK  Name = 
REMARK  7 active torsions:
REMARK  status: ('A' for Active; 'I' for Inactive)
REMARK    1  A    between atoms: C_1  and  N_2
REMARK    2  A    between atoms: N_2  and  C_3
REMARK    3  A    between atoms: N_12  and  C1*_13
REMARK    4  A    between atoms: C4*_15  and  C5*_16
REMARK    5  A    between atoms: C5*_16  and  O5*_17
REMARK    6  A    between atoms: C3*_18  and  O3*_19
REMARK    7  A    between atoms: C2*_20  and  O2*_21
REMARK                            x       y       z     vdW  Elec       q    Type
REMARK                         _______ _______ _______ _____ _____    ______ ____
ROOT
ATOM      1  C   UNL     1       1.608   4.463  20.199  0.00  0.00    +0.000 A 
ATOM      2  N   UNL     1       1.509   5.770  20.543  0.00  0.00    +0.000 NA
ATOM      3  C   UNL     1       2.357   6.656  19.993  0.00  0.00    +0.000 A 
ATOM      4  N   UNL     1       3.335   6.424  19.104  0.00  0.00    +0.000 NA
ATOM      5  C   UNL     1       3.410   5.124  18.777  0.00  0.00    +0.000 A 
ATOM      6  C   UNL     1       2.598   4.103  19.261  0.00  0.00    +0.000 A 
ATOM      7  C   UNL     1       3.031   2.920  18.612  0.00  0.00    +0.000 A 
ATOM      8 BR   UNL     1       2.274   1.215  18.815  0.00  0.00    +0.000 Br
ATOM      9  C   UNL     1       4.081   3.223  17.782  0.00  0.00    +0.000 A 
ATOM     10  N   UNL     1       4.311   4.576  17.891  0.00  0.00    +0.000 N 
ENDROOT
BRANCH  10  11
ATOM     11  C1* UNL     1       5.337   5.284  17.143  0.00  0.00    +0.000 C 
ATOM     12  O4* UNL     1       4.898   5.494  15.782  0.00  0.00    +0.000 OA
ATOM     13  C4* UNL     1       6.037   5.307  14.904  0.00  0.00    +0.000 C 
ATOM     14  C3* UNL     1       7.267   5.162  15.799  0.00  0.00    +0.000 C 
ATOM     15  C2* UNL     1       6.701   4.598  17.094  0.00  0.00    +0.000 C 
BRANCH  14  16
ATOM     16  O3* UNL     1       7.860   6.441  16.103  0.00  0.00    +0.000 OA
ATOM     17  H3* UNL     1       7.158   7.116  16.148  0.00  0.00    +0.000 HD
ENDBRANCH  14  16
BRANCH  15  18
ATOM     18  O2* UNL     1       7.527   4.935  18.210  0.00  0.00    +0.000 OA
ATOM     19  H2* UNL     1       7.498   5.913  18.282  0.00  0.00    +0.000 HD
ENDBRANCH  15  18
BRANCH  13  20
ATOM     20  C5* UNL     1       5.790   4.086  14.018  0.00  0.00    +0.000 C 
BRANCH  20  21
ATOM     21  O5* UNL     1       6.753   4.055  12.966  0.00  0.00    +0.000 OA
ATOM     22  H5* UNL     1       7.017   3.118  12.873  0.00  0.00    +0.000 HD
ENDBRANCH  20  21
ENDBRANCH  13  20
ENDBRANCH  10  11
BRANCH   1  24
ATOM     23  C   UNL     1       1.326   2.742  21.865  0.00  0.00    +0.000 C 
ATOM     24  N   UNL     1       0.763   3.521  20.784  0.00  0.00    +0.000 N 
ATOM     25  H   UNL     1      -0.165   3.893  20.958  0.00  0.00    +0.000 HD
ENDBRANCH   1  24
TORSDOF 6
ENDMDL
MODEL 6
REMARK VINA RESULT:      -6.1      3.321      6.152
REMARK  Name = 
REMARK  7 active torsions:
REMARK  status: ('A' for Active; 'I' for Inactive)
REMARK    1  A    between atoms: C_1  and  N_2
REMARK    2  A    between atoms: N_2  and  C_3
REMARK    3  A    between atoms: N_12  and  C1*_13
REMARK    4  A    between atoms: C4*_15  and  C5*_16
REMARK    5  A    between atoms: C5*_16  and  O5*_17
REMARK    6  A    between atoms: C3*_18  and  O3*_19
REMARK    7  A    between atoms: C2*_20  and  O2*_21
REMARK                            x       y       z     vdW  Elec       q    Type
REMARK                         _______ _______ _______ _____ _____    ______ ____
ROOT
ATOM      1  C   UNL     1       6.773   6.743  16.922  0.00  0.00    +0.000 A 
ATOM      2  N   UNL     1       6.070   7.059  15.807  0.00  0.00    +0.000 NA
ATOM      3  C   UNL     1       4.882   6.468  15.594  0.00  0.00    +0.000 A 
ATOM      4  N   UNL     1       4.257   5.566  16.366  0.00  0.00    +0.000 NA
ATOM      5  C   UNL     1       4.970   5.272  17.464  0.00  0.00    +0.000 A 
ATOM      6  C   UNL     1       6.206   5.810  17.814  0.00  0.00    +0.000 A 
ATOM      7  C   UNL     1       6.546   5.226  19.059  0.00  0.00    +0.000 A 
ATOM      8 BR   UNL     1       8.082   5.604  20.068  0.00  0.00    +0.000 Br
ATOM      9  C   UNL     1       5.555   4.352  19.430  0.00  0.00    +0.000 A 
ATOM     10  N   UNL     1       4.593   4.384  18.446  0.00  0.00    +0.000 N 
ENDROOT
BRANCH  10  11
ATOM     11  C1* UNL     1       3.366   3.605  18.490  0.00  0.00    +0.000 C 
ATOM     12  O4* UNL     1       2.345   4.334  19.206  0.00  0.00    +0.000 OA
ATOM     13  C4* UNL     1       1.593   3.391  20.011  0.00  0.00    +0.000 C 
ATOM     14  C3* UNL     1       2.065   1.994  19.612  0.00  0.00    +0.000 C 
ATOM     15  C2* UNL     1       3.490   2.224  19.131  0.00  0.00    +0.000 C 
BRANCH  14  16
ATOM     16  O3* UNL     1       1.309   1.470  18.501  0.00  0.00    +0.000 OA
ATOM     17  H3* UNL     1       1.793   1.648  17.673  0.00  0.00    +0.000 HD
ENDBRANCH  14  16
BRANCH  15  18
ATOM     18  O2* UNL     1       3.890   1.218  18.197  0.00  0.00    +0.000 OA
ATOM     19  H2* UNL     1       4.425   1.679  17.516  0.00  0.00    +0.000 HD
ENDBRANCH  15  18
BRANCH  13  20
ATOM     20  C5* UNL     1       1.818   3.703  21.490  0.00  0.00    +0.000 C 
BRANCH  20  21
ATOM     21  O5* UNL     1       1.687   2.508  22.257  0.00  0.00    +0.000 OA
ATOM     22  H5* UNL     1       2.545   2.046  22.183  0.00  0.00    +0.000 HD
ENDBRANCH  20  21
ENDBRANCH  13  20
ENDBRANCH  10  11
BRANCH   1  24
ATOM     23  C   UNL     1       8.027   8.609  17.795  0.00  0.00    +0.000 C 
ATOM     24  N   UNL     1       8.024   7.316  17.146  0.00  0.00    +0.000 N 
ATOM     25  H   UNL     1       8.692   6.647  17.514  0.00  0.00    +0.000 HD
ENDBRANCH   1  24
TORSDOF 6
ENDMDL
MODEL 7
REMARK VINA RESULT:      -6.0      3.025      6.011
REMARK  Name = 
REMARK  7 active torsions:
REMARK  status: ('A' for Active; 'I' for Inactive)
REMARK    1  A    between atoms: C_1  and  N_2
REMARK    2  A    between atoms: N_2  and  C_3
REMARK    3  A    between atoms: N_12  and  C1*_13
REMARK    4  A    between atoms: C4*_15  and  C5*_16
REMARK    5  A    between atoms: C5*_16  and  O5*_17
REMARK    6  A    between atoms: C3*_18  and  O3*_19
REMARK    7  A    between atoms: C2*_20  and  O2*_21
REMARK                            x       y       z     vdW  Elec       q    Type
REMARK                         _______ _______ _______ _____ _____    ______ ____
ROOT
ATOM      1  C   UNL     1       6.631   6.992  17.247  0.00  0.00    +0.000 A 
ATOM      2  N   UNL     1       7.717   6.187  17.150  0.00  0.00    +0.000 NA
ATOM      3  C   UNL     1       7.561   4.860  17.293  0.00  0.00    +0.000 A 
ATOM      4  N   UNL     1       6.428   4.181  17.528  0.00  0.00    +0.000 NA
ATOM      5  C   UNL     1       5.368   4.999  17.617  0.00  0.00    +0.000 A 
ATOM      6  C   UNL     1       5.381   6.385  17.484  0.00  0.00    +0.000 A 
ATOM      7  C   UNL     1       4.035   6.802  17.623  0.00  0.00    +0.000 A 
ATOM      8 BR   UNL     1       3.410   8.566  17.481  0.00  0.00    +0.000 Br
ATOM      9  C   UNL     1       3.246   5.703  17.853  0.00  0.00    +0.000 A 
ATOM     10  N   UNL     1       4.071   4.601  17.851  0.00  0.00    +0.000 N 
ENDROOT
BRANCH  10  11
ATOM     11  C1* UNL     1       3.599   3.238  18.039  0.00  0.00    +0.000 C 
ATOM     12  O4* UNL     1       2.186   3.161  17.747  0.00  0.00    +0.000 OA
ATOM     13  C4* UNL     1       1.572   2.264  18.707  0.00  0.00    +0.000 C 
ATOM     14  C3* UNL     1       2.708   1.621  19.501  0.00  0.00    +0.000 C 
ATOM     15  C2* UNL     1       3.820   2.657  19.435  0.00  0.00    +0.000 C 
BRANCH  14  16
ATOM     16  O3* UNL     1       3.193   0.421  18.865  0.00  0.00    +0.000 OA
ATOM     17  H3* UNL     1       3.702  -0.101  19.512  0.00  0.00    +0.000 HD
ENDBRANCH  14  16
BRANCH  15  18
ATOM     18  O2* UNL     1       5.105   2.047  19.579  0.00  0.00    +0.000 OA
ATOM     19  H2* UNL     1       5.487   2.416  20.405  0.00  0.00    +0.000 HD
ENDBRANCH  15  18
BRANCH  13  20
ATOM     20  C5* UNL     1       0.600   3.056  19.582  0.00  0.00    +0.000 C 
BRANCH  20  21
ATOM     21  O5* UNL     1       0.840   2.758  20.956  0.00  0.00    +0.000 OA
ATOM     22  H5* UNL     1       1.374   1.938  20.962  0.00  0.00    +0.000 HD
ENDBRANCH  20  21
ENDBRANCH  13  20
ENDBRANCH  10  11
BRANCH   1  24
ATOM     23  C   UNL     1       7.933   8.950  17.785  0.00  0.00    +0.000 C 
ATOM     24  N   UNL     1       6.775   8.375  17.138  0.00  0.00    +0.000 N 
ATOM     25  H   UNL     1       6.599   8.705  16.195  0.00  0.00    +0.000 HD
ENDBRANCH   1  24
TORSDOF 6
ENDMDL
MODEL 8
REMARK VINA RESULT:      -6.0      4.276      5.908
REMARK  Name = 
REMARK  7 active torsions:
REMARK  status: ('A' for Active; 'I' for Inactive)
REMARK    1  A    between atoms: C_1  and  N_2
REMARK    2  A    between atoms: N_2  and  C_3
REMARK    3  A    between atoms: N_12  and  C1*_13
REMARK    4  A    between atoms: C4*_15  and  C5*_16
REMARK    5  A    between atoms: C5*_16  and  O5*_17
REMARK    6  A    between atoms: C3*_18  and  O3*_19
REMARK    7  A    between atoms: C2*_20  and  O2*_21
REMARK                            x       y       z     vdW  Elec       q    Type
REMARK                         _______ _______ _______ _____ _____    ______ ____
ROOT
ATOM      1  C   UNL     1       3.577   4.260  18.305  0.00  0.00    +0.000 A 
ATOM      2  N   UNL     1       4.241   4.866  17.290  0.00  0.00    +0.000 NA
ATOM      3  C   UNL     1       4.190   6.205  17.185  0.00  0.00    +0.000 A 
ATOM      4  N   UNL     1       3.548   7.074  17.980  0.00  0.00    +0.000 NA
ATOM      5  C   UNL     1       2.901   6.450  18.977  0.00  0.00    +0.000 A 
ATOM      6  C   UNL     1       2.872   5.078  19.211  0.00  0.00    +0.000 A 
ATOM      7  C   UNL     1       2.097   4.899  20.383  0.00  0.00    +0.000 A 
ATOM      8 BR   UNL     1       1.746   3.262  21.231  0.00  0.00    +0.000 Br
ATOM      9  C   UNL     1       1.659   6.124  20.823  0.00  0.00    +0.000 A 
ATOM     10  N   UNL     1       2.154   7.070  19.954  0.00  0.00    +0.000 N 
ENDROOT
BRANCH  10  11
ATOM     11  C1* UNL     1       1.925   8.499  20.099  0.00  0.00    +0.000 C 
ATOM     12  O4* UNL     1       1.754   8.831  21.495  0.00  0.00    +0.000 OA
ATOM     13  C4* UNL     1       0.717   9.839  21.598  0.00  0.00    +0.000 C 
ATOM     14  C3* UNL     1       0.379  10.273  20.173  0.00  0.00    +0.000 C 
ATOM     15  C2* UNL     1       0.721   9.049  19.337  0.00  0.00    +0.000 C 
BRANCH  14  16
ATOM     16  O3* UNL     1       1.223  11.355  19.728  0.00  0.00    +0.000 OA
ATOM     17  H3* UNL     1       2.152  11.140  19.933  0.00  0.00    +0.000 HD
ENDBRANCH  14  16
BRANCH  15  18
ATOM     18  O2* UNL     1       1.041   9.414  17.992  0.00  0.00    +0.000 OA
ATOM     19  H2* UNL     1       0.688  10.320  17.867  0.00  0.00    +0.000 HD
ENDBRANCH  15  18
BRANCH  13  20
ATOM     20  C5* UNL     1      -0.479   9.253  22.348  0.00  0.00    +0.000 C 
BRANCH  20  21
ATOM     21  O5* UNL     1      -0.387   9.585  23.732  0.00  0.00    +0.000 OA
ATOM     22  H5* UNL     1       0.375   9.078  24.078  0.00  0.00    +0.000 HD
ENDBRANCH  20  21
ENDBRANCH  13  20
ENDBRANCH  10  11
BRANCH   1  24
ATOM     23  C   UNL     1       2.548   2.166  17.691  0.00  0.00    +0.000 C 
ATOM     24  N   UNL     1       3.586   2.870  18.413  0.00  0.00    +0.000 N 
ATOM     25  H   UNL     1       4.519   2.483  18.314  0.00  0.00    +0.000 HD
ENDBRANCH   1  24
TORSDOF 6
ENDMDL
MODEL 9
REMARK VINA RESULT:      -5.9      4.583      6.262
REMARK  Name = 
REMARK  7 active torsions:
REMARK  status: ('A' for Active; 'I' for Inactive)
REMARK    1  A    between atoms: C_1  and  N_2
REMARK    2  A    between atoms: N_2  and  C_3
REMARK    3  A    between atoms: N_12  and  C1*_13
REMARK    4  A    between atoms: C4*_15  and  C5*_16
REMARK    5  A    between atoms: C5*_16  and  O5*_17
REMARK    6  A    between atoms: C3*_18  and  O3*_19
REMARK    7  A    between atoms: C2*_20  and  O2*_21
REMARK                            x       y       z     vdW  Elec       q    Type
REMARK                         _______ _______ _______ _____ _____    ______ ____
ROOT
ATOM      1  C   UNL     1       3.627   4.775  19.236  0.00  0.00    +0.000 A 
ATOM      2  N   UNL     1       2.960   4.254  20.295  0.00  0.00    +0.000 NA
ATOM      3  C   UNL     1       2.010   4.992  20.894  0.00  0.00    +0.000 A 
ATOM      4  N   UNL     1       1.603   6.231  20.580  0.00  0.00    +0.000 NA
ATOM      5  C   UNL     1       2.276   6.723  19.527  0.00  0.00    +0.000 A 
ATOM      6  C   UNL     1       3.275   6.071  18.809  0.00  0.00    +0.000 A 
ATOM      7  C   UNL     1       3.660   6.965  17.780  0.00  0.00    +0.000 A 
ATOM      8 BR   UNL     1       4.935   6.623  16.446  0.00  0.00    +0.000 Br
ATOM      9  C   UNL     1       2.929   8.121  17.892  0.00  0.00    +0.000 A 
ATOM     10  N   UNL     1       2.084   7.967  18.969  0.00  0.00    +0.000 N 
ENDROOT
BRANCH  10  11
ATOM     11  C1* UNL     1       1.129   8.975  19.397  0.00  0.00    +0.000 C 
ATOM     12  O4* UNL     1       0.935   9.948  18.346  0.00  0.00    +0.000 OA
ATOM     13  C4* UNL     1       0.821  11.259  18.957  0.00  0.00    +0.000 C 
ATOM     14  C3* UNL     1       0.753  11.040  20.467  0.00  0.00    +0.000 C 
ATOM     15  C2* UNL     1       1.503   9.731  20.671  0.00  0.00    +0.000 C 
BRANCH  14  16
ATOM     16  O3* UNL     1      -0.602  10.840  20.919  0.00  0.00    +0.000 OA
ATOM     17  H3* UNL     1      -1.166  11.550  20.560  0.00  0.00    +0.000 HD
ENDBRANCH  14  16
BRANCH  15  18
ATOM     18  O2* UNL     1       1.066   9.064  21.856  0.00  0.00    +0.000 OA
ATOM     19  H2* UNL     1       0.102   9.236  21.923  0.00  0.00    +0.000 HD
ENDBRANCH  15  18
BRANCH  13  20
ATOM     20  C5* UNL     1       2.010  12.117  18.526  0.00  0.00    +0.000 C 
BRANCH  20  21
ATOM     21  O5* UNL     1       2.518  11.642  17.281  0.00  0.00    +0.000 OA
ATOM     22  H5* UNL     1       3.478  11.828  17.295  0.00  0.00    +0.000 HD
ENDBRANCH  20  21
ENDBRANCH  13  20
ENDBRANCH  10  11
BRANCH   1  24
ATOM     23  C   UNL     1       4.219   3.071  17.633  0.00  0.00    +0.000 C 
ATOM     24  N   UNL     1       4.641   4.041  18.620  0.00  0.00    +0.000 N 
ATOM     25  H   UNL     1       5.423   4.626  18.343  0.00  0.00    +0.000 HD
ENDBRANCH   1  24
TORSDOF 6
ENDMDL
