MODEL 1
REMARK VINA RESULT:      -6.9      0.000      0.000
REMARK  Name = 
REMARK  13 active torsions:
REMARK  status: ('A' for Active; 'I' for Inactive)
REMARK    1  A    between atoms: C_1  and  C_2
REMARK    2  A    between atoms: C_2  and  C_3
REMARK    3  A    between atoms: C_5  and  C_6
REMARK    4  A    between atoms: C_6  and  C_7
REMARK    5  A    between atoms: C_6  and  N_8
REMARK    6  A    between atoms: N_8  and  C_17
REMARK    7  A    between atoms: C_9  and  C_11
REMARK    8  A    between atoms: C_21  and  C_22
REMARK    9  A    between atoms: C_22  and  C_23
REMARK   10  A    between atoms: C_23  and  C_24
REMARK   11  A    between atoms: C_24  and  N_25
REMARK   12  A    between atoms: C_26  and  O_28
REMARK   13  A    between atoms: O_28  and  C_29
REMARK                            x       y       z     vdW  Elec       q    Type
REMARK                         _______ _______ _______ _____ _____    ______ ____
ROOT
ATOM      1  C   UNL     1       0.358   9.537  21.006  0.00  0.00    +0.000 A 
ATOM      2  C   UNL     1      -0.453  10.516  20.432  0.00  0.00    +0.000 A 
ATOM      3  C   UNL     1      -0.338  10.787  19.066  0.00  0.00    +0.000 A 
ATOM      4  C   UNL     1       0.604  10.048  18.335  0.00  0.00    +0.000 A 
ATOM      5  C   UNL     1       1.330   9.035  18.961  0.00  0.00    +0.000 A 
ATOM      6  N   UNL     1       1.229   8.792  20.285  0.00  0.00    +0.000 NA
ENDROOT
BRANCH   1   8
ATOM      7  C   UNL     1      -0.747  10.122  23.168  0.00  0.00    +0.000 C 
ATOM      8  C   UNL     1       0.349   9.307  22.495  0.00  0.00    +0.000 C 
ENDBRANCH   1   8
BRANCH   3   9
ATOM      9  C   UNL     1      -1.177  11.853  18.368  0.00  0.00    +0.000 C 
ATOM     10  C   UNL     1      -0.426  13.187  18.269  0.00  0.00    +0.000 C 
BRANCH   9  11
ATOM     11  N   UNL     1      -2.591  11.903  18.837  0.00  0.00    +0.000 N 
ATOM     12  C   UNL     1      -2.981  12.711  19.921  0.00  0.00    +0.000 C 
ATOM     13  O   UNL     1      -2.183  13.438  20.517  0.00  0.00    +0.000 OA
BRANCH  12  14
ATOM     14  C   UNL     1      -4.468  12.615  20.417  0.00  0.00    +0.000 C 
ATOM     15  C   UNL     1      -4.563  12.718  21.967  0.00  0.00    +0.000 C 
ATOM     16  N   UNL     1      -4.470  14.098  22.488  0.00  0.00    +0.000 NA
ATOM     17  C   UNL     1      -5.472  14.925  21.801  0.00  0.00    +0.000 C 
ATOM     18  C   UNL     1      -5.368  14.814  20.274  0.00  0.00    +0.000 C 
ATOM     19  O   UNL     1      -5.452  13.460  19.818  0.00  0.00    +0.000 OA
ATOM     20  H   UNL     1      -3.535  14.449  22.265  0.00  0.00    +0.000 HD
ENDBRANCH  12  14
BRANCH  11  21
ATOM     21  C   UNL     1      -3.523  10.974  18.213  0.00  0.00    +0.000 C 
ATOM     22  C   UNL     1      -4.058  11.287  16.837  0.00  0.00    +0.000 C 
ATOM     23  C   UNL     1      -3.220  10.065  17.044  0.00  0.00    +0.000 C 
ENDBRANCH  11  21
ENDBRANCH   9  11
ENDBRANCH   3   9
BRANCH   5  24
ATOM     24  C   UNL     1       2.300   8.190  18.168  0.00  0.00    +0.000 C 
BRANCH  24  25
ATOM     25  C   UNL     1       2.664   6.846  18.816  0.00  0.00    +0.000 C 
BRANCH  25  26
ATOM     26  C   UNL     1       3.292   5.856  17.836  0.00  0.00    +0.000 C 
BRANCH  26  27
ATOM     27  N   UNL     1       3.091   4.487  18.259  0.00  0.00    +0.000 N 
ATOM     28  C   UNL     1       1.993   3.765  17.905  0.00  0.00    +0.000 C 
ATOM     29  O   UNL     1       1.062   4.181  17.226  0.00  0.00    +0.000 OA
ATOM     30  H   UNL     1       3.809   4.000  18.772  0.00  0.00    +0.000 HD
BRANCH  28  31
ATOM     31  O   UNL     1       2.084   2.516  18.425  0.00  0.00    +0.000 OA
ATOM     32  C   UNL     1       3.311   1.854  18.115  0.00  0.00    +0.000 C 
ENDBRANCH  28  31
ENDBRANCH  26  27
ENDBRANCH  25  26
ENDBRANCH  24  25
ENDBRANCH   5  24
TORSDOF 10
ENDMDL
MODEL 2
REMARK VINA RESULT:      -6.9      1.075      1.227
REMARK  Name = 
REMARK  13 active torsions:
REMARK  status: ('A' for Active; 'I' for Inactive)
REMARK    1  A    between atoms: C_1  and  C_2
REMARK    2  A    between atoms: C_2  and  C_3
REMARK    3  A    between atoms: C_5  and  C_6
REMARK    4  A    between atoms: C_6  and  C_7
REMARK    5  A    between atoms: C_6  and  N_8
REMARK    6  A    between atoms: N_8  and  C_17
REMARK    7  A    between atoms: C_9  and  C_11
REMARK    8  A    between atoms: C_21  and  C_22
REMARK    9  A    between atoms: C_22  and  C_23
REMARK   10  A    between atoms: C_23  and  C_24
REMARK   11  A    between atoms: C_24  and  N_25
REMARK   12  A    between atoms: C_26  and  O_28
REMARK   13  A    between atoms: O_28  and  C_29
REMARK                            x       y       z     vdW  Elec       q    Type
REMARK                         _______ _______ _______ _____ _____    ______ ____
ROOT
ATOM      1  C   UNL     1       0.438   9.285  20.908  0.00  0.00    +0.000 A 
ATOM      2  C   UNL     1      -0.267  10.373  20.394  0.00  0.00    +0.000 A 
ATOM      3  C   UNL     1      -0.060  10.760  19.068  0.00  0.00    +0.000 A 
ATOM      4  C   UNL     1       0.863  10.020  18.313  0.00  0.00    +0.000 A 
ATOM      5  C   UNL     1       1.479   8.901  18.871  0.00  0.00    +0.000 A 
ATOM      6  N   UNL     1       1.290   8.545  20.160  0.00  0.00    +0.000 NA
ENDROOT
BRANCH   1   8
ATOM      7  C   UNL     1      -0.461   9.965  23.136  0.00  0.00    +0.000 C 
ATOM      8  C   UNL     1       0.333   8.919  22.366  0.00  0.00    +0.000 C 
ENDBRANCH   1   8
BRANCH   3   9
ATOM      9  C   UNL     1      -0.780  11.948  18.438  0.00  0.00    +0.000 C 
ATOM     10  C   UNL     1       0.086  13.214  18.469  0.00  0.00    +0.000 C 
BRANCH   9  11
ATOM     11  N   UNL     1      -2.200  12.085  18.871  0.00  0.00    +0.000 N 
ATOM     12  C   UNL     1      -2.546  12.742  20.066  0.00  0.00    +0.000 C 
ATOM     13  O   UNL     1      -1.700  13.261  20.799  0.00  0.00    +0.000 OA
BRANCH  12  14
ATOM     14  C   UNL     1      -4.055  12.741  20.501  0.00  0.00    +0.000 C 
ATOM     15  C   UNL     1      -4.207  12.626  22.045  0.00  0.00    +0.000 C 
ATOM     16  N   UNL     1      -3.992  13.896  22.769  0.00  0.00    +0.000 NA
ATOM     17  C   UNL     1      -4.870  14.921  22.186  0.00  0.00    +0.000 C 
ATOM     18  C   UNL     1      -4.711  15.024  20.663  0.00  0.00    +0.000 C 
ATOM     19  O   UNL     1      -4.917  13.768  20.008  0.00  0.00    +0.000 OA
ATOM     20  H   UNL     1      -3.016  14.170  22.628  0.00  0.00    +0.000 HD
ENDBRANCH  12  14
BRANCH  11  21
ATOM     21  C   UNL     1      -3.200  11.388  18.075  0.00  0.00    +0.000 C 
ATOM     22  C   UNL     1      -2.844  10.950  16.674  0.00  0.00    +0.000 C 
ATOM     23  C   UNL     1      -3.178   9.922  17.709  0.00  0.00    +0.000 C 
ENDBRANCH  11  21
ENDBRANCH   9  11
ENDBRANCH   3   9
BRANCH   5  24
ATOM     24  C   UNL     1       2.426   8.060  18.046  0.00  0.00    +0.000 C 
BRANCH  24  25
ATOM     25  C   UNL     1       2.861   6.743  18.707  0.00  0.00    +0.000 C 
BRANCH  25  26
ATOM     26  C   UNL     1       3.708   5.862  17.789  0.00  0.00    +0.000 C 
BRANCH  26  27
ATOM     27  N   UNL     1       3.626   4.467  18.165  0.00  0.00    +0.000 N 
ATOM     28  C   UNL     1       4.595   3.845  18.889  0.00  0.00    +0.000 C 
ATOM     29  O   UNL     1       5.632   4.368  19.278  0.00  0.00    +0.000 OA
ATOM     30  H   UNL     1       2.796   3.931  17.962  0.00  0.00    +0.000 HD
BRANCH  28  31
ATOM     31  O   UNL     1       4.241   2.554  19.108  0.00  0.00    +0.000 OA
ATOM     32  C   UNL     1       3.247   2.071  18.202  0.00  0.00    +0.000 C 
ENDBRANCH  28  31
ENDBRANCH  26  27
ENDBRANCH  25  26
ENDBRANCH  24  25
ENDBRANCH   5  24
TORSDOF 10
ENDMDL
MODEL 3
REMARK VINA RESULT:      -6.8      6.155     10.210
REMARK  Name = 
REMARK  13 active torsions:
REMARK  status: ('A' for Active; 'I' for Inactive)
REMARK    1  A    between atoms: C_1  and  C_2
REMARK    2  A    between atoms: C_2  and  C_3
REMARK    3  A    between atoms: C_5  and  C_6
REMARK    4  A    between atoms: C_6  and  C_7
REMARK    5  A    between atoms: C_6  and  N_8
REMARK    6  A    between atoms: N_8  and  C_17
REMARK    7  A    between atoms: C_9  and  C_11
REMARK    8  A    between atoms: C_21  and  C_22
REMARK    9  A    between atoms: C_22  and  C_23
REMARK   10  A    between atoms: C_23  and  C_24
REMARK   11  A    between atoms: C_24  and  N_25
REMARK   12  A    between atoms: C_26  and  O_28
REMARK   13  A    between atoms: O_28  and  C_29
REMARK                            x       y       z     vdW  Elec       q    Type
REMARK                         _______ _______ _______ _____ _____    ______ ____
ROOT
ATOM      1  C   UNL     1       6.450   5.646  15.774  0.00  0.00    +0.000 A 
ATOM      2  C   UNL     1       5.097   5.848  16.046  0.00  0.00    +0.000 A 
ATOM      3  C   UNL     1       4.727   6.715  17.077  0.00  0.00    +0.000 A 
ATOM      4  C   UNL     1       5.754   7.344  17.796  0.00  0.00    +0.000 A 
ATOM      5  C   UNL     1       7.084   7.149  17.423  0.00  0.00    +0.000 A 
ATOM      6  N   UNL     1       7.435   6.295  16.438  0.00  0.00    +0.000 NA
ENDROOT
BRANCH   1   8
ATOM      7  C   UNL     1       5.696   4.098  13.965  0.00  0.00    +0.000 C 
ATOM      8  C   UNL     1       6.886   4.626  14.754  0.00  0.00    +0.000 C 
ENDBRANCH   1   8
BRANCH   3   9
ATOM      9  C   UNL     1       3.270   6.975  17.446  0.00  0.00    +0.000 C 
ATOM     10  C   UNL     1       2.968   8.477  17.531  0.00  0.00    +0.000 C 
BRANCH   9  11
ATOM     11  N   UNL     1       2.774   6.120  18.562  0.00  0.00    +0.000 N 
ATOM     12  C   UNL     1       2.303   4.813  18.336  0.00  0.00    +0.000 C 
ATOM     13  O   UNL     1       2.303   4.300  17.215  0.00  0.00    +0.000 OA
BRANCH  12  14
ATOM     14  C   UNL     1       1.693   4.027  19.552  0.00  0.00    +0.000 C 
ATOM     15  C   UNL     1       0.766   2.870  19.080  0.00  0.00    +0.000 C 
ATOM     16  N   UNL     1       1.489   1.656  18.645  0.00  0.00    +0.000 NA
ATOM     17  C   UNL     1       2.404   1.247  19.720  0.00  0.00    +0.000 C 
ATOM     18  C   UNL     1       3.312   2.397  20.177  0.00  0.00    +0.000 C 
ATOM     19  O   UNL     1       2.569   3.554  20.576  0.00  0.00    +0.000 OA
ATOM     20  H   UNL     1       2.034   1.901  17.815  0.00  0.00    +0.000 HD
ENDBRANCH  12  14
BRANCH  11  21
ATOM     21  C   UNL     1       2.667   6.746  19.872  0.00  0.00    +0.000 C 
ATOM     22  C   UNL     1       1.866   8.019  20.012  0.00  0.00    +0.000 C 
ATOM     23  C   UNL     1       1.430   6.786  20.739  0.00  0.00    +0.000 C 
ENDBRANCH  11  21
ENDBRANCH   9  11
ENDBRANCH   3   9
BRANCH   5  24
ATOM     24  C   UNL     1       8.194   7.873  18.149  0.00  0.00    +0.000 C 
BRANCH  24  25
ATOM     25  C   UNL     1       8.225   9.393  17.930  0.00  0.00    +0.000 C 
BRANCH  25  26
ATOM     26  C   UNL     1       9.082  10.131  18.959  0.00  0.00    +0.000 C 
BRANCH  26  27
ATOM     27  N   UNL     1      10.005  11.047  18.324  0.00  0.00    +0.000 N 
ATOM     28  C   UNL     1      10.977  11.702  19.014  0.00  0.00    +0.000 C 
ATOM     29  O   UNL     1      11.168  11.616  20.220  0.00  0.00    +0.000 OA
ATOM     30  H   UNL     1       9.999  11.166  17.323  0.00  0.00    +0.000 HD
BRANCH  28  31
ATOM     31  O   UNL     1      11.698  12.472  18.161  0.00  0.00    +0.000 OA
ATOM     32  C   UNL     1      10.924  13.029  17.097  0.00  0.00    +0.000 C 
ENDBRANCH  28  31
ENDBRANCH  26  27
ENDBRANCH  25  26
ENDBRANCH  24  25
ENDBRANCH   5  24
TORSDOF 10
ENDMDL
MODEL 4
REMARK VINA RESULT:      -6.8      1.843      2.215
REMARK  Name = 
REMARK  13 active torsions:
REMARK  status: ('A' for Active; 'I' for Inactive)
REMARK    1  A    between atoms: C_1  and  C_2
REMARK    2  A    between atoms: C_2  and  C_3
REMARK    3  A    between atoms: C_5  and  C_6
REMARK    4  A    between atoms: C_6  and  C_7
REMARK    5  A    between atoms: C_6  and  N_8
REMARK    6  A    between atoms: N_8  and  C_17
REMARK    7  A    between atoms: C_9  and  C_11
REMARK    8  A    between atoms: C_21  and  C_22
REMARK    9  A    between atoms: C_22  and  C_23
REMARK   10  A    between atoms: C_23  and  C_24
REMARK   11  A    between atoms: C_24  and  N_25
REMARK   12  A    between atoms: C_26  and  O_28
REMARK   13  A    between atoms: O_28  and  C_29
REMARK                            x       y       z     vdW  Elec       q    Type
REMARK                         _______ _______ _______ _____ _____    ______ ____
ROOT
ATOM      1  C   UNL     1       0.771   9.357  20.896  0.00  0.00    +0.000 A 
ATOM      2  C   UNL     1       0.054  10.454  20.416  0.00  0.00    +0.000 A 
ATOM      3  C   UNL     1       0.141  10.791  19.063  0.00  0.00    +0.000 A 
ATOM      4  C   UNL     1       0.958   9.994  18.247  0.00  0.00    +0.000 A 
ATOM      5  C   UNL     1       1.589   8.871  18.781  0.00  0.00    +0.000 A 
ATOM      6  N   UNL     1       1.518   8.563  20.093  0.00  0.00    +0.000 NA
ENDROOT
BRANCH   1   8
ATOM      7  C   UNL     1      -0.305   9.785  23.109  0.00  0.00    +0.000 C 
ATOM      8  C   UNL     1       0.799   9.042  22.369  0.00  0.00    +0.000 C 
ENDBRANCH   1   8
BRANCH   3   9
ATOM      9  C   UNL     1      -0.598  11.984  18.466  0.00  0.00    +0.000 C 
ATOM     10  C   UNL     1       0.264  13.253  18.493  0.00  0.00    +0.000 C 
BRANCH   9  11
ATOM     11  N   UNL     1      -2.008  12.111  18.935  0.00  0.00    +0.000 N 
ATOM     12  C   UNL     1      -2.327  12.749  20.148  0.00  0.00    +0.000 C 
ATOM     13  O   UNL     1      -1.465  13.260  20.867  0.00  0.00    +0.000 OA
BRANCH  12  14
ATOM     14  C   UNL     1      -3.825  12.736  20.618  0.00  0.00    +0.000 C 
ATOM     15  C   UNL     1      -3.940  12.598  22.163  0.00  0.00    +0.000 C 
ATOM     16  N   UNL     1      -3.711  13.858  22.901  0.00  0.00    +0.000 NA
ATOM     17  C   UNL     1      -4.606  14.889  22.355  0.00  0.00    +0.000 C 
ATOM     18  C   UNL     1      -4.483  15.015  20.831  0.00  0.00    +0.000 C 
ATOM     19  O   UNL     1      -4.701  13.768  20.161  0.00  0.00    +0.000 OA
ATOM     20  H   UNL     1      -2.740  14.137  22.741  0.00  0.00    +0.000 HD
ENDBRANCH  12  14
BRANCH  11  21
ATOM     21  C   UNL     1      -3.024  11.422  18.153  0.00  0.00    +0.000 C 
ATOM     22  C   UNL     1      -2.698  10.997  16.741  0.00  0.00    +0.000 C 
ATOM     23  C   UNL     1      -3.012   9.960  17.773  0.00  0.00    +0.000 C 
ENDBRANCH  11  21
ENDBRANCH   9  11
ENDBRANCH   3   9
BRANCH   5  24
ATOM     24  C   UNL     1       2.420   7.970  17.896  0.00  0.00    +0.000 C 
BRANCH  24  25
ATOM     25  C   UNL     1       3.090   6.794  18.622  0.00  0.00    +0.000 C 
BRANCH  25  26
ATOM     26  C   UNL     1       3.801   5.829  17.673  0.00  0.00    +0.000 C 
BRANCH  26  27
ATOM     27  N   UNL     1       5.232   6.042  17.670  0.00  0.00    +0.000 N 
ATOM     28  C   UNL     1       6.086   5.290  18.416  0.00  0.00    +0.000 C 
ATOM     29  O   UNL     1       5.755   4.386  19.173  0.00  0.00    +0.000 OA
ATOM     30  H   UNL     1       5.647   6.715  17.045  0.00  0.00    +0.000 HD
BRANCH  28  31
ATOM     31  O   UNL     1       7.360   5.700  18.199  0.00  0.00    +0.000 OA
ATOM     32  C   UNL     1       7.455   7.034  17.695  0.00  0.00    +0.000 C 
ENDBRANCH  28  31
ENDBRANCH  26  27
ENDBRANCH  25  26
ENDBRANCH  24  25
ENDBRANCH   5  24
TORSDOF 10
ENDMDL
MODEL 5
REMARK VINA RESULT:      -6.8      3.103     10.203
REMARK  Name = 
REMARK  13 active torsions:
REMARK  status: ('A' for Active; 'I' for Inactive)
REMARK    1  A    between atoms: C_1  and  C_2
REMARK    2  A    between atoms: C_2  and  C_3
REMARK    3  A    between atoms: C_5  and  C_6
REMARK    4  A    between atoms: C_6  and  C_7
REMARK    5  A    between atoms: C_6  and  N_8
REMARK    6  A    between atoms: N_8  and  C_17
REMARK    7  A    between atoms: C_9  and  C_11
REMARK    8  A    between atoms: C_21  and  C_22
REMARK    9  A    between atoms: C_22  and  C_23
REMARK   10  A    between atoms: C_23  and  C_24
REMARK   11  A    between atoms: C_24  and  N_25
REMARK   12  A    between atoms: C_26  and  O_28
REMARK   13  A    between atoms: O_28  and  C_29
REMARK                            x       y       z     vdW  Elec       q    Type
REMARK                         _______ _______ _______ _____ _____    ______ ____
ROOT
ATOM      1  C   UNL     1       1.860   8.208  18.837  0.00  0.00    +0.000 A 
ATOM      2  C   UNL     1       2.174   6.849  18.800  0.00  0.00    +0.000 A 
ATOM      3  C   UNL     1       2.028   6.080  19.957  0.00  0.00    +0.000 A 
ATOM      4  C   UNL     1       1.568   6.728  21.114  0.00  0.00    +0.000 A 
ATOM      5  C   UNL     1       1.207   8.074  21.059  0.00  0.00    +0.000 A 
ATOM      6  N   UNL     1       1.369   8.816  19.943  0.00  0.00    +0.000 NA
ENDROOT
BRANCH   1   8
ATOM      7  C   UNL     1       1.953  10.561  18.005  0.00  0.00    +0.000 C 
ATOM      8  C   UNL     1       2.123   9.091  17.645  0.00  0.00    +0.000 C 
ENDBRANCH   1   8
BRANCH   3   9
ATOM      9  C   UNL     1       2.366   4.593  20.002  0.00  0.00    +0.000 C 
ATOM     10  C   UNL     1       2.390   4.062  21.441  0.00  0.00    +0.000 C 
BRANCH   9  11
ATOM     11  N   UNL     1       3.505   4.211  19.118  0.00  0.00    +0.000 N 
ATOM     12  C   UNL     1       4.719   4.923  19.131  0.00  0.00    +0.000 C 
ATOM     13  O   UNL     1       4.913   5.876  19.890  0.00  0.00    +0.000 OA
BRANCH  12  14
ATOM     14  C   UNL     1       5.822   4.522  18.087  0.00  0.00    +0.000 C 
ATOM     15  C   UNL     1       5.680   5.329  16.765  0.00  0.00    +0.000 C 
ATOM     16  N   UNL     1       6.230   6.700  16.832  0.00  0.00    +0.000 NA
ATOM     17  C   UNL     1       7.620   6.623  17.305  0.00  0.00    +0.000 C 
ATOM     18  C   UNL     1       7.746   5.824  18.609  0.00  0.00    +0.000 C 
ATOM     19  O   UNL     1       7.190   4.509  18.499  0.00  0.00    +0.000 OA
ATOM     20  H   UNL     1       5.673   7.223  17.512  0.00  0.00    +0.000 HD
ENDBRANCH  12  14
BRANCH  11  21
ATOM     21  C   UNL     1       3.255   3.159  18.143  0.00  0.00    +0.000 C 
ATOM     22  C   UNL     1       1.893   2.510  18.099  0.00  0.00    +0.000 C 
ATOM     23  C   UNL     1       2.386   3.277  16.913  0.00  0.00    +0.000 C 
ENDBRANCH  11  21
ENDBRANCH   9  11
ENDBRANCH   3   9
BRANCH   5  24
ATOM     24  C   UNL     1       0.650   8.765  22.282  0.00  0.00    +0.000 C 
BRANCH  24  25
ATOM     25  C   UNL     1       0.139  10.193  22.039  0.00  0.00    +0.000 C 
BRANCH  25  26
ATOM     26  C   UNL     1      -0.966  10.609  23.010  0.00  0.00    +0.000 C 
BRANCH  26  27
ATOM     27  N   UNL     1      -1.467  11.933  22.711  0.00  0.00    +0.000 N 
ATOM     28  C   UNL     1      -2.659  12.388  23.182  0.00  0.00    +0.000 C 
ATOM     29  O   UNL     1      -3.438  11.746  23.874  0.00  0.00    +0.000 OA
ATOM     30  H   UNL     1      -0.899  12.591  22.200  0.00  0.00    +0.000 HD
BRANCH  28  31
ATOM     31  O   UNL     1      -2.857  13.662  22.760  0.00  0.00    +0.000 OA
ATOM     32  C   UNL     1      -3.450  14.508  23.747  0.00  0.00    +0.000 C 
ENDBRANCH  28  31
ENDBRANCH  26  27
ENDBRANCH  25  26
ENDBRANCH  24  25
ENDBRANCH   5  24
TORSDOF 10
ENDMDL
MODEL 6
REMARK VINA RESULT:      -6.8      1.403      1.570
REMARK  Name = 
REMARK  13 active torsions:
REMARK  status: ('A' for Active; 'I' for Inactive)
REMARK    1  A    between atoms: C_1  and  C_2
REMARK    2  A    between atoms: C_2  and  C_3
REMARK    3  A    between atoms: C_5  and  C_6
REMARK    4  A    between atoms: C_6  and  C_7
REMARK    5  A    between atoms: C_6  and  N_8
REMARK    6  A    between atoms: N_8  and  C_17
REMARK    7  A    between atoms: C_9  and  C_11
REMARK    8  A    between atoms: C_21  and  C_22
REMARK    9  A    between atoms: C_22  and  C_23
REMARK   10  A    between atoms: C_23  and  C_24
REMARK   11  A    between atoms: C_24  and  N_25
REMARK   12  A    between atoms: C_26  and  O_28
REMARK   13  A    between atoms: O_28  and  C_29
REMARK                            x       y       z     vdW  Elec       q    Type
REMARK                         _______ _______ _______ _____ _____    ______ ____
ROOT
ATOM      1  C   UNL     1       0.273   9.569  21.009  0.00  0.00    +0.000 A 
ATOM      2  C   UNL     1      -0.487  10.585  20.428  0.00  0.00    +0.000 A 
ATOM      3  C   UNL     1      -0.308  10.888  19.077  0.00  0.00    +0.000 A 
ATOM      4  C   UNL     1       0.645  10.142  18.365  0.00  0.00    +0.000 A 
ATOM      5  C   UNL     1       1.318   9.095  18.993  0.00  0.00    +0.000 A 
ATOM      6  N   UNL     1       1.154   8.820  20.305  0.00  0.00    +0.000 NA
ENDROOT
BRANCH   1   8
ATOM      7  C   UNL     1      -0.812  10.224  23.161  0.00  0.00    +0.000 C 
ATOM      8  C   UNL     1       0.195   9.301  22.490  0.00  0.00    +0.000 C 
ENDBRANCH   1   8
BRANCH   3   9
ATOM      9  C   UNL     1      -1.088  11.994  18.374  0.00  0.00    +0.000 C 
ATOM     10  C   UNL     1      -0.337  13.331  18.418  0.00  0.00    +0.000 C 
BRANCH   9  11
ATOM     11  N   UNL     1      -2.538  12.018  18.722  0.00  0.00    +0.000 N 
ATOM     12  C   UNL     1      -3.010  12.684  19.868  0.00  0.00    +0.000 C 
ATOM     13  O   UNL     1      -2.258  13.305  20.623  0.00  0.00    +0.000 OA
BRANCH  12  14
ATOM     14  C   UNL     1      -4.536  12.561  20.218  0.00  0.00    +0.000 C 
ATOM     15  C   UNL     1      -4.776  12.585  21.755  0.00  0.00    +0.000 C 
ATOM     16  N   UNL     1      -4.739  13.938  22.351  0.00  0.00    +0.000 NA
ATOM     17  C   UNL     1      -5.678  14.797  21.616  0.00  0.00    +0.000 C 
ATOM     18  C   UNL     1      -5.432  14.764  20.102  0.00  0.00    +0.000 C 
ATOM     19  O   UNL     1      -5.465  13.434  19.573  0.00  0.00    +0.000 OA
ATOM     20  H   UNL     1      -3.790  14.301  22.234  0.00  0.00    +0.000 HD
ENDBRANCH  12  14
BRANCH  11  21
ATOM     21  C   UNL     1      -3.423  11.203  17.902  0.00  0.00    +0.000 C 
ATOM     22  C   UNL     1      -2.901  10.633  16.605  0.00  0.00    +0.000 C 
ATOM     23  C   UNL     1      -3.323   9.709  17.703  0.00  0.00    +0.000 C 
ENDBRANCH  11  21
ENDBRANCH   9  11
ENDBRANCH   3   9
BRANCH   5  24
ATOM     24  C   UNL     1       2.298   8.245  18.219  0.00  0.00    +0.000 C 
BRANCH  24  25
ATOM     25  C   UNL     1       2.690   6.927  18.903  0.00  0.00    +0.000 C 
BRANCH  25  26
ATOM     26  C   UNL     1       2.527   5.707  17.996  0.00  0.00    +0.000 C 
BRANCH  26  27
ATOM     27  N   UNL     1       3.728   4.900  17.968  0.00  0.00    +0.000 N 
ATOM     28  C   UNL     1       4.765   5.159  17.127  0.00  0.00    +0.000 C 
ATOM     29  O   UNL     1       4.798   6.064  16.302  0.00  0.00    +0.000 OA
ATOM     30  H   UNL     1       3.861   4.158  18.638  0.00  0.00    +0.000 HD
BRANCH  28  31
ATOM     31  O   UNL     1       5.756   4.257  17.337  0.00  0.00    +0.000 OA
ATOM     32  C   UNL     1       6.998   4.617  16.729  0.00  0.00    +0.000 C 
ENDBRANCH  28  31
ENDBRANCH  26  27
ENDBRANCH  25  26
ENDBRANCH  24  25
ENDBRANCH   5  24
TORSDOF 10
ENDMDL
MODEL 7
REMARK VINA RESULT:      -6.7      2.474      4.576
REMARK  Name = 
REMARK  13 active torsions:
REMARK  status: ('A' for Active; 'I' for Inactive)
REMARK    1  A    between atoms: C_1  and  C_2
REMARK    2  A    between atoms: C_2  and  C_3
REMARK    3  A    between atoms: C_5  and  C_6
REMARK    4  A    between atoms: C_6  and  C_7
REMARK    5  A    between atoms: C_6  and  N_8
REMARK    6  A    between atoms: N_8  and  C_17
REMARK    7  A    between atoms: C_9  and  C_11
REMARK    8  A    between atoms: C_21  and  C_22
REMARK    9  A    between atoms: C_22  and  C_23
REMARK   10  A    between atoms: C_23  and  C_24
REMARK   11  A    between atoms: C_24  and  N_25
REMARK   12  A    between atoms: C_26  and  O_28
REMARK   13  A    between atoms: O_28  and  C_29
REMARK                            x       y       z     vdW  Elec       q    Type
REMARK                         _______ _______ _______ _____ _____    ______ ____
ROOT
ATOM      1  C   UNL     1       2.528   7.793  18.519  0.00  0.00    +0.000 A 
ATOM      2  C   UNL     1       1.967   8.937  19.087  0.00  0.00    +0.000 A 
ATOM      3  C   UNL     1       1.286   8.836  20.303  0.00  0.00    +0.000 A 
ATOM      4  C   UNL     1       1.202   7.566  20.896  0.00  0.00    +0.000 A 
ATOM      5  C   UNL     1       1.848   6.480  20.306  0.00  0.00    +0.000 A 
ATOM      6  N   UNL     1       2.487   6.581  19.121  0.00  0.00    +0.000 NA
ENDROOT
BRANCH   1   8
ATOM      7  C   UNL     1       4.258   6.797  17.018  0.00  0.00    +0.000 C 
ATOM      8  C   UNL     1       3.159   7.842  17.151  0.00  0.00    +0.000 C 
ENDBRANCH   1   8
BRANCH   3   9
ATOM      9  C   UNL     1       0.631  10.036  20.978  0.00  0.00    +0.000 C 
ATOM     10  C   UNL     1      -0.138   9.624  22.240  0.00  0.00    +0.000 C 
BRANCH   9  11
ATOM     11  N   UNL     1      -0.064  10.951  20.029  0.00  0.00    +0.000 N 
ATOM     12  C   UNL     1      -1.118  10.504  19.211  0.00  0.00    +0.000 C 
ATOM     13  O   UNL     1      -1.539   9.346  19.258  0.00  0.00    +0.000 OA
BRANCH  12  14
ATOM     14  C   UNL     1      -1.715  11.507  18.160  0.00  0.00    +0.000 C 
ATOM     15  C   UNL     1      -2.146  10.781  16.854  0.00  0.00    +0.000 C 
ATOM     16  N   UNL     1      -3.450  10.091  16.949  0.00  0.00    +0.000 NA
ATOM     17  C   UNL     1      -4.455  11.054  17.421  0.00  0.00    +0.000 C 
ATOM     18  C   UNL     1      -4.017  11.764  18.709  0.00  0.00    +0.000 C 
ATOM     19  O   UNL     1      -2.745  12.407  18.573  0.00  0.00    +0.000 OA
ATOM     20  H   UNL     1      -3.353   9.341  17.638  0.00  0.00    +0.000 HD
ENDBRANCH  12  14
BRANCH  11  21
ATOM     21  C   UNL     1       0.490  12.291  19.884  0.00  0.00    +0.000 C 
ATOM     22  C   UNL     1       1.796  12.620  20.567  0.00  0.00    +0.000 C 
ATOM     23  C   UNL     1       1.709  12.664  19.074  0.00  0.00    +0.000 C 
ENDBRANCH  11  21
ENDBRANCH   9  11
ENDBRANCH   3   9
BRANCH   5  24
ATOM     24  C   UNL     1       1.818   5.123  20.970  0.00  0.00    +0.000 C 
BRANCH  24  25
ATOM     25  C   UNL     1       1.165   4.011  20.136  0.00  0.00    +0.000 C 
BRANCH  25  26
ATOM     26  C   UNL     1       2.161   2.955  19.656  0.00  0.00    +0.000 C 
BRANCH  26  27
ATOM     27  N   UNL     1       3.366   3.560  19.130  0.00  0.00    +0.000 N 
ATOM     28  C   UNL     1       4.610   3.130  19.471  0.00  0.00    +0.000 C 
ATOM     29  O   UNL     1       4.854   2.223  20.257  0.00  0.00    +0.000 OA
ATOM     30  H   UNL     1       3.310   4.278  18.425  0.00  0.00    +0.000 HD
BRANCH  28  31
ATOM     31  O   UNL     1       5.541   3.865  18.813  0.00  0.00    +0.000 OA
ATOM     32  C   UNL     1       5.835   5.113  19.442  0.00  0.00    +0.000 C 
ENDBRANCH  28  31
ENDBRANCH  26  27
ENDBRANCH  25  26
ENDBRANCH  24  25
ENDBRANCH   5  24
TORSDOF 10
ENDMDL
MODEL 8
REMARK VINA RESULT:      -6.7      3.322      4.659
REMARK  Name = 
REMARK  13 active torsions:
REMARK  status: ('A' for Active; 'I' for Inactive)
REMARK    1  A    between atoms: C_1  and  C_2
REMARK    2  A    between atoms: C_2  and  C_3
REMARK    3  A    between atoms: C_5  and  C_6
REMARK    4  A    between atoms: C_6  and  C_7
REMARK    5  A    between atoms: C_6  and  N_8
REMARK    6  A    between atoms: N_8  and  C_17
REMARK    7  A    between atoms: C_9  and  C_11
REMARK    8  A    between atoms: C_21  and  C_22
REMARK    9  A    between atoms: C_22  and  C_23
REMARK   10  A    between atoms: C_23  and  C_24
REMARK   11  A    between atoms: C_24  and  N_25
REMARK   12  A    between atoms: C_26  and  O_28
REMARK   13  A    between atoms: O_28  and  C_29
REMARK                            x       y       z     vdW  Elec       q    Type
REMARK                         _______ _______ _______ _____ _____    ______ ____
ROOT
ATOM      1  C   UNL     1       1.912   6.066  20.327  0.00  0.00    +0.000 A 
ATOM      2  C   UNL     1       1.323   7.194  20.899  0.00  0.00    +0.000 A 
ATOM      3  C   UNL     1       1.448   8.431  20.262  0.00  0.00    +0.000 A 
ATOM      4  C   UNL     1       2.172   8.472  19.061  0.00  0.00    +0.000 A 
ATOM      5  C   UNL     1       2.673   7.293  18.511  0.00  0.00    +0.000 A 
ATOM      6  N   UNL     1       2.566   6.104  19.142  0.00  0.00    +0.000 NA
ENDROOT
BRANCH   1   8
ATOM      7  C   UNL     1       0.964   3.757  20.371  0.00  0.00    +0.000 C 
ATOM      8  C   UNL     1       1.904   4.744  21.048  0.00  0.00    +0.000 C 
ENDBRANCH   1   8
BRANCH   3   9
ATOM      9  C   UNL     1       0.848   9.712  20.832  0.00  0.00    +0.000 C 
ATOM     10  C   UNL     1      -0.388   9.422  21.694  0.00  0.00    +0.000 C 
BRANCH   9  11
ATOM     11  N   UNL     1       0.737  10.816  19.836  0.00  0.00    +0.000 N 
ATOM     12  C   UNL     1       1.256  12.098  20.096  0.00  0.00    +0.000 C 
ATOM     13  O   UNL     1       1.850  12.366  21.143  0.00  0.00    +0.000 OA
BRANCH  12  14
ATOM     14  C   UNL     1       0.994  13.230  19.039  0.00  0.00    +0.000 C 
ATOM     15  C   UNL     1       0.743  14.605  19.720  0.00  0.00    +0.000 C 
ATOM     16  N   UNL     1       1.975  15.293  20.164  0.00  0.00    +0.000 NA
ATOM     17  C   UNL     1       2.896  15.384  19.022  0.00  0.00    +0.000 C 
ATOM     18  C   UNL     1       3.134  14.021  18.358  0.00  0.00    +0.000 C 
ATOM     19  O   UNL     1       1.913  13.389  17.957  0.00  0.00    +0.000 OA
ATOM     20  H   UNL     1       2.402  14.720  20.895  0.00  0.00    +0.000 HD
ENDBRANCH  12  14
BRANCH  11  21
ATOM     21  C   UNL     1      -0.053  10.547  18.643  0.00  0.00    +0.000 C 
ATOM     22  C   UNL     1      -1.450   9.998  18.800  0.00  0.00    +0.000 C 
ATOM     23  C   UNL     1      -1.250  11.342  18.174  0.00  0.00    +0.000 C 
ENDBRANCH  11  21
ENDBRANCH   9  11
ENDBRANCH   3   9
BRANCH   5  24
ATOM     24  C   UNL     1       3.399   7.317  17.185  0.00  0.00    +0.000 C 
BRANCH  24  25
ATOM     25  C   UNL     1       4.857   6.836  17.239  0.00  0.00    +0.000 C 
BRANCH  25  26
ATOM     26  C   UNL     1       5.061   5.465  16.594  0.00  0.00    +0.000 C 
BRANCH  26  27
ATOM     27  N   UNL     1       4.489   4.407  17.399  0.00  0.00    +0.000 N 
ATOM     28  C   UNL     1       5.113   3.905  18.498  0.00  0.00    +0.000 C 
ATOM     29  O   UNL     1       6.208   4.261  18.914  0.00  0.00    +0.000 OA
ATOM     30  H   UNL     1       3.562   4.062  17.205  0.00  0.00    +0.000 HD
BRANCH  28  31
ATOM     31  O   UNL     1       4.338   2.944  19.061  0.00  0.00    +0.000 OA
ATOM     32  C   UNL     1       3.544   2.223  18.117  0.00  0.00    +0.000 C 
ENDBRANCH  28  31
ENDBRANCH  26  27
ENDBRANCH  25  26
ENDBRANCH  24  25
ENDBRANCH   5  24
TORSDOF 10
ENDMDL
MODEL 9
REMARK VINA RESULT:      -6.7      2.921      4.204
REMARK  Name = 
REMARK  13 active torsions:
REMARK  status: ('A' for Active; 'I' for Inactive)
REMARK    1  A    between atoms: C_1  and  C_2
REMARK    2  A    between atoms: C_2  and  C_3
REMARK    3  A    between atoms: C_5  and  C_6
REMARK    4  A    between atoms: C_6  and  C_7
REMARK    5  A    between atoms: C_6  and  N_8
REMARK    6  A    between atoms: N_8  and  C_17
REMARK    7  A    between atoms: C_9  and  C_11
REMARK    8  A    between atoms: C_21  and  C_22
REMARK    9  A    between atoms: C_22  and  C_23
REMARK   10  A    between atoms: C_23  and  C_24
REMARK   11  A    between atoms: C_24  and  N_25
REMARK   12  A    between atoms: C_26  and  O_28
REMARK   13  A    between atoms: O_28  and  C_29
REMARK                            x       y       z     vdW  Elec       q    Type
REMARK                         _______ _______ _______ _____ _____    ______ ____
ROOT
ATOM      1  C   UNL     1       0.665   9.407  20.968  0.00  0.00    +0.000 A 
ATOM      2  C   UNL     1      -0.368  10.299  20.678  0.00  0.00    +0.000 A 
ATOM      3  C   UNL     1      -0.577  10.699  19.356  0.00  0.00    +0.000 A 
ATOM      4  C   UNL     1       0.279  10.173  18.376  0.00  0.00    +0.000 A 
ATOM      5  C   UNL     1       1.245   9.231  18.729  0.00  0.00    +0.000 A 
ATOM      6  N   UNL     1       1.454   8.864  20.011  0.00  0.00    +0.000 NA
ENDROOT
BRANCH   1   8
ATOM      7  C   UNL     1      -0.077   9.557  23.348  0.00  0.00    +0.000 C 
ATOM      8  C   UNL     1       0.997   9.052  22.395  0.00  0.00    +0.000 C 
ENDBRANCH   1   8
BRANCH   3   9
ATOM      9  C   UNL     1      -1.673  11.683  18.960  0.00  0.00    +0.000 C 
ATOM     10  C   UNL     1      -2.031  11.563  17.473  0.00  0.00    +0.000 C 
BRANCH   9  11
ATOM     11  N   UNL     1      -1.467  13.057  19.500  0.00  0.00    +0.000 N 
ATOM     12  C   UNL     1      -0.371  13.847  19.106  0.00  0.00    +0.000 C 
ATOM     13  O   UNL     1       0.454  13.457  18.276  0.00  0.00    +0.000 OA
BRANCH  12  14
ATOM     14  C   UNL     1      -0.170  15.236  19.810  0.00  0.00    +0.000 C 
ATOM     15  C   UNL     1       1.333  15.629  19.885  0.00  0.00    +0.000 C 
ATOM     16  N   UNL     1       1.877  16.180  18.625  0.00  0.00    +0.000 NA
ATOM     17  C   UNL     1       1.019  17.293  18.194  0.00  0.00    +0.000 C 
ATOM     18  C   UNL     1      -0.461  16.893  18.125  0.00  0.00    +0.000 C 
ATOM     19  O   UNL     1      -0.938  16.355  19.363  0.00  0.00    +0.000 OA
ATOM     20  H   UNL     1       1.841  15.437  17.923  0.00  0.00    +0.000 HD
ENDBRANCH  12  14
BRANCH  11  21
ATOM     21  C   UNL     1      -2.370  13.490  20.557  0.00  0.00    +0.000 C 
ATOM     22  C   UNL     1      -3.452  12.547  21.027  0.00  0.00    +0.000 C 
ATOM     23  C   UNL     1      -2.381  12.978  21.979  0.00  0.00    +0.000 C 
ENDBRANCH  11  21
ENDBRANCH   9  11
ENDBRANCH   3   9
BRANCH   5  24
ATOM     24  C   UNL     1       2.128   8.611  17.672  0.00  0.00    +0.000 C 
BRANCH  24  25
ATOM     25  C   UNL     1       3.048   7.490  18.177  0.00  0.00    +0.000 C 
BRANCH  25  26
ATOM     26  C   UNL     1       3.903   6.869  17.071  0.00  0.00    +0.000 C 
BRANCH  26  27
ATOM     27  N   UNL     1       5.308   6.878  17.416  0.00  0.00    +0.000 N 
ATOM     28  C   UNL     1       6.270   6.401  16.581  0.00  0.00    +0.000 C 
ATOM     29  O   UNL     1       6.067   5.903  15.481  0.00  0.00    +0.000 OA
ATOM     30  H   UNL     1       5.622   7.315  18.268  0.00  0.00    +0.000 HD
BRANCH  28  31
ATOM     31  O   UNL     1       7.488   6.555  17.156  0.00  0.00    +0.000 OA
ATOM     32  C   UNL     1       7.741   7.884  17.616  0.00  0.00    +0.000 C 
ENDBRANCH  28  31
ENDBRANCH  26  27
ENDBRANCH  25  26
ENDBRANCH  24  25
ENDBRANCH   5  24
TORSDOF 10
ENDMDL
