MODEL 1
REMARK VINA RESULT:      -8.8      0.000      0.000
REMARK  Name = 
REMARK  4 active torsions:
REMARK  status: ('A' for Active; 'I' for Inactive)
REMARK    1  A    between atoms: C_2  and  C_3
REMARK    2  A    between atoms: C_3  and  C_4
REMARK    3  A    between atoms: N_6  and  C_7
REMARK    4  A    between atoms: C_7  and  C_8
REMARK                            x       y       z     vdW  Elec       q    Type
REMARK                         _______ _______ _______ _____ _____    ______ ____
ROOT
ATOM      1  C   UNL     1       2.198   6.360  19.808  0.00  0.00    +0.000 A 
ATOM      2  C   UNL     1       3.120   6.684  18.835  0.00  0.00    +0.000 A 
ATOM      3  N   UNL     1       3.376   5.562  18.088  0.00  0.00    +0.000 N 
ATOM      4  C   UNL     1       2.576   4.519  18.511  0.00  0.00    +0.000 A 
ATOM      5  C   UNL     1       2.438   3.206  18.035  0.00  0.00    +0.000 A 
ATOM      6  C   UNL     1       1.532   2.359  18.683  0.00  0.00    +0.000 A 
ATOM      7  C   UNL     1       0.799   2.800  19.774  0.00  0.00    +0.000 A 
ATOM      8  C   UNL     1       0.943   4.110  20.247  0.00  0.00    +0.000 A 
ATOM      9  C   UNL     1       1.838   4.990  19.601  0.00  0.00    +0.000 A 
ENDROOT
BRANCH   1  10
ATOM     10  C   UNL     1       1.664   7.282  20.853  0.00  0.00    +0.000 C 
BRANCH  10  12
ATOM     11  O   UNL     1       1.715   9.214  19.377  0.00  0.00    +0.000 OA
ATOM     12  C   UNL     1       1.163   8.614  20.301  0.00  0.00    +0.000 C 
ATOM     13  N   UNL     1      -0.019   9.093  20.866  0.00  0.00    +0.000 N 
ATOM     14  C   UNL     1      -0.669  10.270  20.289  0.00  0.00    +0.000 C 
ATOM     15  C   UNL     1      -0.551  11.465  21.239  0.00  0.00    +0.000 C 
ATOM     16  O   UNL     1      -1.067  11.139  22.544  0.00  0.00    +0.000 OA
ATOM     17  C   UNL     1      -0.350  10.027  23.110  0.00  0.00    +0.000 C 
ATOM     18  C   UNL     1      -0.477   8.781  22.222  0.00  0.00    +0.000 C 
ENDBRANCH  10  12
ENDBRANCH   1  10
BRANCH   3  19
ATOM     19  C   UNL     1       4.381   5.504  17.028  0.00  0.00    +0.000 C 
BRANCH  19  20
ATOM     20  C   UNL     1       5.739   5.914  17.541  0.00  0.00    +0.000 A 
ATOM     21  C   UNL     1       6.347   5.218  18.597  0.00  0.00    +0.000 A 
ATOM     22  C   UNL     1       7.527   5.688  19.170  0.00  0.00    +0.000 A 
ATOM     23  C   UNL     1       8.132   6.838  18.671  0.00  0.00    +0.000 A 
ATOM     24  C   UNL     1       7.578   7.498  17.576  0.00  0.00    +0.000 A 
ATOM     25  C   UNL     1       6.389   7.036  17.009  0.00  0.00    +0.000 A 
ENDBRANCH  19  20
ENDBRANCH   3  19
TORSDOF 4
ENDMDL
MODEL 2
REMARK VINA RESULT:      -8.2      1.785      2.338
REMARK  Name = 
REMARK  4 active torsions:
REMARK  status: ('A' for Active; 'I' for Inactive)
REMARK    1  A    between atoms: C_2  and  C_3
REMARK    2  A    between atoms: C_3  and  C_4
REMARK    3  A    between atoms: N_6  and  C_7
REMARK    4  A    between atoms: C_7  and  C_8
REMARK                            x       y       z     vdW  Elec       q    Type
REMARK                         _______ _______ _______ _____ _____    ______ ____
ROOT
ATOM      1  C   UNL     1       2.752   5.985  19.792  0.00  0.00    +0.000 A 
ATOM      2  C   UNL     1       4.051   5.915  19.335  0.00  0.00    +0.000 A 
ATOM      3  N   UNL     1       4.333   4.609  19.025  0.00  0.00    +0.000 N 
ATOM      4  C   UNL     1       3.208   3.827  19.201  0.00  0.00    +0.000 A 
ATOM      5  C   UNL     1       2.984   2.461  18.971  0.00  0.00    +0.000 A 
ATOM      6  C   UNL     1       1.717   1.941  19.254  0.00  0.00    +0.000 A 
ATOM      7  C   UNL     1       0.710   2.751  19.758  0.00  0.00    +0.000 A 
ATOM      8  C   UNL     1       0.940   4.112  19.989  0.00  0.00    +0.000 A 
ATOM      9  C   UNL     1       2.206   4.666  19.698  0.00  0.00    +0.000 A 
ENDROOT
BRANCH   1  10
ATOM     10  C   UNL     1       2.052   7.217  20.263  0.00  0.00    +0.000 C 
BRANCH  10  12
ATOM     11  O   UNL     1       2.532   8.289  18.133  0.00  0.00    +0.000 OA
ATOM     12  C   UNL     1       1.884   8.281  19.182  0.00  0.00    +0.000 C 
ATOM     13  N   UNL     1       0.886   9.227  19.418  0.00  0.00    +0.000 N 
ATOM     14  C   UNL     1       0.534  10.183  18.368  0.00  0.00    +0.000 C 
ATOM     15  C   UNL     1       0.991  11.592  18.752  0.00  0.00    +0.000 C 
ATOM     16  O   UNL     1       0.462  11.973  20.037  0.00  0.00    +0.000 OA
ATOM     17  C   UNL     1       0.896  11.054  21.056  0.00  0.00    +0.000 C 
ATOM     18  C   UNL     1       0.420   9.627  20.749  0.00  0.00    +0.000 C 
ENDBRANCH  10  12
ENDBRANCH   1  10
BRANCH   3  19
ATOM     19  C   UNL     1       5.652   4.140  18.605  0.00  0.00    +0.000 C 
BRANCH  19  20
ATOM     20  C   UNL     1       5.891   4.423  17.143  0.00  0.00    +0.000 A 
ATOM     21  C   UNL     1       4.891   4.172  16.191  0.00  0.00    +0.000 A 
ATOM     22  C   UNL     1       5.162   4.288  14.829  0.00  0.00    +0.000 A 
ATOM     23  C   UNL     1       6.425   4.693  14.404  0.00  0.00    +0.000 A 
ATOM     24  C   UNL     1       7.405   5.016  15.340  0.00  0.00    +0.000 A 
ATOM     25  C   UNL     1       7.139   4.887  16.704  0.00  0.00    +0.000 A 
ENDBRANCH  19  20
ENDBRANCH   3  19
TORSDOF 4
ENDMDL
MODEL 3
REMARK VINA RESULT:      -8.2      2.232      3.031
REMARK  Name = 
REMARK  4 active torsions:
REMARK  status: ('A' for Active; 'I' for Inactive)
REMARK    1  A    between atoms: C_2  and  C_3
REMARK    2  A    between atoms: C_3  and  C_4
REMARK    3  A    between atoms: N_6  and  C_7
REMARK    4  A    between atoms: C_7  and  C_8
REMARK                            x       y       z     vdW  Elec       q    Type
REMARK                         _______ _______ _______ _____ _____    ______ ____
ROOT
ATOM      1  C   UNL     1       3.096   6.158  17.997  0.00  0.00    +0.000 A 
ATOM      2  C   UNL     1       4.395   6.163  17.535  0.00  0.00    +0.000 A 
ATOM      3  N   UNL     1       4.806   4.864  17.377  0.00  0.00    +0.000 N 
ATOM      4  C   UNL     1       3.764   4.001  17.658  0.00  0.00    +0.000 A 
ATOM      5  C   UNL     1       3.677   2.602  17.593  0.00  0.00    +0.000 A 
ATOM      6  C   UNL     1       2.467   1.997  17.951  0.00  0.00    +0.000 A 
ATOM      7  C   UNL     1       1.386   2.757  18.370  0.00  0.00    +0.000 A 
ATOM      8  C   UNL     1       1.479   4.152  18.436  0.00  0.00    +0.000 A 
ATOM      9  C   UNL     1       2.684   4.790  18.065  0.00  0.00    +0.000 A 
ENDROOT
BRANCH   1  10
ATOM     10  C   UNL     1       2.277   7.362  18.329  0.00  0.00    +0.000 C 
BRANCH  10  12
ATOM     11  O   UNL     1       2.000   6.535  20.599  0.00  0.00    +0.000 OA
ATOM     12  C   UNL     1       1.925   7.478  19.809  0.00  0.00    +0.000 C 
ATOM     13  N   UNL     1       1.570   8.756  20.244  0.00  0.00    +0.000 N 
ATOM     14  C   UNL     1       1.381   9.004  21.674  0.00  0.00    +0.000 C 
ATOM     15  C   UNL     1      -0.098   9.246  21.983  0.00  0.00    +0.000 C 
ATOM     16  O   UNL     1      -0.628  10.310  21.168  0.00  0.00    +0.000 OA
ATOM     17  C   UNL     1      -0.495   9.993  19.771  0.00  0.00    +0.000 C 
ATOM     18  C   UNL     1       0.978   9.789  19.391  0.00  0.00    +0.000 C 
ENDBRANCH  10  12
ENDBRANCH   1  10
BRANCH   3  19
ATOM     19  C   UNL     1       6.164   4.481  16.998  0.00  0.00    +0.000 C 
BRANCH  19  20
ATOM     20  C   UNL     1       6.338   4.501  15.500  0.00  0.00    +0.000 A 
ATOM     21  C   UNL     1       5.470   3.777  14.667  0.00  0.00    +0.000 A 
ATOM     22  C   UNL     1       5.722   3.672  13.300  0.00  0.00    +0.000 A 
ATOM     23  C   UNL     1       6.821   4.319  12.744  0.00  0.00    +0.000 A 
ATOM     24  C   UNL     1       7.650   5.101  13.547  0.00  0.00    +0.000 A 
ATOM     25  C   UNL     1       7.407   5.197  14.918  0.00  0.00    +0.000 A 
ENDBRANCH  19  20
ENDBRANCH   3  19
TORSDOF 4
ENDMDL
MODEL 4
REMARK VINA RESULT:      -8.0      1.756      2.549
REMARK  Name = 
REMARK  4 active torsions:
REMARK  status: ('A' for Active; 'I' for Inactive)
REMARK    1  A    between atoms: C_2  and  C_3
REMARK    2  A    between atoms: C_3  and  C_4
REMARK    3  A    between atoms: N_6  and  C_7
REMARK    4  A    between atoms: C_7  and  C_8
REMARK                            x       y       z     vdW  Elec       q    Type
REMARK                         _______ _______ _______ _____ _____    ______ ____
ROOT
ATOM      1  C   UNL     1       2.609   6.488  18.962  0.00  0.00    +0.000 A 
ATOM      2  C   UNL     1       3.902   6.358  18.500  0.00  0.00    +0.000 A 
ATOM      3  N   UNL     1       4.391   5.145  18.914  0.00  0.00    +0.000 N 
ATOM      4  C   UNL     1       3.408   4.441  19.581  0.00  0.00    +0.000 A 
ATOM      5  C   UNL     1       3.408   3.154  20.140  0.00  0.00    +0.000 A 
ATOM      6  C   UNL     1       2.242   2.704  20.769  0.00  0.00    +0.000 A 
ATOM      7  C   UNL     1       1.119   3.513  20.849  0.00  0.00    +0.000 A 
ATOM      8  C   UNL     1       1.125   4.798  20.293  0.00  0.00    +0.000 A 
ATOM      9  C   UNL     1       2.284   5.270  19.638  0.00  0.00    +0.000 A 
ENDROOT
BRANCH   1  10
ATOM     10  C   UNL     1       1.719   7.670  18.759  0.00  0.00    +0.000 C 
BRANCH  10  12
ATOM     11  O   UNL     1       1.694   8.042  21.163  0.00  0.00    +0.000 OA
ATOM     12  C   UNL     1       1.463   8.473  20.031  0.00  0.00    +0.000 C 
ATOM     13  N   UNL     1       1.009   9.778  19.837  0.00  0.00    +0.000 N 
ATOM     14  C   UNL     1       0.897  10.681  20.983  0.00  0.00    +0.000 C 
ATOM     15  C   UNL     1      -0.573  10.958  21.304  0.00  0.00    +0.000 C 
ATOM     16  O   UNL     1      -1.269  11.457  20.146  0.00  0.00    +0.000 OA
ATOM     17  C   UNL     1      -1.204  10.507  19.067  0.00  0.00    +0.000 C 
ATOM     18  C   UNL     1       0.252  10.228  18.666  0.00  0.00    +0.000 C 
ENDBRANCH  10  12
ENDBRANCH   1  10
BRANCH   3  19
ATOM     19  C   UNL     1       5.768   4.707  18.695  0.00  0.00    +0.000 C 
BRANCH  19  20
ATOM     20  C   UNL     1       6.057   4.534  17.224  0.00  0.00    +0.000 A 
ATOM     21  C   UNL     1       7.240   5.037  16.662  0.00  0.00    +0.000 A 
ATOM     22  C   UNL     1       7.436   5.012  15.282  0.00  0.00    +0.000 A 
ATOM     23  C   UNL     1       6.469   4.451  14.453  0.00  0.00    +0.000 A 
ATOM     24  C   UNL     1       5.323   3.882  15.004  0.00  0.00    +0.000 A 
ATOM     25  C   UNL     1       5.119   3.918  16.384  0.00  0.00    +0.000 A 
ENDBRANCH  19  20
ENDBRANCH   3  19
TORSDOF 4
ENDMDL
MODEL 5
REMARK VINA RESULT:      -8.0      2.087      2.931
REMARK  Name = 
REMARK  4 active torsions:
REMARK  status: ('A' for Active; 'I' for Inactive)
REMARK    1  A    between atoms: C_2  and  C_3
REMARK    2  A    between atoms: C_3  and  C_4
REMARK    3  A    between atoms: N_6  and  C_7
REMARK    4  A    between atoms: C_7  and  C_8
REMARK                            x       y       z     vdW  Elec       q    Type
REMARK                         _______ _______ _______ _____ _____    ______ ____
ROOT
ATOM      1  C   UNL     1       3.038   6.082  18.216  0.00  0.00    +0.000 A 
ATOM      2  C   UNL     1       4.365   6.091  17.840  0.00  0.00    +0.000 A 
ATOM      3  N   UNL     1       4.784   4.793  17.693  0.00  0.00    +0.000 N 
ATOM      4  C   UNL     1       3.725   3.928  17.894  0.00  0.00    +0.000 A 
ATOM      5  C   UNL     1       3.642   2.530  17.807  0.00  0.00    +0.000 A 
ATOM      6  C   UNL     1       2.411   1.922  18.077  0.00  0.00    +0.000 A 
ATOM      7  C   UNL     1       1.305   2.679  18.434  0.00  0.00    +0.000 A 
ATOM      8  C   UNL     1       1.395   4.073  18.524  0.00  0.00    +0.000 A 
ATOM      9  C   UNL     1       2.621   4.714  18.240  0.00  0.00    +0.000 A 
ENDROOT
BRANCH   1  10
ATOM     10  C   UNL     1       2.200   7.283  18.509  0.00  0.00    +0.000 C 
BRANCH  10  12
ATOM     11  O   UNL     1       1.836   6.486  20.777  0.00  0.00    +0.000 OA
ATOM     12  C   UNL     1       1.820   7.425  19.980  0.00  0.00    +0.000 C 
ATOM     13  N   UNL     1       1.514   8.720  20.399  0.00  0.00    +0.000 N 
ATOM     14  C   UNL     1       1.305   8.987  21.823  0.00  0.00    +0.000 C 
ATOM     15  C   UNL     1      -0.169   9.297  22.097  0.00  0.00    +0.000 C 
ATOM     16  O   UNL     1      -0.632  10.378  21.264  0.00  0.00    +0.000 OA
ATOM     17  C   UNL     1      -0.482  10.046  19.872  0.00  0.00    +0.000 C 
ATOM     18  C   UNL     1       0.989   9.773  19.527  0.00  0.00    +0.000 C 
ENDBRANCH  10  12
ENDBRANCH   1  10
BRANCH   3  19
ATOM     19  C   UNL     1       6.163   4.413  17.398  0.00  0.00    +0.000 C 
BRANCH  19  20
ATOM     20  C   UNL     1       6.414   4.382  15.911  0.00  0.00    +0.000 A 
ATOM     21  C   UNL     1       7.451   5.138  15.342  0.00  0.00    +0.000 A 
ATOM     22  C   UNL     1       7.586   5.228  13.958  0.00  0.00    +0.000 A 
ATOM     23  C   UNL     1       6.711   4.535  13.127  0.00  0.00    +0.000 A 
ATOM     24  C   UNL     1       5.722   3.723  13.679  0.00  0.00    +0.000 A 
ATOM     25  C   UNL     1       5.577   3.641  15.065  0.00  0.00    +0.000 A 
ENDBRANCH  19  20
ENDBRANCH   3  19
TORSDOF 4
ENDMDL
MODEL 6
REMARK VINA RESULT:      -7.9      1.334      2.015
REMARK  Name = 
REMARK  4 active torsions:
REMARK  status: ('A' for Active; 'I' for Inactive)
REMARK    1  A    between atoms: C_2  and  C_3
REMARK    2  A    between atoms: C_3  and  C_4
REMARK    3  A    between atoms: N_6  and  C_7
REMARK    4  A    between atoms: C_7  and  C_8
REMARK                            x       y       z     vdW  Elec       q    Type
REMARK                         _______ _______ _______ _____ _____    ______ ____
ROOT
ATOM      1  C   UNL     1       2.292   5.625  20.153  0.00  0.00    +0.000 A 
ATOM      2  C   UNL     1       3.612   5.882  19.848  0.00  0.00    +0.000 A 
ATOM      3  N   UNL     1       4.124   4.797  19.183  0.00  0.00    +0.000 N 
ATOM      4  C   UNL     1       3.133   3.856  18.979  0.00  0.00    +0.000 A 
ATOM      5  C   UNL     1       3.151   2.620  18.314  0.00  0.00    +0.000 A 
ATOM      6  C   UNL     1       1.971   1.871  18.276  0.00  0.00    +0.000 A 
ATOM      7  C   UNL     1       0.814   2.331  18.889  0.00  0.00    +0.000 A 
ATOM      8  C   UNL     1       0.803   3.563  19.554  0.00  0.00    +0.000 A 
ATOM      9  C   UNL     1       1.977   4.346  19.594  0.00  0.00    +0.000 A 
ENDROOT
BRANCH   1  10
ATOM     10  C   UNL     1       1.371   6.532  20.899  0.00  0.00    +0.000 C 
BRANCH  10  12
ATOM     11  O   UNL     1       2.089   8.364  19.470  0.00  0.00    +0.000 OA
ATOM     12  C   UNL     1       1.327   7.954  20.348  0.00  0.00    +0.000 C 
ATOM     13  N   UNL     1       0.308   8.763  20.852  0.00  0.00    +0.000 N 
ATOM     14  C   UNL     1       0.077  10.083  20.263  0.00  0.00    +0.000 C 
ATOM     15  C   UNL     1       0.486  11.185  21.243  0.00  0.00    +0.000 C 
ATOM     16  O   UNL     1      -0.184  11.025  22.508  0.00  0.00    +0.000 OA
ATOM     17  C   UNL     1       0.131   9.748  23.092  0.00  0.00    +0.000 C 
ATOM     18  C   UNL     1      -0.306   8.599  22.172  0.00  0.00    +0.000 C 
ENDBRANCH  10  12
ENDBRANCH   1  10
BRANCH   3  19
ATOM     19  C   UNL     1       5.526   4.671  18.791  0.00  0.00    +0.000 C 
BRANCH  19  20
ATOM     20  C   UNL     1       5.701   4.903  17.311  0.00  0.00    +0.000 A 
ATOM     21  C   UNL     1       5.278   6.104  16.718  0.00  0.00    +0.000 A 
ATOM     22  C   UNL     1       5.300   6.257  15.333  0.00  0.00    +0.000 A 
ATOM     23  C   UNL     1       5.778   5.228  14.527  0.00  0.00    +0.000 A 
ATOM     24  C   UNL     1       6.268   4.059  15.107  0.00  0.00    +0.000 A 
ATOM     25  C   UNL     1       6.236   3.898  16.493  0.00  0.00    +0.000 A 
ENDBRANCH  19  20
ENDBRANCH   3  19
TORSDOF 4
ENDMDL
MODEL 7
REMARK VINA RESULT:      -7.9      1.231      1.752
REMARK  Name = 
REMARK  4 active torsions:
REMARK  status: ('A' for Active; 'I' for Inactive)
REMARK    1  A    between atoms: C_2  and  C_3
REMARK    2  A    between atoms: C_3  and  C_4
REMARK    3  A    between atoms: N_6  and  C_7
REMARK    4  A    between atoms: C_7  and  C_8
REMARK                            x       y       z     vdW  Elec       q    Type
REMARK                         _______ _______ _______ _____ _____    ______ ____
ROOT
ATOM      1  C   UNL     1       2.639   6.214  18.135  0.00  0.00    +0.000 A 
ATOM      2  C   UNL     1       3.888   6.337  17.562  0.00  0.00    +0.000 A 
ATOM      3  N   UNL     1       4.385   5.080  17.326  0.00  0.00    +0.000 N 
ATOM      4  C   UNL     1       3.444   4.128  17.669  0.00  0.00    +0.000 A 
ATOM      5  C   UNL     1       3.463   2.728  17.567  0.00  0.00    +0.000 A 
ATOM      6  C   UNL     1       2.343   2.017  18.008  0.00  0.00    +0.000 A 
ATOM      7  C   UNL     1       1.246   2.675  18.544  0.00  0.00    +0.000 A 
ATOM      8  C   UNL     1       1.234   4.071  18.648  0.00  0.00    +0.000 A 
ATOM      9  C   UNL     1       2.345   4.815  18.194  0.00  0.00    +0.000 A 
ENDROOT
BRANCH   1  10
ATOM     10  C   UNL     1       1.761   7.337  18.575  0.00  0.00    +0.000 C 
BRANCH  10  12
ATOM     11  O   UNL     1       1.737   6.501  20.858  0.00  0.00    +0.000 OA
ATOM     12  C   UNL     1       1.629   7.459  20.090  0.00  0.00    +0.000 C 
ATOM     13  N   UNL     1       1.444   8.753  20.576  0.00  0.00    +0.000 N 
ATOM     14  C   UNL     1       1.477   8.994  22.019  0.00  0.00    +0.000 C 
ATOM     15  C   UNL     1       0.081   9.349  22.534  0.00  0.00    +0.000 C 
ATOM     16  O   UNL     1      -0.469  10.465  21.806  0.00  0.00    +0.000 OA
ATOM     17  C   UNL     1      -0.559  10.159  20.403  0.00  0.00    +0.000 C 
ATOM     18  C   UNL     1       0.825   9.844  19.819  0.00  0.00    +0.000 C 
ENDBRANCH  10  12
ENDBRANCH   1  10
BRANCH   3  19
ATOM     19  C   UNL     1       5.730   4.820  16.818  0.00  0.00    +0.000 C 
BRANCH  19  20
ATOM     20  C   UNL     1       6.737   5.758  17.437  0.00  0.00    +0.000 A 
ATOM     21  C   UNL     1       7.418   5.405  18.612  0.00  0.00    +0.000 A 
ATOM     22  C   UNL     1       8.231   6.330  19.265  0.00  0.00    +0.000 A 
ATOM     23  C   UNL     1       8.402   7.604  18.732  0.00  0.00    +0.000 A 
ATOM     24  C   UNL     1       7.789   7.944  17.527  0.00  0.00    +0.000 A 
ATOM     25  C   UNL     1       6.964   7.023  16.878  0.00  0.00    +0.000 A 
ENDBRANCH  19  20
ENDBRANCH   3  19
TORSDOF 4
ENDMDL
MODEL 8
REMARK VINA RESULT:      -7.8      1.713      4.838
REMARK  Name = 
REMARK  4 active torsions:
REMARK  status: ('A' for Active; 'I' for Inactive)
REMARK    1  A    between atoms: C_2  and  C_3
REMARK    2  A    between atoms: C_3  and  C_4
REMARK    3  A    between atoms: N_6  and  C_7
REMARK    4  A    between atoms: C_7  and  C_8
REMARK                            x       y       z     vdW  Elec       q    Type
REMARK                         _______ _______ _______ _____ _____    ______ ____
ROOT
ATOM      1  C   UNL     1       3.420   6.800  17.733  0.00  0.00    +0.000 A 
ATOM      2  C   UNL     1       2.788   5.597  17.971  0.00  0.00    +0.000 A 
ATOM      3  N   UNL     1       3.703   4.587  17.818  0.00  0.00    +0.000 N 
ATOM      4  C   UNL     1       4.952   5.115  17.556  0.00  0.00    +0.000 A 
ATOM      5  C   UNL     1       6.200   4.498  17.376  0.00  0.00    +0.000 A 
ATOM      6  C   UNL     1       7.308   5.310  17.114  0.00  0.00    +0.000 A 
ATOM      7  C   UNL     1       7.177   6.688  17.024  0.00  0.00    +0.000 A 
ATOM      8  C   UNL     1       5.930   7.298  17.201  0.00  0.00    +0.000 A 
ATOM      9  C   UNL     1       4.797   6.503  17.482  0.00  0.00    +0.000 A 
ENDROOT
BRANCH   1  10
ATOM     10  C   UNL     1       2.782   8.149  17.766  0.00  0.00    +0.000 C 
BRANCH  10  12
ATOM     11  O   UNL     1       2.162   7.753  20.084  0.00  0.00    +0.000 OA
ATOM     12  C   UNL     1       2.071   8.462  19.080  0.00  0.00    +0.000 C 
ATOM     13  N   UNL     1       1.353   9.658  19.105  0.00  0.00    +0.000 N 
ATOM     14  C   UNL     1       0.780  10.129  20.366  0.00  0.00    +0.000 C 
ATOM     15  C   UNL     1      -0.746  10.022  20.333  0.00  0.00    +0.000 C 
ATOM     16  O   UNL     1      -1.287  10.718  19.193  0.00  0.00    +0.000 OA
ATOM     17  C   UNL     1      -0.759  10.174  17.970  0.00  0.00    +0.000 C 
ATOM     18  C   UNL     1       0.770  10.301  17.925  0.00  0.00    +0.000 C 
ENDBRANCH  10  12
ENDBRANCH   1  10
BRANCH   3  19
ATOM     19  C   UNL     1       3.366   3.167  17.894  0.00  0.00    +0.000 C 
BRANCH  19  20
ATOM     20  C   UNL     1       2.662   2.842  19.188  0.00  0.00    +0.000 A 
ATOM     21  C   UNL     1       1.260   2.819  19.257  0.00  0.00    +0.000 A 
ATOM     22  C   UNL     1       0.613   2.671  20.482  0.00  0.00    +0.000 A 
ATOM     23  C   UNL     1       1.357   2.507  21.646  0.00  0.00    +0.000 A 
ATOM     24  C   UNL     1       2.748   2.455  21.583  0.00  0.00    +0.000 A 
ATOM     25  C   UNL     1       3.399   2.617  20.359  0.00  0.00    +0.000 A 
ENDBRANCH  19  20
ENDBRANCH   3  19
TORSDOF 4
ENDMDL
MODEL 9
REMARK VINA RESULT:      -7.8      1.277      1.545
REMARK  Name = 
REMARK  4 active torsions:
REMARK  status: ('A' for Active; 'I' for Inactive)
REMARK    1  A    between atoms: C_2  and  C_3
REMARK    2  A    between atoms: C_3  and  C_4
REMARK    3  A    between atoms: N_6  and  C_7
REMARK    4  A    between atoms: C_7  and  C_8
REMARK                            x       y       z     vdW  Elec       q    Type
REMARK                         _______ _______ _______ _____ _____    ______ ____
ROOT
ATOM      1  C   UNL     1       2.612   5.924  19.840  0.00  0.00    +0.000 A 
ATOM      2  C   UNL     1       3.927   5.901  19.426  0.00  0.00    +0.000 A 
ATOM      3  N   UNL     1       4.254   4.612  19.087  0.00  0.00    +0.000 N 
ATOM      4  C   UNL     1       3.144   3.797  19.201  0.00  0.00    +0.000 A 
ATOM      5  C   UNL     1       2.964   2.433  18.924  0.00  0.00    +0.000 A 
ATOM      6  C   UNL     1       1.702   1.873  19.147  0.00  0.00    +0.000 A 
ATOM      7  C   UNL     1       0.658   2.641  19.641  0.00  0.00    +0.000 A 
ATOM      8  C   UNL     1       0.844   4.000  19.920  0.00  0.00    +0.000 A 
ATOM      9  C   UNL     1       2.104   4.595  19.688  0.00  0.00    +0.000 A 
ENDROOT
BRANCH   1  10
ATOM     10  C   UNL     1       1.864   7.123  20.323  0.00  0.00    +0.000 C 
BRANCH  10  12
ATOM     11  O   UNL     1       2.431   8.272  18.256  0.00  0.00    +0.000 OA
ATOM     12  C   UNL     1       1.760   8.241  19.289  0.00  0.00    +0.000 C 
ATOM     13  N   UNL     1       0.793   9.212  19.550  0.00  0.00    +0.000 N 
ATOM     14  C   UNL     1       0.500  10.228  18.538  0.00  0.00    +0.000 C 
ATOM     15  C   UNL     1       1.001  11.600  18.997  0.00  0.00    +0.000 C 
ATOM     16  O   UNL     1       0.459  11.941  20.288  0.00  0.00    +0.000 OA
ATOM     17  C   UNL     1       0.835  10.960  21.271  0.00  0.00    +0.000 C 
ATOM     18  C   UNL     1       0.313   9.568  20.888  0.00  0.00    +0.000 C 
ENDBRANCH  10  12
ENDBRANCH   1  10
BRANCH   3  19
ATOM     19  C   UNL     1       5.597   4.190  18.698  0.00  0.00    +0.000 C 
BRANCH  19  20
ATOM     20  C   UNL     1       6.441   5.370  18.285  0.00  0.00    +0.000 A 
ATOM     21  C   UNL     1       7.521   5.792  19.076  0.00  0.00    +0.000 A 
ATOM     22  C   UNL     1       8.203   6.970  18.775  0.00  0.00    +0.000 A 
ATOM     23  C   UNL     1       7.838   7.719  17.660  0.00  0.00    +0.000 A 
ATOM     24  C   UNL     1       6.815   7.273  16.824  0.00  0.00    +0.000 A 
ATOM     25  C   UNL     1       6.123   6.101  17.131  0.00  0.00    +0.000 A 
ENDBRANCH  19  20
ENDBRANCH   3  19
TORSDOF 4
ENDMDL
