MODEL 1
REMARK VINA RESULT:      -6.9      0.000      0.000
REMARK  Name = 
REMARK  6 active torsions:
REMARK  status: ('A' for Active; 'I' for Inactive)
REMARK    1  A    between atoms: C_1  and  C_2
REMARK    2  A    between atoms: C_2  and  C_3
REMARK    3  A    between atoms: C_6  and  C_7
REMARK    4  A    between atoms: C_9  and  N_10
REMARK    5  A    between atoms: N_10  and  C_11
REMARK    6  A    between atoms: C_15  and  N_16
REMARK                            x       y       z     vdW  Elec       q    Type
REMARK                         _______ _______ _______ _____ _____    ______ ____
ROOT
ATOM      1  N   UNL     1       5.555   3.649  17.935  0.00  0.00    +0.000 N 
ATOM      2  H   UNL     1       5.901   4.162  18.739  0.00  0.00    +0.000 HD
ENDROOT
BRANCH   1   9
ATOM      3  C   UNL     1       6.956   5.326  16.913  0.00  0.00    +0.000 A 
ATOM      4  C   UNL     1       7.515   5.809  15.741  0.00  0.00    +0.000 A 
ATOM      5  N   UNL     1       7.289   5.279  14.530  0.00  0.00    +0.000 NA
ATOM      6  C   UNL     1       6.489   4.205  14.501  0.00  0.00    +0.000 A 
ATOM      7  C   UNL     1       6.110   3.662  13.160  0.00  0.00    +0.000 C 
ATOM      8  N   UNL     1       5.929   3.631  15.583  0.00  0.00    +0.000 NA
ATOM      9  C   UNL     1       6.152   4.199  16.782  0.00  0.00    +0.000 A 
BRANCH   3  11
ATOM     10  C   UNL     1       7.777   7.433  17.956  0.00  0.00    +0.000 C 
ATOM     11  C   UNL     1       7.181   6.051  18.207  0.00  0.00    +0.000 C 
ENDBRANCH   3  11
ENDBRANCH   1   9
BRANCH   1  12
ATOM     12  C   UNL     1       4.077   3.543  17.923  0.00  0.00    +0.000 C 
ATOM     13  C   UNL     1       3.620   2.083  17.858  0.00  0.00    +0.000 C 
ATOM     14  O   UNL     1       3.445   1.605  19.200  0.00  0.00    +0.000 OA
ATOM     15  C   UNL     1       3.612   2.715  20.087  0.00  0.00    +0.000 C 
ATOM     16  C   UNL     1       3.501   4.030  19.281  0.00  0.00    +0.000 C 
BRANCH  16  17
ATOM     17  N   UNL     1       2.119   4.588  19.197  0.00  0.00    +0.000 NA
ATOM     18  C   UNL     1       1.915   5.491  18.032  0.00  0.00    +0.000 C 
ATOM     19  C   UNL     1       2.528   6.896  18.184  0.00  0.00    +0.000 C 
ATOM     20  O   UNL     1       2.071   7.547  19.373  0.00  0.00    +0.000 OA
ATOM     21  C   UNL     1       2.348   6.746  20.526  0.00  0.00    +0.000 C 
ATOM     22  C   UNL     1       1.704   5.354  20.401  0.00  0.00    +0.000 C 
ENDBRANCH  16  17
ENDBRANCH   1  12
TORSDOF 4
ENDMDL
MODEL 2
REMARK VINA RESULT:      -6.8      0.938      2.548
REMARK  Name = 
REMARK  6 active torsions:
REMARK  status: ('A' for Active; 'I' for Inactive)
REMARK    1  A    between atoms: C_1  and  C_2
REMARK    2  A    between atoms: C_2  and  C_3
REMARK    3  A    between atoms: C_6  and  C_7
REMARK    4  A    between atoms: C_9  and  N_10
REMARK    5  A    between atoms: N_10  and  C_11
REMARK    6  A    between atoms: C_15  and  N_16
REMARK                            x       y       z     vdW  Elec       q    Type
REMARK                         _______ _______ _______ _____ _____    ______ ____
ROOT
ATOM      1  N   UNL     1       5.607   3.576  18.343  0.00  0.00    +0.000 N 
ATOM      2  H   UNL     1       5.881   3.587  19.320  0.00  0.00    +0.000 HD
ENDROOT
BRANCH   1   9
ATOM      3  C   UNL     1       6.354   4.634  16.307  0.00  0.00    +0.000 A 
ATOM      4  C   UNL     1       7.015   5.709  15.738  0.00  0.00    +0.000 A 
ATOM      5  N   UNL     1       7.592   6.693  16.444  0.00  0.00    +0.000 NA
ATOM      6  C   UNL     1       7.475   6.603  17.776  0.00  0.00    +0.000 A 
ATOM      7  C   UNL     1       8.211   7.609  18.603  0.00  0.00    +0.000 C 
ATOM      8  N   UNL     1       6.819   5.624  18.428  0.00  0.00    +0.000 NA
ATOM      9  C   UNL     1       6.273   4.637  17.695  0.00  0.00    +0.000 A 
BRANCH   3  11
ATOM     10  C   UNL     1       6.011   3.868  13.963  0.00  0.00    +0.000 C 
ATOM     11  C   UNL     1       5.834   3.526  15.438  0.00  0.00    +0.000 C 
ENDBRANCH   3  11
ENDBRANCH   1   9
BRANCH   1  12
ATOM     12  C   UNL     1       4.136   3.519  18.167  0.00  0.00    +0.000 C 
ATOM     13  C   UNL     1       3.640   2.075  18.055  0.00  0.00    +0.000 C 
ATOM     14  O   UNL     1       3.302   1.611  19.370  0.00  0.00    +0.000 OA
ATOM     15  C   UNL     1       3.407   2.720  20.268  0.00  0.00    +0.000 C 
ATOM     16  C   UNL     1       3.430   4.033  19.451  0.00  0.00    +0.000 C 
BRANCH  16  17
ATOM     17  N   UNL     1       2.085   4.636  19.213  0.00  0.00    +0.000 NA
ATOM     18  C   UNL     1       2.048   5.554  18.042  0.00  0.00    +0.000 C 
ATOM     19  C   UNL     1       2.682   6.937  18.279  0.00  0.00    +0.000 C 
ATOM     20  O   UNL     1       2.110   7.594  19.414  0.00  0.00    +0.000 OA
ATOM     21  C   UNL     1       2.225   6.776  20.582  0.00  0.00    +0.000 C 
ATOM     22  C   UNL     1       1.557   5.406  20.368  0.00  0.00    +0.000 C 
ENDBRANCH  16  17
ENDBRANCH   1  12
TORSDOF 4
ENDMDL
MODEL 3
REMARK VINA RESULT:      -6.0      2.018      2.488
REMARK  Name = 
REMARK  6 active torsions:
REMARK  status: ('A' for Active; 'I' for Inactive)
REMARK    1  A    between atoms: C_1  and  C_2
REMARK    2  A    between atoms: C_2  and  C_3
REMARK    3  A    between atoms: C_6  and  C_7
REMARK    4  A    between atoms: C_9  and  N_10
REMARK    5  A    between atoms: N_10  and  C_11
REMARK    6  A    between atoms: C_15  and  N_16
REMARK                            x       y       z     vdW  Elec       q    Type
REMARK                         _______ _______ _______ _____ _____    ______ ____
ROOT
ATOM      1  N   UNL     1       4.281   4.884  16.696  0.00  0.00    +0.000 N 
ATOM      2  H   UNL     1       3.396   4.793  16.207  0.00  0.00    +0.000 HD
ENDROOT
BRANCH   1   9
ATOM      3  C   UNL     1       6.267   5.949  15.836  0.00  0.00    +0.000 A 
ATOM      4  C   UNL     1       7.247   5.951  14.857  0.00  0.00    +0.000 A 
ATOM      5  N   UNL     1       7.280   5.090  13.828  0.00  0.00    +0.000 NA
ATOM      6  C   UNL     1       6.302   4.175  13.800  0.00  0.00    +0.000 A 
ATOM      7  C   UNL     1       6.229   3.278  12.605  0.00  0.00    +0.000 C 
ATOM      8  N   UNL     1       5.328   4.058  14.723  0.00  0.00    +0.000 NA
ATOM      9  C   UNL     1       5.305   4.951  15.728  0.00  0.00    +0.000 A 
BRANCH   3  11
ATOM     10  C   UNL     1       7.632   7.173  17.521  0.00  0.00    +0.000 C 
ATOM     11  C   UNL     1       6.253   7.020  16.887  0.00  0.00    +0.000 C 
ENDBRANCH   3  11
ENDBRANCH   1   9
BRANCH   1  12
ATOM     12  C   UNL     1       4.448   3.866  17.760  0.00  0.00    +0.000 C 
ATOM     13  C   UNL     1       5.888   3.825  18.276  0.00  0.00    +0.000 C 
ATOM     14  O   UNL     1       5.993   4.720  19.393  0.00  0.00    +0.000 OA
ATOM     15  C   UNL     1       4.678   5.195  19.700  0.00  0.00    +0.000 C 
ATOM     16  C   UNL     1       3.636   4.278  19.018  0.00  0.00    +0.000 C 
BRANCH  16  17
ATOM     17  N   UNL     1       3.180   3.130  19.857  0.00  0.00    +0.000 NA
ATOM     18  C   UNL     1       2.504   2.059  19.076  0.00  0.00    +0.000 C 
ATOM     19  C   UNL     1       1.061   2.381  18.644  0.00  0.00    +0.000 C 
ATOM     20  O   UNL     1       0.242   2.743  19.760  0.00  0.00    +0.000 OA
ATOM     21  C   UNL     1       0.816   3.843  20.472  0.00  0.00    +0.000 C 
ATOM     22  C   UNL     1       2.243   3.513  20.945  0.00  0.00    +0.000 C 
ENDBRANCH  16  17
ENDBRANCH   1  12
TORSDOF 4
ENDMDL
MODEL 4
REMARK VINA RESULT:      -5.8      1.419      3.174
REMARK  Name = 
REMARK  6 active torsions:
REMARK  status: ('A' for Active; 'I' for Inactive)
REMARK    1  A    between atoms: C_1  and  C_2
REMARK    2  A    between atoms: C_2  and  C_3
REMARK    3  A    between atoms: C_6  and  C_7
REMARK    4  A    between atoms: C_9  and  N_10
REMARK    5  A    between atoms: N_10  and  C_11
REMARK    6  A    between atoms: C_15  and  N_16
REMARK                            x       y       z     vdW  Elec       q    Type
REMARK                         _______ _______ _______ _____ _____    ______ ____
ROOT
ATOM      1  N   UNL     1       4.511   6.736  16.944  0.00  0.00    +0.000 N 
ATOM      2  H   UNL     1       3.744   6.875  16.294  0.00  0.00    +0.000 HD
ENDROOT
BRANCH   1   9
ATOM      3  C   UNL     1       6.753   5.851  16.843  0.00  0.00    +0.000 A 
ATOM      4  C   UNL     1       7.639   5.019  16.179  0.00  0.00    +0.000 A 
ATOM      5  N   UNL     1       7.332   4.332  15.068  0.00  0.00    +0.000 NA
ATOM      6  C   UNL     1       6.076   4.468  14.624  0.00  0.00    +0.000 A 
ATOM      7  C   UNL     1       5.729   3.822  13.320  0.00  0.00    +0.000 C 
ATOM      8  N   UNL     1       5.125   5.216  15.217  0.00  0.00    +0.000 NA
ATOM      9  C   UNL     1       5.468   5.914  16.314  0.00  0.00    +0.000 A 
BRANCH   3  11
ATOM     10  C   UNL     1       7.794   7.998  17.554  0.00  0.00    +0.000 C 
ATOM     11  C   UNL     1       7.219   6.663  18.016  0.00  0.00    +0.000 C 
ENDBRANCH   3  11
ENDBRANCH   1   9
BRANCH   1  12
ATOM     12  C   UNL     1       4.047   6.297  18.282  0.00  0.00    +0.000 C 
ATOM     13  C   UNL     1       2.977   7.238  18.841  0.00  0.00    +0.000 C 
ATOM     14  O   UNL     1       1.689   6.740  18.450  0.00  0.00    +0.000 OA
ATOM     15  C   UNL     1       1.882   5.470  17.820  0.00  0.00    +0.000 C 
ATOM     16  C   UNL     1       3.295   4.943  18.163  0.00  0.00    +0.000 C 
BRANCH  16  17
ATOM     17  N   UNL     1       3.358   4.096  19.391  0.00  0.00    +0.000 NA
ATOM     18  C   UNL     1       4.201   2.881  19.229  0.00  0.00    +0.000 C 
ATOM     19  C   UNL     1       3.555   1.743  18.417  0.00  0.00    +0.000 C 
ATOM     20  O   UNL     1       2.282   1.369  18.951  0.00  0.00    +0.000 OA
ATOM     21  C   UNL     1       1.410   2.501  19.022  0.00  0.00    +0.000 C 
ATOM     22  C   UNL     1       2.031   3.627  19.867  0.00  0.00    +0.000 C 
ENDBRANCH  16  17
ENDBRANCH   1  12
TORSDOF 4
ENDMDL
MODEL 5
REMARK VINA RESULT:      -5.8      1.680      2.198
REMARK  Name = 
REMARK  6 active torsions:
REMARK  status: ('A' for Active; 'I' for Inactive)
REMARK    1  A    between atoms: C_1  and  C_2
REMARK    2  A    between atoms: C_2  and  C_3
REMARK    3  A    between atoms: C_6  and  C_7
REMARK    4  A    between atoms: C_9  and  N_10
REMARK    5  A    between atoms: N_10  and  C_11
REMARK    6  A    between atoms: C_15  and  N_16
REMARK                            x       y       z     vdW  Elec       q    Type
REMARK                         _______ _______ _______ _____ _____    ______ ____
ROOT
ATOM      1  N   UNL     1       5.260   3.671  18.352  0.00  0.00    +0.000 N 
ATOM      2  H   UNL     1       5.579   4.239  19.131  0.00  0.00    +0.000 HD
ENDROOT
BRANCH   1   9
ATOM      3  C   UNL     1       4.911   5.769  17.213  0.00  0.00    +0.000 A 
ATOM      4  C   UNL     1       5.041   6.478  16.031  0.00  0.00    +0.000 A 
ATOM      5  N   UNL     1       5.520   5.955  14.892  0.00  0.00    +0.000 NA
ATOM      6  C   UNL     1       5.908   4.675  14.954  0.00  0.00    +0.000 A 
ATOM      7  C   UNL     1       6.328   4.017  13.678  0.00  0.00    +0.000 C 
ATOM      8  N   UNL     1       5.864   3.909  16.061  0.00  0.00    +0.000 NA
ATOM      9  C   UNL     1       5.355   4.451  17.181  0.00  0.00    +0.000 A 
BRANCH   3  11
ATOM     10  C   UNL     1       3.049   7.230  17.986  0.00  0.00    +0.000 C 
ATOM     11  C   UNL     1       4.263   6.408  18.406  0.00  0.00    +0.000 C 
ENDBRANCH   3  11
ENDBRANCH   1   9
BRANCH   1  12
ATOM     12  C   UNL     1       3.947   3.036  18.614  0.00  0.00    +0.000 C 
ATOM     13  C   UNL     1       3.789   1.731  17.829  0.00  0.00    +0.000 C 
ATOM     14  O   UNL     1       4.252   0.650  18.652  0.00  0.00    +0.000 OA
ATOM     15  C   UNL     1       4.541   1.180  19.950  0.00  0.00    +0.000 C 
ATOM     16  C   UNL     1       3.872   2.566  20.093  0.00  0.00    +0.000 C 
BRANCH  16  17
ATOM     17  N   UNL     1       2.490   2.530  20.657  0.00  0.00    +0.000 NA
ATOM     18  C   UNL     1       1.428   2.705  19.629  0.00  0.00    +0.000 C 
ATOM     19  C   UNL     1       1.240   4.148  19.126  0.00  0.00    +0.000 C 
ATOM     20  O   UNL     1       1.009   5.059  20.205  0.00  0.00    +0.000 OA
ATOM     21  C   UNL     1       2.071   4.989  21.161  0.00  0.00    +0.000 C 
ATOM     22  C   UNL     1       2.238   3.557  21.700  0.00  0.00    +0.000 C 
ENDBRANCH  16  17
ENDBRANCH   1  12
TORSDOF 4
ENDMDL
MODEL 6
REMARK VINA RESULT:      -5.8      2.158      5.804
REMARK  Name = 
REMARK  6 active torsions:
REMARK  status: ('A' for Active; 'I' for Inactive)
REMARK    1  A    between atoms: C_1  and  C_2
REMARK    2  A    between atoms: C_2  and  C_3
REMARK    3  A    between atoms: C_6  and  C_7
REMARK    4  A    between atoms: C_9  and  N_10
REMARK    5  A    between atoms: N_10  and  C_11
REMARK    6  A    between atoms: C_15  and  N_16
REMARK                            x       y       z     vdW  Elec       q    Type
REMARK                         _______ _______ _______ _____ _____    ______ ____
ROOT
ATOM      1  N   UNL     1       2.710   5.062  18.271  0.00  0.00    +0.000 N 
ATOM      2  H   UNL     1       2.633   5.183  17.266  0.00  0.00    +0.000 HD
ENDROOT
BRANCH   1   9
ATOM      3  C   UNL     1       1.904   6.249  20.210  0.00  0.00    +0.000 A 
ATOM      4  C   UNL     1       1.541   7.472  20.749  0.00  0.00    +0.000 A 
ATOM      5  N   UNL     1       1.535   8.623  20.060  0.00  0.00    +0.000 NA
ATOM      6  C   UNL     1       1.936   8.542  18.784  0.00  0.00    +0.000 A 
ATOM      7  C   UNL     1       1.824   9.776  17.945  0.00  0.00    +0.000 C 
ATOM      8  N   UNL     1       2.348   7.414  18.175  0.00  0.00    +0.000 NA
ATOM      9  C   UNL     1       2.319   6.271  18.883  0.00  0.00    +0.000 A 
BRANCH   3  11
ATOM     10  C   UNL     1       0.748   4.053  20.414  0.00  0.00    +0.000 C 
ATOM     11  C   UNL     1       1.774   4.999  21.029  0.00  0.00    +0.000 C 
ENDBRANCH   3  11
ENDBRANCH   1   9
BRANCH   1  12
ATOM     12  C   UNL     1       4.027   4.516  18.676  0.00  0.00    +0.000 C 
ATOM     13  C   UNL     1       3.895   3.108  19.261  0.00  0.00    +0.000 C 
ATOM     14  O   UNL     1       4.054   2.160  18.195  0.00  0.00    +0.000 OA
ATOM     15  C   UNL     1       4.429   2.882  17.018  0.00  0.00    +0.000 C 
ATOM     16  C   UNL     1       4.916   4.293  17.422  0.00  0.00    +0.000 C 
BRANCH  16  17
ATOM     17  N   UNL     1       6.382   4.390  17.684  0.00  0.00    +0.000 NA
ATOM     18  C   UNL     1       6.779   5.648  18.372  0.00  0.00    +0.000 C 
ATOM     19  C   UNL     1       6.805   6.900  17.475  0.00  0.00    +0.000 C 
ATOM     20  O   UNL     1       7.633   6.709  16.324  0.00  0.00    +0.000 OA
ATOM     21  C   UNL     1       7.209   5.562  15.582  0.00  0.00    +0.000 C 
ATOM     22  C   UNL     1       7.220   4.298  16.460  0.00  0.00    +0.000 C 
ENDBRANCH  16  17
ENDBRANCH   1  12
TORSDOF 4
ENDMDL
MODEL 7
REMARK VINA RESULT:      -5.8      1.632      2.564
REMARK  Name = 
REMARK  6 active torsions:
REMARK  status: ('A' for Active; 'I' for Inactive)
REMARK    1  A    between atoms: C_1  and  C_2
REMARK    2  A    between atoms: C_2  and  C_3
REMARK    3  A    between atoms: C_6  and  C_7
REMARK    4  A    between atoms: C_9  and  N_10
REMARK    5  A    between atoms: N_10  and  C_11
REMARK    6  A    between atoms: C_15  and  N_16
REMARK                            x       y       z     vdW  Elec       q    Type
REMARK                         _______ _______ _______ _____ _____    ______ ____
ROOT
ATOM      1  N   UNL     1       5.874   4.205  18.354  0.00  0.00    +0.000 N 
ATOM      2  H   UNL     1       6.632   4.228  19.028  0.00  0.00    +0.000 HD
ENDROOT
BRANCH   1   9
ATOM      3  C   UNL     1       7.252   5.680  17.033  0.00  0.00    +0.000 A 
ATOM      4  C   UNL     1       7.736   5.991  15.773  0.00  0.00    +0.000 A 
ATOM      5  N   UNL     1       7.396   5.330  14.656  0.00  0.00    +0.000 NA
ATOM      6  C   UNL     1       6.556   4.299  14.818  0.00  0.00    +0.000 A 
ATOM      7  C   UNL     1       6.054   3.617  13.586  0.00  0.00    +0.000 C 
ATOM      8  N   UNL     1       6.062   3.887  16.001  0.00  0.00    +0.000 NA
ATOM      9  C   UNL     1       6.399   4.584  17.101  0.00  0.00    +0.000 A 
BRANCH   3  11
ATOM     10  C   UNL     1       7.839   7.985  17.767  0.00  0.00    +0.000 C 
ATOM     11  C   UNL     1       7.605   6.544  18.208  0.00  0.00    +0.000 C 
ENDBRANCH   3  11
ENDBRANCH   1   9
BRANCH   1  12
ATOM     12  C   UNL     1       4.679   4.949  18.819  0.00  0.00    +0.000 C 
ATOM     13  C   UNL     1       3.955   5.631  17.655  0.00  0.00    +0.000 C 
ATOM     14  O   UNL     1       2.955   4.730  17.156  0.00  0.00    +0.000 OA
ATOM     15  C   UNL     1       2.906   3.600  18.032  0.00  0.00    +0.000 C 
ATOM     16  C   UNL     1       3.615   3.956  19.360  0.00  0.00    +0.000 C 
BRANCH  16  17
ATOM     17  N   UNL     1       2.716   4.529  20.406  0.00  0.00    +0.000 NA
ATOM     18  C   UNL     1       2.822   3.836  21.719  0.00  0.00    +0.000 C 
ATOM     19  C   UNL     1       2.118   2.468  21.792  0.00  0.00    +0.000 C 
ATOM     20  O   UNL     1       0.741   2.561  21.414  0.00  0.00    +0.000 OA
ATOM     21  C   UNL     1       0.613   3.129  20.107  0.00  0.00    +0.000 C 
ATOM     22  C   UNL     1       1.277   4.515  20.037  0.00  0.00    +0.000 C 
ENDBRANCH  16  17
ENDBRANCH   1  12
TORSDOF 4
ENDMDL
MODEL 8
REMARK VINA RESULT:      -5.6      1.973      3.237
REMARK  Name = 
REMARK  6 active torsions:
REMARK  status: ('A' for Active; 'I' for Inactive)
REMARK    1  A    between atoms: C_1  and  C_2
REMARK    2  A    between atoms: C_2  and  C_3
REMARK    3  A    between atoms: C_6  and  C_7
REMARK    4  A    between atoms: C_9  and  N_10
REMARK    5  A    between atoms: N_10  and  C_11
REMARK    6  A    between atoms: C_15  and  N_16
REMARK                            x       y       z     vdW  Elec       q    Type
REMARK                         _______ _______ _______ _____ _____    ______ ____
ROOT
ATOM      1  N   UNL     1       5.044   3.446  18.072  0.00  0.00    +0.000 N 
ATOM      2  H   UNL     1       5.795   3.532  18.749  0.00  0.00    +0.000 HD
ENDROOT
BRANCH   1   9
ATOM      3  C   UNL     1       5.483   5.213  16.489  0.00  0.00    +0.000 A 
ATOM      4  C   UNL     1       5.146   6.483  16.050  0.00  0.00    +0.000 A 
ATOM      5  N   UNL     1       4.216   7.255  16.633  0.00  0.00    +0.000 NA
ATOM      6  C   UNL     1       3.583   6.716  17.684  0.00  0.00    +0.000 A 
ATOM      7  C   UNL     1       2.632   7.588  18.440  0.00  0.00    +0.000 C 
ATOM      8  N   UNL     1       3.804   5.477  18.164  0.00  0.00    +0.000 NA
ATOM      9  C   UNL     1       4.759   4.736  17.577  0.00  0.00    +0.000 A 
BRANCH   3  11
ATOM     10  C   UNL     1       6.205   3.971  14.456  0.00  0.00    +0.000 C 
ATOM     11  C   UNL     1       6.612   4.468  15.839  0.00  0.00    +0.000 C 
ENDBRANCH   3  11
ENDBRANCH   1   9
BRANCH   1  12
ATOM     12  C   UNL     1       3.892   2.676  18.599  0.00  0.00    +0.000 C 
ATOM     13  C   UNL     1       4.012   1.187  18.262  0.00  0.00    +0.000 C 
ATOM     14  O   UNL     1       4.690   0.533  19.345  0.00  0.00    +0.000 OA
ATOM     15  C   UNL     1       4.859   1.487  20.397  0.00  0.00    +0.000 C 
ATOM     16  C   UNL     1       3.914   2.686  20.152  0.00  0.00    +0.000 C 
BRANCH  16  17
ATOM     17  N   UNL     1       2.569   2.553  20.785  0.00  0.00    +0.000 NA
ATOM     18  C   UNL     1       1.453   2.511  19.802  0.00  0.00    +0.000 C 
ATOM     19  C   UNL     1       1.082   3.870  19.180  0.00  0.00    +0.000 C 
ATOM     20  O   UNL     1       0.792   4.849  20.183  0.00  0.00    +0.000 OA
ATOM     21  C   UNL     1       1.893   4.988  21.086  0.00  0.00    +0.000 C 
ATOM     22  C   UNL     1       2.244   3.641  21.743  0.00  0.00    +0.000 C 
ENDBRANCH  16  17
ENDBRANCH   1  12
TORSDOF 4
ENDMDL
MODEL 9
REMARK VINA RESULT:      -5.6      4.085      6.693
REMARK  Name = 
REMARK  6 active torsions:
REMARK  status: ('A' for Active; 'I' for Inactive)
REMARK    1  A    between atoms: C_1  and  C_2
REMARK    2  A    between atoms: C_2  and  C_3
REMARK    3  A    between atoms: C_6  and  C_7
REMARK    4  A    between atoms: C_9  and  N_10
REMARK    5  A    between atoms: N_10  and  C_11
REMARK    6  A    between atoms: C_15  and  N_16
REMARK                            x       y       z     vdW  Elec       q    Type
REMARK                         _______ _______ _______ _____ _____    ______ ____
ROOT
ATOM      1  N   UNL     1       1.957   7.765  20.915  0.00  0.00    +0.000 N 
ATOM      2  H   UNL     1       2.831   8.248  20.735  0.00  0.00    +0.000 HD
ENDROOT
BRANCH   1   9
ATOM      3  C   UNL     1       2.433   6.485  18.926  0.00  0.00    +0.000 A 
ATOM      4  C   UNL     1       2.462   5.233  18.336  0.00  0.00    +0.000 A 
ATOM      5  N   UNL     1       2.072   4.106  18.951  0.00  0.00    +0.000 NA
ATOM      6  C   UNL     1       1.661   4.243  20.219  0.00  0.00    +0.000 A 
ATOM      7  C   UNL     1       1.099   3.035  20.898  0.00  0.00    +0.000 C 
ATOM      8  N   UNL     1       1.633   5.406  20.899  0.00  0.00    +0.000 NA
ATOM      9  C   UNL     1       2.005   6.523  20.249  0.00  0.00    +0.000 A 
BRANCH   3  11
ATOM     10  C   UNL     1       4.021   7.444  17.265  0.00  0.00    +0.000 C 
ATOM     11  C   UNL     1       2.786   7.703  18.123  0.00  0.00    +0.000 C 
ENDBRANCH   3  11
ENDBRANCH   1   9
BRANCH   1  12
ATOM     12  C   UNL     1       0.773   8.614  20.640  0.00  0.00    +0.000 C 
ATOM     13  C   UNL     1      -0.439   8.170  21.463  0.00  0.00    +0.000 C 
ATOM     14  O   UNL     1      -0.443   8.910  22.693  0.00  0.00    +0.000 OA
ATOM     15  C   UNL     1       0.595   9.892  22.619  0.00  0.00    +0.000 C 
ATOM     16  C   UNL     1       1.030  10.060  21.145  0.00  0.00    +0.000 C 
BRANCH  16  17
ATOM     17  N   UNL     1       0.282  11.113  20.396  0.00  0.00    +0.000 NA
ATOM     18  C   UNL     1       0.569  11.118  18.936  0.00  0.00    +0.000 C 
ATOM     19  C   UNL     1       1.926  11.731  18.543  0.00  0.00    +0.000 C 
ATOM     20  O   UNL     1       2.078  13.056  19.060  0.00  0.00    +0.000 OA
ATOM     21  C   UNL     1       1.910  13.066  20.481  0.00  0.00    +0.000 C 
ATOM     22  C   UNL     1       0.539  12.494  20.881  0.00  0.00    +0.000 C 
ENDBRANCH  16  17
ENDBRANCH   1  12
TORSDOF 4
ENDMDL
