MODEL 1
REMARK VINA RESULT:      -7.6      0.000      0.000
REMARK  Name = 
REMARK  13 active torsions:
REMARK  status: ('A' for Active; 'I' for Inactive)
REMARK    1  A    between atoms: C_2  and  O_3
REMARK    2  A    between atoms: C_2  and  C_4
REMARK    3  A    between atoms: C_4  and  C_5
REMARK    4  A    between atoms: C_5  and  C_6
REMARK    5  A    between atoms: C_6  and  C_7
REMARK    6  A    between atoms: C_7  and  C_8
REMARK    7  A    between atoms: C_8  and  C_9
REMARK    8  A    between atoms: C_9  and  C_10
REMARK    9  A    between atoms: C_10  and  C_11
REMARK   10  A    between atoms: C_11  and  C_12
REMARK   11  A    between atoms: N_14  and  C_15
REMARK   12  A    between atoms: C_15  and  C_16
REMARK   13  A    between atoms: C_16  and  C_17
REMARK                            x       y       z     vdW  Elec       q    Type
REMARK                         _______ _______ _______ _____ _____    ______ ____
ROOT
ATOM      1  C   UNL     1       6.070   6.460  17.190  0.00  0.00    +0.000 A 
ATOM      2  C   UNL     1       6.740   7.661  17.251  0.00  0.00    +0.000 A 
ATOM      3  N   UNL     1       7.763   7.448  18.120  0.00  0.00    +0.000 N 
ATOM      4  N   UNL     1       7.833   6.139  18.439  0.00  0.00    +0.000 NA
ATOM      5  N   UNL     1       6.791   5.529  17.884  0.00  0.00    +0.000 NA
ENDROOT
BRANCH   1   6
ATOM      6  C   UNL     1       4.766   6.143  16.541  0.00  0.00    +0.000 C 
BRANCH   6   7
ATOM      7  C   UNL     1       3.806   5.334  17.428  0.00  0.00    +0.000 C 
BRANCH   7   8
ATOM      8  C   UNL     1       2.920   6.173  18.353  0.00  0.00    +0.000 C 
BRANCH   8   9
ATOM      9  C   UNL     1       2.764   5.568  19.755  0.00  0.00    +0.000 C 
BRANCH   9  10
ATOM     10  C   UNL     1       1.301   5.450  20.197  0.00  0.00    +0.000 C 
BRANCH  10  11
ATOM     11  C   UNL     1       0.888   4.023  20.514  0.00  0.00    +0.000 C 
BRANCH  11  12
ATOM     12  C   UNL     1       0.988   3.068  19.317  0.00  0.00    +0.000 C 
BRANCH  12  13
ATOM     13  C   UNL     1       2.404   2.033  19.236  0.00  0.00    +0.000 C 
BRANCH  13  15
ATOM     14  O   UNL     1       5.195   1.649  20.700  0.00  0.00    +0.000 OA
ATOM     15  C   UNL     1       4.501   2.235  19.815  0.00  0.00    +0.000 C 
BRANCH  15  16
ATOM     16  O   UNL     1       5.517   3.075  19.263  0.00  0.00    +0.000 OA
ATOM     17  H   UNL     1       5.589   4.036  19.344  0.00  0.00    +0.000 HD
ENDBRANCH  15  16
ENDBRANCH  13  15
ENDBRANCH  12  13
ENDBRANCH  11  12
ENDBRANCH  10  11
ENDBRANCH   9  10
ENDBRANCH   8   9
ENDBRANCH   7   8
ENDBRANCH   6   7
ENDBRANCH   1   6
BRANCH   3  18
ATOM     18  C   UNL     1       8.722   8.365  18.700  0.00  0.00    +0.000 C 
BRANCH  18  19
ATOM     19  C   UNL     1       8.716   9.825  18.242  0.00  0.00    +0.000 C 
BRANCH  19  20
ATOM     20  C   UNL     1       9.296  10.819  19.199  0.00  0.00    +0.000 A 
ATOM     21  C   UNL     1       9.387  10.753  20.591  0.00  0.00    +0.000 A 
ATOM     22  N   UNL     1      10.075  11.808  21.203  0.00  0.00    +0.000 N 
ATOM     23  C   UNL     1      10.555  12.706  20.281  0.00  0.00    +0.000 A 
ATOM     24  C   UNL     1      11.439  14.272  20.286  0.00  0.00    +0.000 A 
ATOM     25  C   UNL     1      11.587  15.204  18.721  0.00  0.00    +0.000 A 
ATOM     26  C   UNL     1      10.941  14.538  17.221  0.00  0.00    +0.000 A 
ATOM     27  C   UNL     1       9.982  13.031  17.269  0.00  0.00    +0.000 A 
ATOM     28  C   UNL     1       9.816  12.084  18.811  0.00  0.00    +0.000 A 
ATOM     29  H   UNL     1      10.073  11.980  22.200  0.00  0.00    +0.000 HD
ENDBRANCH  19  20
ENDBRANCH  18  19
ENDBRANCH   3  18
TORSDOF 13
ENDMDL
MODEL 2
REMARK VINA RESULT:      -7.3      6.204      8.936
REMARK  Name = 
REMARK  13 active torsions:
REMARK  status: ('A' for Active; 'I' for Inactive)
REMARK    1  A    between atoms: C_2  and  O_3
REMARK    2  A    between atoms: C_2  and  C_4
REMARK    3  A    between atoms: C_4  and  C_5
REMARK    4  A    between atoms: C_5  and  C_6
REMARK    5  A    between atoms: C_6  and  C_7
REMARK    6  A    between atoms: C_7  and  C_8
REMARK    7  A    between atoms: C_8  and  C_9
REMARK    8  A    between atoms: C_9  and  C_10
REMARK    9  A    between atoms: C_10  and  C_11
REMARK   10  A    between atoms: C_11  and  C_12
REMARK   11  A    between atoms: N_14  and  C_15
REMARK   12  A    between atoms: C_15  and  C_16
REMARK   13  A    between atoms: C_16  and  C_17
REMARK                            x       y       z     vdW  Elec       q    Type
REMARK                         _______ _______ _______ _____ _____    ______ ____
ROOT
ATOM      1  C   UNL     1       2.110   7.999  18.720  0.00  0.00    +0.000 A 
ATOM      2  C   UNL     1       1.307   8.839  19.457  0.00  0.00    +0.000 A 
ATOM      3  N   UNL     1       1.387  10.042  18.830  0.00  0.00    +0.000 N 
ATOM      4  N   UNL     1       2.053   9.911  17.664  0.00  0.00    +0.000 NA
ATOM      5  N   UNL     1       2.512   8.666  17.595  0.00  0.00    +0.000 NA
ENDROOT
BRANCH   1   6
ATOM      6  C   UNL     1       2.551   6.610  19.028  0.00  0.00    +0.000 C 
BRANCH   6   7
ATOM      7  C   UNL     1       2.037   6.073  20.374  0.00  0.00    +0.000 C 
BRANCH   7   8
ATOM      8  C   UNL     1       2.399   4.615  20.668  0.00  0.00    +0.000 C 
BRANCH   8   9
ATOM      9  C   UNL     1       1.177   3.688  20.733  0.00  0.00    +0.000 C 
BRANCH   9  10
ATOM     10  C   UNL     1       0.951   2.906  19.434  0.00  0.00    +0.000 C 
BRANCH  10  11
ATOM     11  C   UNL     1       2.151   2.070  19.026  0.00  0.00    +0.000 C 
BRANCH  11  12
ATOM     12  C   UNL     1       2.591   2.287  17.571  0.00  0.00    +0.000 C 
BRANCH  12  13
ATOM     13  C   UNL     1       3.661   3.644  17.254  0.00  0.00    +0.000 C 
BRANCH  13  15
ATOM     14  O   UNL     1       6.709   4.503  17.480  0.00  0.00    +0.000 OA
ATOM     15  C   UNL     1       5.588   4.308  18.040  0.00  0.00    +0.000 C 
BRANCH  15  16
ATOM     16  O   UNL     1       5.941   4.688  19.372  0.00  0.00    +0.000 OA
ATOM     17  H   UNL     1       6.007   4.111  20.146  0.00  0.00    +0.000 HD
ENDBRANCH  15  16
ENDBRANCH  13  15
ENDBRANCH  12  13
ENDBRANCH  11  12
ENDBRANCH  10  11
ENDBRANCH   9  10
ENDBRANCH   8   9
ENDBRANCH   7   8
ENDBRANCH   6   7
ENDBRANCH   1   6
BRANCH   3  18
ATOM     18  C   UNL     1       0.882  11.345  19.209  0.00  0.00    +0.000 C 
BRANCH  18  19
ATOM     19  C   UNL     1      -0.217  11.430  20.269  0.00  0.00    +0.000 C 
BRANCH  19  20
ATOM     20  C   UNL     1      -1.597  11.725  19.768  0.00  0.00    +0.000 A 
ATOM     21  C   UNL     1      -2.602  12.496  20.357  0.00  0.00    +0.000 A 
ATOM     22  N   UNL     1      -3.763  12.663  19.592  0.00  0.00    +0.000 N 
ATOM     23  C   UNL     1      -3.663  12.038  18.372  0.00  0.00    +0.000 A 
ATOM     24  C   UNL     1      -4.704  11.758  16.933  0.00  0.00    +0.000 A 
ATOM     25  C   UNL     1      -4.140  10.579  15.655  0.00  0.00    +0.000 A 
ATOM     26  C   UNL     1      -2.567   9.794  15.796  0.00  0.00    +0.000 A 
ATOM     27  C   UNL     1      -1.604  10.016  17.285  0.00  0.00    +0.000 A 
ATOM     28  C   UNL     1      -2.141  11.179  18.574  0.00  0.00    +0.000 A 
ATOM     29  H   UNL     1      -4.627  13.046  19.952  0.00  0.00    +0.000 HD
ENDBRANCH  19  20
ENDBRANCH  18  19
ENDBRANCH   3  18
TORSDOF 13
ENDMDL
MODEL 3
REMARK VINA RESULT:      -7.2      4.871     10.523
REMARK  Name = 
REMARK  13 active torsions:
REMARK  status: ('A' for Active; 'I' for Inactive)
REMARK    1  A    between atoms: C_2  and  O_3
REMARK    2  A    between atoms: C_2  and  C_4
REMARK    3  A    between atoms: C_4  and  C_5
REMARK    4  A    between atoms: C_5  and  C_6
REMARK    5  A    between atoms: C_6  and  C_7
REMARK    6  A    between atoms: C_7  and  C_8
REMARK    7  A    between atoms: C_8  and  C_9
REMARK    8  A    between atoms: C_9  and  C_10
REMARK    9  A    between atoms: C_10  and  C_11
REMARK   10  A    between atoms: C_11  and  C_12
REMARK   11  A    between atoms: N_14  and  C_15
REMARK   12  A    between atoms: C_15  and  C_16
REMARK   13  A    between atoms: C_16  and  C_17
REMARK                            x       y       z     vdW  Elec       q    Type
REMARK                         _______ _______ _______ _____ _____    ______ ____
ROOT
ATOM      1  C   UNL     1       7.847   6.825  18.321  0.00  0.00    +0.000 A 
ATOM      2  C   UNL     1       7.061   6.512  17.235  0.00  0.00    +0.000 A 
ATOM      3  N   UNL     1       6.990   5.155  17.232  0.00  0.00    +0.000 N 
ATOM      4  N   UNL     1       7.547   4.661  18.357  0.00  0.00    +0.000 NA
ATOM      5  N   UNL     1       8.087   5.677  19.023  0.00  0.00    +0.000 NA
ENDROOT
BRANCH   1   6
ATOM      6  C   UNL     1       8.416   8.143  18.720  0.00  0.00    +0.000 C 
BRANCH   6   7
ATOM      7  C   UNL     1       8.224   9.252  17.672  0.00  0.00    +0.000 C 
BRANCH   7   8
ATOM      8  C   UNL     1       8.427  10.676  18.196  0.00  0.00    +0.000 C 
BRANCH   8   9
ATOM      9  C   UNL     1       9.843  10.927  18.735  0.00  0.00    +0.000 C 
BRANCH   9  10
ATOM     10  C   UNL     1      10.801  11.473  17.669  0.00  0.00    +0.000 C 
BRANCH  10  11
ATOM     11  C   UNL     1      10.818  12.990  17.606  0.00  0.00    +0.000 C 
BRANCH  11  12
ATOM     12  C   UNL     1      10.467  13.670  18.936  0.00  0.00    +0.000 C 
BRANCH  12  13
ATOM     13  C   UNL     1       9.745  15.268  18.851  0.00  0.00    +0.000 C 
BRANCH  13  15
ATOM     14  O   UNL     1      10.537  18.337  18.651  0.00  0.00    +0.000 OA
ATOM     15  C   UNL     1      10.383  17.212  18.084  0.00  0.00    +0.000 C 
BRANCH  15  16
ATOM     16  O   UNL     1      10.786  17.578  16.763  0.00  0.00    +0.000 OA
ATOM     17  H   UNL     1      10.453  17.217  15.930  0.00  0.00    +0.000 HD
ENDBRANCH  15  16
ENDBRANCH  13  15
ENDBRANCH  12  13
ENDBRANCH  11  12
ENDBRANCH  10  11
ENDBRANCH   9  10
ENDBRANCH   8   9
ENDBRANCH   7   8
ENDBRANCH   6   7
ENDBRANCH   1   6
BRANCH   3  18
ATOM     18  C   UNL     1       6.432   4.236  16.263  0.00  0.00    +0.000 C 
BRANCH  18  19
ATOM     19  C   UNL     1       4.919   4.236  16.033  0.00  0.00    +0.000 C 
BRANCH  19  20
ATOM     20  C   UNL     1       4.070   3.893  17.217  0.00  0.00    +0.000 A 
ATOM     21  C   UNL     1       3.751   2.636  17.737  0.00  0.00    +0.000 A 
ATOM     22  N   UNL     1       3.005   2.644  18.923  0.00  0.00    +0.000 N 
ATOM     23  C   UNL     1       2.754   3.923  19.358  0.00  0.00    +0.000 A 
ATOM     24  C   UNL     1       1.855   4.719  20.696  0.00  0.00    +0.000 A 
ATOM     25  C   UNL     1       1.615   6.530  20.640  0.00  0.00    +0.000 A 
ATOM     26  C   UNL     1       2.321   7.484  19.336  0.00  0.00    +0.000 A 
ATOM     27  C   UNL     1       3.121   6.652  17.971  0.00  0.00    +0.000 A 
ATOM     28  C   UNL     1       3.372   4.853  17.998  0.00  0.00    +0.000 A 
ATOM     29  H   UNL     1       2.562   1.825  19.316  0.00  0.00    +0.000 HD
ENDBRANCH  19  20
ENDBRANCH  18  19
ENDBRANCH   3  18
TORSDOF 13
ENDMDL
MODEL 4
REMARK VINA RESULT:      -7.1      6.050      9.236
REMARK  Name = 
REMARK  13 active torsions:
REMARK  status: ('A' for Active; 'I' for Inactive)
REMARK    1  A    between atoms: C_2  and  O_3
REMARK    2  A    between atoms: C_2  and  C_4
REMARK    3  A    between atoms: C_4  and  C_5
REMARK    4  A    between atoms: C_5  and  C_6
REMARK    5  A    between atoms: C_6  and  C_7
REMARK    6  A    between atoms: C_7  and  C_8
REMARK    7  A    between atoms: C_8  and  C_9
REMARK    8  A    between atoms: C_9  and  C_10
REMARK    9  A    between atoms: C_10  and  C_11
REMARK   10  A    between atoms: C_11  and  C_12
REMARK   11  A    between atoms: N_14  and  C_15
REMARK   12  A    between atoms: C_15  and  C_16
REMARK   13  A    between atoms: C_16  and  C_17
REMARK                            x       y       z     vdW  Elec       q    Type
REMARK                         _______ _______ _______ _____ _____    ______ ____
ROOT
ATOM      1  C   UNL     1       2.170   6.659  20.137  0.00  0.00    +0.000 A 
ATOM      2  C   UNL     1       2.346   7.389  18.983  0.00  0.00    +0.000 A 
ATOM      3  N   UNL     1       1.608   8.515  19.165  0.00  0.00    +0.000 N 
ATOM      4  N   UNL     1       1.149   8.567  20.433  0.00  0.00    +0.000 NA
ATOM      5  N   UNL     1       1.477   7.427  21.031  0.00  0.00    +0.000 NA
ENDROOT
BRANCH   1   6
ATOM      6  C   UNL     1       2.589   5.261  20.437  0.00  0.00    +0.000 C 
BRANCH   6   7
ATOM      7  C   UNL     1       1.435   4.339  20.865  0.00  0.00    +0.000 C 
BRANCH   7   8
ATOM      8  C   UNL     1       1.285   3.064  20.031  0.00  0.00    +0.000 C 
BRANCH   8   9
ATOM      9  C   UNL     1       0.617   3.306  18.670  0.00  0.00    +0.000 C 
BRANCH   9  10
ATOM     10  C   UNL     1       1.590   3.839  17.612  0.00  0.00    +0.000 C 
BRANCH  10  11
ATOM     11  C   UNL     1       2.703   2.860  17.280  0.00  0.00    +0.000 C 
BRANCH  11  12
ATOM     12  C   UNL     1       4.048   3.206  17.933  0.00  0.00    +0.000 C 
BRANCH  12  13
ATOM     13  C   UNL     1       4.890   4.623  17.325  0.00  0.00    +0.000 C 
BRANCH  13  15
ATOM     14  O   UNL     1       8.024   4.394  16.871  0.00  0.00    +0.000 OA
ATOM     15  C   UNL     1       6.962   5.084  16.807  0.00  0.00    +0.000 C 
BRANCH  15  16
ATOM     16  O   UNL     1       7.513   6.281  16.254  0.00  0.00    +0.000 OA
ATOM     17  H   UNL     1       7.238   7.190  16.438  0.00  0.00    +0.000 HD
ENDBRANCH  15  16
ENDBRANCH  13  15
ENDBRANCH  12  13
ENDBRANCH  11  12
ENDBRANCH  10  11
ENDBRANCH   9  10
ENDBRANCH   8   9
ENDBRANCH   7   8
ENDBRANCH   6   7
ENDBRANCH   1   6
BRANCH   3  18
ATOM     18  C   UNL     1       1.280   9.592  18.254  0.00  0.00    +0.000 C 
BRANCH  18  19
ATOM     19  C   UNL     1       0.273  10.655  18.701  0.00  0.00    +0.000 C 
BRANCH  19  20
ATOM     20  C   UNL     1      -1.108  10.534  18.136  0.00  0.00    +0.000 A 
ATOM     21  C   UNL     1      -1.548   9.797  17.034  0.00  0.00    +0.000 A 
ATOM     22  N   UNL     1      -2.931   9.811  16.810  0.00  0.00    +0.000 N 
ATOM     23  C   UNL     1      -3.594  10.547  17.762  0.00  0.00    +0.000 A 
ATOM     24  C   UNL     1      -5.281  11.062  18.107  0.00  0.00    +0.000 A 
ATOM     25  C   UNL     1      -5.572  12.311  19.409  0.00  0.00    +0.000 A 
ATOM     26  C   UNL     1      -4.225  12.939  20.361  0.00  0.00    +0.000 A 
ATOM     27  C   UNL     1      -2.553  12.482  19.926  0.00  0.00    +0.000 A 
ATOM     28  C   UNL     1      -2.234  11.244  18.635  0.00  0.00    +0.000 A 
ATOM     29  H   UNL     1      -3.369   9.469  15.965  0.00  0.00    +0.000 HD
ENDBRANCH  19  20
ENDBRANCH  18  19
ENDBRANCH   3  18
TORSDOF 13
ENDMDL
MODEL 5
REMARK VINA RESULT:      -7.1      6.263      8.848
REMARK  Name = 
REMARK  13 active torsions:
REMARK  status: ('A' for Active; 'I' for Inactive)
REMARK    1  A    between atoms: C_2  and  O_3
REMARK    2  A    between atoms: C_2  and  C_4
REMARK    3  A    between atoms: C_4  and  C_5
REMARK    4  A    between atoms: C_5  and  C_6
REMARK    5  A    between atoms: C_6  and  C_7
REMARK    6  A    between atoms: C_7  and  C_8
REMARK    7  A    between atoms: C_8  and  C_9
REMARK    8  A    between atoms: C_9  and  C_10
REMARK    9  A    between atoms: C_10  and  C_11
REMARK   10  A    between atoms: C_11  and  C_12
REMARK   11  A    between atoms: N_14  and  C_15
REMARK   12  A    between atoms: C_15  and  C_16
REMARK   13  A    between atoms: C_16  and  C_17
REMARK                            x       y       z     vdW  Elec       q    Type
REMARK                         _______ _______ _______ _____ _____    ______ ____
ROOT
ATOM      1  C   UNL     1       1.820   7.094  20.323  0.00  0.00    +0.000 A 
ATOM      2  C   UNL     1       2.080   7.843  19.198  0.00  0.00    +0.000 A 
ATOM      3  N   UNL     1       1.394   9.002  19.381  0.00  0.00    +0.000 N 
ATOM      4  N   UNL     1       0.887   9.045  20.631  0.00  0.00    +0.000 NA
ATOM      5  N   UNL     1       1.131   7.875  21.210  0.00  0.00    +0.000 NA
ENDROOT
BRANCH   1   6
ATOM      6  C   UNL     1       2.154   5.669  20.601  0.00  0.00    +0.000 C 
BRANCH   6   7
ATOM      7  C   UNL     1       1.030   4.681  20.244  0.00  0.00    +0.000 C 
BRANCH   7   8
ATOM      8  C   UNL     1       1.273   3.238  20.693  0.00  0.00    +0.000 C 
BRANCH   8   9
ATOM      9  C   UNL     1       2.113   2.426  19.697  0.00  0.00    +0.000 C 
BRANCH   9  10
ATOM     10  C   UNL     1       3.586   2.315  20.108  0.00  0.00    +0.000 C 
BRANCH  10  11
ATOM     11  C   UNL     1       4.522   3.065  19.176  0.00  0.00    +0.000 C 
BRANCH  11  12
ATOM     12  C   UNL     1       3.829   3.640  17.933  0.00  0.00    +0.000 C 
BRANCH  12  13
ATOM     13  C   UNL     1       4.791   4.671  16.886  0.00  0.00    +0.000 C 
BRANCH  13  15
ATOM     14  O   UNL     1       7.503   5.357  15.384  0.00  0.00    +0.000 OA
ATOM     15  C   UNL     1       6.903   4.771  16.336  0.00  0.00    +0.000 C 
BRANCH  15  16
ATOM     16  O   UNL     1       8.039   4.200  16.990  0.00  0.00    +0.000 OA
ATOM     17  H   UNL     1       8.072   3.369  17.482  0.00  0.00    +0.000 HD
ENDBRANCH  15  16
ENDBRANCH  13  15
ENDBRANCH  12  13
ENDBRANCH  11  12
ENDBRANCH  10  11
ENDBRANCH   9  10
ENDBRANCH   8   9
ENDBRANCH   7   8
ENDBRANCH   6   7
ENDBRANCH   1   6
BRANCH   3  18
ATOM     18  C   UNL     1       1.160  10.118  18.489  0.00  0.00    +0.000 C 
BRANCH  18  19
ATOM     19  C   UNL     1       0.865  11.494  19.090  0.00  0.00    +0.000 C 
BRANCH  19  20
ATOM     20  C   UNL     1      -0.574  11.903  19.128  0.00  0.00    +0.000 A 
ATOM     21  C   UNL     1      -1.462  12.100  18.068  0.00  0.00    +0.000 A 
ATOM     22  N   UNL     1      -2.783  12.392  18.431  0.00  0.00    +0.000 N 
ATOM     23  C   UNL     1      -2.946  12.400  19.795  0.00  0.00    +0.000 A 
ATOM     24  C   UNL     1      -4.260  12.734  20.975  0.00  0.00    +0.000 A 
ATOM     25  C   UNL     1      -3.839  12.869  22.749  0.00  0.00    +0.000 A 
ATOM     26  C   UNL     1      -2.184  12.597  23.296  0.00  0.00    +0.000 A 
ATOM     27  C   UNL     1      -0.885  12.366  22.090  0.00  0.00    +0.000 A 
ATOM     28  C   UNL     1      -1.275  12.231  20.320  0.00  0.00    +0.000 A 
ATOM     29  H   UNL     1      -3.487  12.722  17.785  0.00  0.00    +0.000 HD
ENDBRANCH  19  20
ENDBRANCH  18  19
ENDBRANCH   3  18
TORSDOF 13
ENDMDL
MODEL 6
REMARK VINA RESULT:      -7.0      6.159      8.741
REMARK  Name = 
REMARK  13 active torsions:
REMARK  status: ('A' for Active; 'I' for Inactive)
REMARK    1  A    between atoms: C_2  and  O_3
REMARK    2  A    between atoms: C_2  and  C_4
REMARK    3  A    between atoms: C_4  and  C_5
REMARK    4  A    between atoms: C_5  and  C_6
REMARK    5  A    between atoms: C_6  and  C_7
REMARK    6  A    between atoms: C_7  and  C_8
REMARK    7  A    between atoms: C_8  and  C_9
REMARK    8  A    between atoms: C_9  and  C_10
REMARK    9  A    between atoms: C_10  and  C_11
REMARK   10  A    between atoms: C_11  and  C_12
REMARK   11  A    between atoms: N_14  and  C_15
REMARK   12  A    between atoms: C_15  and  C_16
REMARK   13  A    between atoms: C_16  and  C_17
REMARK                            x       y       z     vdW  Elec       q    Type
REMARK                         _______ _______ _______ _____ _____    ______ ____
ROOT
ATOM      1  C   UNL     1       2.419   6.293  19.955  0.00  0.00    +0.000 A 
ATOM      2  C   UNL     1       2.687   7.104  18.875  0.00  0.00    +0.000 A 
ATOM      3  N   UNL     1       1.966   8.234  19.097  0.00  0.00    +0.000 N 
ATOM      4  N   UNL     1       1.426   8.202  20.333  0.00  0.00    +0.000 NA
ATOM      5  N   UNL     1       1.686   7.011  20.860  0.00  0.00    +0.000 NA
ENDROOT
BRANCH   1   6
ATOM      6  C   UNL     1       2.783   4.864  20.172  0.00  0.00    +0.000 C 
BRANCH   6   7
ATOM      7  C   UNL     1       1.975   4.173  21.282  0.00  0.00    +0.000 C 
BRANCH   7   8
ATOM      8  C   UNL     1       1.542   2.738  20.967  0.00  0.00    +0.000 C 
BRANCH   8   9
ATOM      9  C   UNL     1       1.720   2.363  19.489  0.00  0.00    +0.000 C 
BRANCH   9  10
ATOM     10  C   UNL     1       3.154   1.944  19.147  0.00  0.00    +0.000 C 
BRANCH  10  11
ATOM     11  C   UNL     1       3.480   2.089  17.670  0.00  0.00    +0.000 C 
BRANCH  11  12
ATOM     12  C   UNL     1       3.125   3.464  17.090  0.00  0.00    +0.000 C 
BRANCH  12  13
ATOM     13  C   UNL     1       4.458   4.557  16.753  0.00  0.00    +0.000 C 
BRANCH  13  15
ATOM     14  O   UNL     1       7.578   4.652  16.175  0.00  0.00    +0.000 OA
ATOM     15  C   UNL     1       6.628   4.468  16.994  0.00  0.00    +0.000 C 
BRANCH  15  16
ATOM     16  O   UNL     1       7.399   4.207  18.168  0.00  0.00    +0.000 OA
ATOM     17  H   UNL     1       7.168   3.619  18.900  0.00  0.00    +0.000 HD
ENDBRANCH  15  16
ENDBRANCH  13  15
ENDBRANCH  12  13
ENDBRANCH  11  12
ENDBRANCH  10  11
ENDBRANCH   9  10
ENDBRANCH   8   9
ENDBRANCH   7   8
ENDBRANCH   6   7
ENDBRANCH   1   6
BRANCH   3  18
ATOM     18  C   UNL     1       1.725   9.386  18.254  0.00  0.00    +0.000 C 
BRANCH  18  19
ATOM     19  C   UNL     1       0.291   9.697  17.823  0.00  0.00    +0.000 C 
BRANCH  19  20
ATOM     20  C   UNL     1      -0.475  10.636  18.702  0.00  0.00    +0.000 A 
ATOM     21  C   UNL     1      -0.008  11.455  19.733  0.00  0.00    +0.000 A 
ATOM     22  N   UNL     1      -0.963  12.299  20.314  0.00  0.00    +0.000 N 
ATOM     23  C   UNL     1      -2.193  12.164  19.717  0.00  0.00    +0.000 A 
ATOM     24  C   UNL     1      -3.852  12.823  19.929  0.00  0.00    +0.000 A 
ATOM     25  C   UNL     1      -5.227  12.064  18.993  0.00  0.00    +0.000 A 
ATOM     26  C   UNL     1      -4.913  10.761  17.845  0.00  0.00    +0.000 A 
ATOM     27  C   UNL     1      -3.271  10.064  17.733  0.00  0.00    +0.000 A 
ATOM     28  C   UNL     1      -1.886  10.796  18.654  0.00  0.00    +0.000 A 
ATOM     29  H   UNL     1      -0.813  12.816  21.171  0.00  0.00    +0.000 HD
ENDBRANCH  19  20
ENDBRANCH  18  19
ENDBRANCH   3  18
TORSDOF 13
ENDMDL
MODEL 7
REMARK VINA RESULT:      -7.0      3.671     10.252
REMARK  Name = 
REMARK  13 active torsions:
REMARK  status: ('A' for Active; 'I' for Inactive)
REMARK    1  A    between atoms: C_2  and  O_3
REMARK    2  A    between atoms: C_2  and  C_4
REMARK    3  A    between atoms: C_4  and  C_5
REMARK    4  A    between atoms: C_5  and  C_6
REMARK    5  A    between atoms: C_6  and  C_7
REMARK    6  A    between atoms: C_7  and  C_8
REMARK    7  A    between atoms: C_8  and  C_9
REMARK    8  A    between atoms: C_9  and  C_10
REMARK    9  A    between atoms: C_10  and  C_11
REMARK   10  A    between atoms: C_11  and  C_12
REMARK   11  A    between atoms: N_14  and  C_15
REMARK   12  A    between atoms: C_15  and  C_16
REMARK   13  A    between atoms: C_16  and  C_17
REMARK                            x       y       z     vdW  Elec       q    Type
REMARK                         _______ _______ _______ _____ _____    ______ ____
ROOT
ATOM      1  C   UNL     1       8.036   8.273  18.006  0.00  0.00    +0.000 A 
ATOM      2  C   UNL     1       7.176   7.806  17.038  0.00  0.00    +0.000 A 
ATOM      3  N   UNL     1       7.130   6.462  17.228  0.00  0.00    +0.000 N 
ATOM      4  N   UNL     1       7.779   6.133  18.364  0.00  0.00    +0.000 NA
ATOM      5  N   UNL     1       8.349   7.235  18.840  0.00  0.00    +0.000 NA
ENDROOT
BRANCH   1   6
ATOM      6  C   UNL     1       8.610   9.637  18.175  0.00  0.00    +0.000 C 
BRANCH   6   7
ATOM      7  C   UNL     1       9.196   9.903  19.572  0.00  0.00    +0.000 C 
BRANCH   7   8
ATOM      8  C   UNL     1       9.661  11.342  19.813  0.00  0.00    +0.000 C 
BRANCH   8   9
ATOM      9  C   UNL     1       9.276  11.878  21.199  0.00  0.00    +0.000 C 
BRANCH   9  10
ATOM     10  C   UNL     1       9.907  13.240  21.510  0.00  0.00    +0.000 C 
BRANCH  10  11
ATOM     11  C   UNL     1       8.957  14.403  21.285  0.00  0.00    +0.000 C 
BRANCH  11  12
ATOM     12  C   UNL     1       9.377  15.334  20.140  0.00  0.00    +0.000 C 
BRANCH  12  13
ATOM     13  C   UNL     1       9.290  14.685  18.510  0.00  0.00    +0.000 C 
BRANCH  13  15
ATOM     14  O   UNL     1      11.279  12.664  17.081  0.00  0.00    +0.000 OA
ATOM     15  C   UNL     1      10.728  13.806  17.119  0.00  0.00    +0.000 C 
BRANCH  15  16
ATOM     16  O   UNL     1      11.307  14.367  15.939  0.00  0.00    +0.000 OA
ATOM     17  H   UNL     1      12.197  14.732  15.842  0.00  0.00    +0.000 HD
ENDBRANCH  15  16
ENDBRANCH  13  15
ENDBRANCH  12  13
ENDBRANCH  11  12
ENDBRANCH  10  11
ENDBRANCH   9  10
ENDBRANCH   8   9
ENDBRANCH   7   8
ENDBRANCH   6   7
ENDBRANCH   1   6
BRANCH   3  18
ATOM     18  C   UNL     1       6.516   5.413  16.441  0.00  0.00    +0.000 C 
BRANCH  18  19
ATOM     19  C   UNL     1       5.030   5.526  16.092  0.00  0.00    +0.000 C 
BRANCH  19  20
ATOM     20  C   UNL     1       4.092   5.701  17.245  0.00  0.00    +0.000 A 
ATOM     21  C   UNL     1       3.648   6.880  17.848  0.00  0.00    +0.000 A 
ATOM     22  N   UNL     1       2.688   6.720  18.856  0.00  0.00    +0.000 N 
ATOM     23  C   UNL     1       2.351   5.400  19.033  0.00  0.00    +0.000 A 
ATOM     24  C   UNL     1       1.296   4.432  20.120  0.00  0.00    +0.000 A 
ATOM     25  C   UNL     1       1.441   2.610  20.095  0.00  0.00    +0.000 A 
ATOM     26  C   UNL     1       2.541   1.818  18.966  0.00  0.00    +0.000 A 
ATOM     27  C   UNL     1       3.647   2.810  17.973  0.00  0.00    +0.000 A 
ATOM     28  C   UNL     1       3.527   4.624  17.979  0.00  0.00    +0.000 A 
ATOM     29  H   UNL     1       2.405   7.457  19.489  0.00  0.00    +0.000 HD
ENDBRANCH  19  20
ENDBRANCH  18  19
ENDBRANCH   3  18
TORSDOF 13
ENDMDL
MODEL 8
REMARK VINA RESULT:      -6.9      6.524      8.572
REMARK  Name = 
REMARK  13 active torsions:
REMARK  status: ('A' for Active; 'I' for Inactive)
REMARK    1  A    between atoms: C_2  and  O_3
REMARK    2  A    between atoms: C_2  and  C_4
REMARK    3  A    between atoms: C_4  and  C_5
REMARK    4  A    between atoms: C_5  and  C_6
REMARK    5  A    between atoms: C_6  and  C_7
REMARK    6  A    between atoms: C_7  and  C_8
REMARK    7  A    between atoms: C_8  and  C_9
REMARK    8  A    between atoms: C_9  and  C_10
REMARK    9  A    between atoms: C_10  and  C_11
REMARK   10  A    between atoms: C_11  and  C_12
REMARK   11  A    between atoms: N_14  and  C_15
REMARK   12  A    between atoms: C_15  and  C_16
REMARK   13  A    between atoms: C_16  and  C_17
REMARK                            x       y       z     vdW  Elec       q    Type
REMARK                         _______ _______ _______ _____ _____    ______ ____
ROOT
ATOM      1  C   UNL     1       2.445   6.949  19.455  0.00  0.00    +0.000 A 
ATOM      2  C   UNL     1       1.738   7.960  20.066  0.00  0.00    +0.000 A 
ATOM      3  N   UNL     1       1.466   8.849  19.075  0.00  0.00    +0.000 N 
ATOM      4  N   UNL     1       1.823   8.331  17.881  0.00  0.00    +0.000 NA
ATOM      5  N   UNL     1       2.436   7.174  18.106  0.00  0.00    +0.000 NA
ENDROOT
BRANCH   1   6
ATOM      6  C   UNL     1       3.160   5.797  20.071  0.00  0.00    +0.000 C 
BRANCH   6   7
ATOM      7  C   UNL     1       2.260   4.880  20.916  0.00  0.00    +0.000 C 
BRANCH   7   8
ATOM      8  C   UNL     1       1.045   4.311  20.178  0.00  0.00    +0.000 C 
BRANCH   8   9
ATOM      9  C   UNL     1       1.363   3.039  19.379  0.00  0.00    +0.000 C 
BRANCH   9  10
ATOM     10  C   UNL     1       1.625   3.316  17.894  0.00  0.00    +0.000 C 
BRANCH  10  11
ATOM     11  C   UNL     1       3.042   2.974  17.466  0.00  0.00    +0.000 C 
BRANCH  11  12
ATOM     12  C   UNL     1       3.857   4.186  16.995  0.00  0.00    +0.000 C 
BRANCH  12  13
ATOM     13  C   UNL     1       5.449   3.869  16.326  0.00  0.00    +0.000 C 
BRANCH  13  15
ATOM     14  O   UNL     1       7.129   5.145  13.953  0.00  0.00    +0.000 OA
ATOM     15  C   UNL     1       6.404   4.199  14.389  0.00  0.00    +0.000 C 
BRANCH  15  16
ATOM     16  O   UNL     1       6.413   3.366  13.228  0.00  0.00    +0.000 OA
ATOM     17  H   UNL     1       5.957   3.526  12.391  0.00  0.00    +0.000 HD
ENDBRANCH  15  16
ENDBRANCH  13  15
ENDBRANCH  12  13
ENDBRANCH  11  12
ENDBRANCH  10  11
ENDBRANCH   9  10
ENDBRANCH   8   9
ENDBRANCH   7   8
ENDBRANCH   6   7
ENDBRANCH   1   6
BRANCH   3  18
ATOM     18  C   UNL     1       0.880  10.172  19.120  0.00  0.00    +0.000 C 
BRANCH  18  19
ATOM     19  C   UNL     1       1.109  11.038  20.361  0.00  0.00    +0.000 C 
BRANCH  19  20
ATOM     20  C   UNL     1       0.061  10.956  21.426  0.00  0.00    +0.000 A 
ATOM     21  C   UNL     1      -0.067  10.033  22.467  0.00  0.00    +0.000 A 
ATOM     22  N   UNL     1      -1.111  10.278  23.367  0.00  0.00    +0.000 N 
ATOM     23  C   UNL     1      -1.801  11.422  23.048  0.00  0.00    +0.000 A 
ATOM     24  C   UNL     1      -3.235  12.323  23.654  0.00  0.00    +0.000 A 
ATOM     25  C   UNL     1      -3.904  13.694  22.647  0.00  0.00    +0.000 A 
ATOM     26  C   UNL     1      -3.106  14.171  21.147  0.00  0.00    +0.000 A 
ATOM     27  C   UNL     1      -1.746  13.193  20.524  0.00  0.00    +0.000 A 
ATOM     28  C   UNL     1      -1.062  11.823  21.502  0.00  0.00    +0.000 A 
ATOM     29  H   UNL     1      -1.427   9.612  24.061  0.00  0.00    +0.000 HD
ENDBRANCH  19  20
ENDBRANCH  18  19
ENDBRANCH   3  18
TORSDOF 13
ENDMDL
MODEL 9
REMARK VINA RESULT:      -6.9      2.582      3.488
REMARK  Name = 
REMARK  13 active torsions:
REMARK  status: ('A' for Active; 'I' for Inactive)
REMARK    1  A    between atoms: C_2  and  O_3
REMARK    2  A    between atoms: C_2  and  C_4
REMARK    3  A    between atoms: C_4  and  C_5
REMARK    4  A    between atoms: C_5  and  C_6
REMARK    5  A    between atoms: C_6  and  C_7
REMARK    6  A    between atoms: C_7  and  C_8
REMARK    7  A    between atoms: C_8  and  C_9
REMARK    8  A    between atoms: C_9  and  C_10
REMARK    9  A    between atoms: C_10  and  C_11
REMARK   10  A    between atoms: C_11  and  C_12
REMARK   11  A    between atoms: N_14  and  C_15
REMARK   12  A    between atoms: C_15  and  C_16
REMARK   13  A    between atoms: C_16  and  C_17
REMARK                            x       y       z     vdW  Elec       q    Type
REMARK                         _______ _______ _______ _____ _____    ______ ____
ROOT
ATOM      1  C   UNL     1       6.833   5.506  17.861  0.00  0.00    +0.000 A 
ATOM      2  C   UNL     1       6.986   6.710  17.210  0.00  0.00    +0.000 A 
ATOM      3  N   UNL     1       7.781   7.451  18.025  0.00  0.00    +0.000 N 
ATOM      4  N   UNL     1       8.247   6.687  19.035  0.00  0.00    +0.000 NA
ATOM      5  N   UNL     1       7.660   5.498  18.950  0.00  0.00    +0.000 NA
ENDROOT
BRANCH   1   6
ATOM      6  C   UNL     1       5.926   4.370  17.535  0.00  0.00    +0.000 C 
BRANCH   6   7
ATOM      7  C   UNL     1       4.568   4.427  18.255  0.00  0.00    +0.000 C 
BRANCH   7   8
ATOM      8  C   UNL     1       3.500   3.484  17.693  0.00  0.00    +0.000 C 
BRANCH   8   9
ATOM      9  C   UNL     1       3.183   2.305  18.624  0.00  0.00    +0.000 C 
BRANCH   9  10
ATOM     10  C   UNL     1       1.697   2.215  18.989  0.00  0.00    +0.000 C 
BRANCH  10  11
ATOM     11  C   UNL     1       1.035   3.575  19.131  0.00  0.00    +0.000 C 
BRANCH  11  12
ATOM     12  C   UNL     1       1.169   4.186  20.532  0.00  0.00    +0.000 C 
BRANCH  12  13
ATOM     13  C   UNL     1       1.798   5.823  20.634  0.00  0.00    +0.000 C 
BRANCH  13  15
ATOM     14  O   UNL     1      -0.187   8.130  21.540  0.00  0.00    +0.000 OA
ATOM     15  C   UNL     1       0.938   7.784  21.067  0.00  0.00    +0.000 C 
BRANCH  15  16
ATOM     16  O   UNL     1       1.520   9.081  20.919  0.00  0.00    +0.000 OA
ATOM     17  H   UNL     1       2.398   9.364  21.209  0.00  0.00    +0.000 HD
ENDBRANCH  15  16
ENDBRANCH  13  15
ENDBRANCH  12  13
ENDBRANCH  11  12
ENDBRANCH  10  11
ENDBRANCH   9  10
ENDBRANCH   8   9
ENDBRANCH   7   8
ENDBRANCH   6   7
ENDBRANCH   1   6
BRANCH   3  18
ATOM     18  C   UNL     1       8.176   8.842  17.956  0.00  0.00    +0.000 C 
BRANCH  18  19
ATOM     19  C   UNL     1       8.974   9.441  19.117  0.00  0.00    +0.000 C 
BRANCH  19  20
ATOM     20  C   UNL     1       9.584  10.786  18.875  0.00  0.00    +0.000 A 
ATOM     21  C   UNL     1      10.256  11.258  17.745  0.00  0.00    +0.000 A 
ATOM     22  N   UNL     1      10.632  12.606  17.784  0.00  0.00    +0.000 N 
ATOM     23  C   UNL     1      10.230  13.214  18.948  0.00  0.00    +0.000 A 
ATOM     24  C   UNL     1      10.384  14.826  19.728  0.00  0.00    +0.000 A 
ATOM     25  C   UNL     1       9.870  15.014  21.472  0.00  0.00    +0.000 A 
ATOM     26  C   UNL     1       9.164  13.653  22.346  0.00  0.00    +0.000 A 
ATOM     27  C   UNL     1       9.118  12.041  21.575  0.00  0.00    +0.000 A 
ATOM     28  C   UNL     1       9.624  11.825  19.843  0.00  0.00    +0.000 A 
ATOM     29  H   UNL     1      11.265  13.035  17.121  0.00  0.00    +0.000 HD
ENDBRANCH  19  20
ENDBRANCH  18  19
ENDBRANCH   3  18
TORSDOF 13
ENDMDL
