MODEL 1
REMARK VINA RESULT:      -7.0      0.000      0.000
REMARK  Name = 
REMARK  3 active torsions:
REMARK  status: ('A' for Active; 'I' for Inactive)
REMARK    1  A    between atoms: C_2  and  C_13
REMARK    2  A    between atoms: N_3  and  C_4
REMARK    3  A    between atoms: C_4  and  C_5
REMARK                            x       y       z     vdW  Elec       q    Type
REMARK                         _______ _______ _______ _____ _____    ______ ____
ROOT
ATOM      1  O   UNL     1       7.710   4.936  16.775  0.00  0.00    +0.000 OA
ATOM      2  C   UNL     1       6.712   4.668  16.112  0.00  0.00    +0.000 C 
ATOM      3  N   UNL     1       5.579   4.100  16.650  0.00  0.00    +0.000 N 
ATOM      4  H   UNL     1       4.741   4.190  16.080  0.00  0.00    +0.000 HD
ENDROOT
BRANCH   2   5
ATOM      5  C   UNL     1       6.640   4.890  14.590  0.00  0.00    +0.000 C 
ATOM      6  C   UNL     1       6.136   3.610  13.906  0.00  0.00    +0.000 C 
ATOM      7  O   UNL     1       6.061   3.780  12.480  0.00  0.00    +0.000 OA
ATOM      8  C   UNL     1       7.345   4.129  11.949  0.00  0.00    +0.000 C 
ATOM      9  C   UNL     1       7.871   5.423  12.584  0.00  0.00    +0.000 C 
ATOM     10  N   UNL     1       7.971   5.329  14.053  0.00  0.00    +0.000 NA
ATOM     11  H   UNL     1       8.154   6.266  14.418  0.00  0.00    +0.000 HD
ENDBRANCH   2   5
BRANCH   3  12
ATOM     12  C   UNL     1       5.450   3.822  18.059  0.00  0.00    +0.000 C 
BRANCH  12  13
ATOM     13  C   UNL     1       4.003   3.817  18.479  0.00  0.00    +0.000 A 
ATOM     14  C   UNL     1       3.006   4.240  17.586  0.00  0.00    +0.000 A 
ATOM     15  C   UNL     1       1.666   4.202  17.962  0.00  0.00    +0.000 A 
ATOM     16  F   UNL     1       0.730   4.611  17.096  0.00  0.00    +0.000 F 
ATOM     17  C   UNL     1       1.283   3.744  19.214  0.00  0.00    +0.000 A 
ATOM     18  C   UNL     1       2.266   3.321  20.104  0.00  0.00    +0.000 A 
ATOM     19 BR   UNL     1       1.765   2.678  21.810  0.00  0.00    +0.000 Br
ATOM     20  C   UNL     1       3.618   3.357  19.748  0.00  0.00    +0.000 A 
ENDBRANCH  12  13
ENDBRANCH   3  12
TORSDOF 3
ENDMDL
MODEL 2
REMARK VINA RESULT:      -6.7      3.800      4.362
REMARK  Name = 
REMARK  3 active torsions:
REMARK  status: ('A' for Active; 'I' for Inactive)
REMARK    1  A    between atoms: C_2  and  C_13
REMARK    2  A    between atoms: N_3  and  C_4
REMARK    3  A    between atoms: C_4  and  C_5
REMARK                            x       y       z     vdW  Elec       q    Type
REMARK                         _______ _______ _______ _____ _____    ______ ____
ROOT
ATOM      1  O   UNL     1       5.681   5.287  19.759  0.00  0.00    +0.000 OA
ATOM      2  C   UNL     1       5.090   5.425  18.691  0.00  0.00    +0.000 C 
ATOM      3  N   UNL     1       3.734   5.646  18.603  0.00  0.00    +0.000 N 
ATOM      4  H   UNL     1       3.417   6.021  17.712  0.00  0.00    +0.000 HD
ENDROOT
BRANCH   2   5
ATOM      5  C   UNL     1       5.799   5.313  17.329  0.00  0.00    +0.000 C 
ATOM      6  C   UNL     1       5.061   6.175  16.293  0.00  0.00    +0.000 C 
ATOM      7  O   UNL     1       5.695   6.091  15.005  0.00  0.00    +0.000 OA
ATOM      8  C   UNL     1       5.731   4.732  14.553  0.00  0.00    +0.000 C 
ATOM      9  C   UNL     1       6.490   3.842  15.546  0.00  0.00    +0.000 C 
ATOM     10  N   UNL     1       5.901   3.879  16.899  0.00  0.00    +0.000 NA
ATOM     11  H   UNL     1       6.548   3.413  17.538  0.00  0.00    +0.000 HD
ENDBRANCH   2   5
BRANCH   3  12
ATOM     12  C   UNL     1       2.898   5.787  19.768  0.00  0.00    +0.000 C 
BRANCH  12  13
ATOM     13  C   UNL     1       2.211   7.128  19.781  0.00  0.00    +0.000 A 
ATOM     14  C   UNL     1       2.222   7.939  18.635  0.00  0.00    +0.000 A 
ATOM     15  C   UNL     1       1.557   9.163  18.636  0.00  0.00    +0.000 A 
ATOM     16  F   UNL     1       1.580   9.922  17.533  0.00  0.00    +0.000 F 
ATOM     17  C   UNL     1       0.869   9.607  19.756  0.00  0.00    +0.000 A 
ATOM     18  C   UNL     1       0.852   8.807  20.895  0.00  0.00    +0.000 A 
ATOM     19 BR   UNL     1      -0.093   9.385  22.427  0.00  0.00    +0.000 Br
ATOM     20  C   UNL     1       1.518   7.577  20.916  0.00  0.00    +0.000 A 
ENDBRANCH  12  13
ENDBRANCH   3  12
TORSDOF 3
ENDMDL
MODEL 3
REMARK VINA RESULT:      -6.7      2.339      2.572
REMARK  Name = 
REMARK  3 active torsions:
REMARK  status: ('A' for Active; 'I' for Inactive)
REMARK    1  A    between atoms: C_2  and  C_13
REMARK    2  A    between atoms: N_3  and  C_4
REMARK    3  A    between atoms: C_4  and  C_5
REMARK                            x       y       z     vdW  Elec       q    Type
REMARK                         _______ _______ _______ _____ _____    ______ ____
ROOT
ATOM      1  O   UNL     1       7.706   4.695  16.788  0.00  0.00    +0.000 OA
ATOM      2  C   UNL     1       6.654   4.665  16.156  0.00  0.00    +0.000 C 
ATOM      3  N   UNL     1       5.437   4.375  16.731  0.00  0.00    +0.000 N 
ATOM      4  H   UNL     1       4.626   4.656  16.185  0.00  0.00    +0.000 HD
ENDROOT
BRANCH   2   5
ATOM      5  C   UNL     1       6.590   4.899  14.635  0.00  0.00    +0.000 C 
ATOM      6  C   UNL     1       6.120   3.614  13.936  0.00  0.00    +0.000 C 
ATOM      7  O   UNL     1       6.052   3.795  12.512  0.00  0.00    +0.000 OA
ATOM      8  C   UNL     1       7.333   4.177  11.994  0.00  0.00    +0.000 C 
ATOM      9  C   UNL     1       7.825   5.476  12.645  0.00  0.00    +0.000 C 
ATOM     10  N   UNL     1       7.915   5.372  14.114  0.00  0.00    +0.000 NA
ATOM     11  H   UNL     1       8.075   6.309  14.488  0.00  0.00    +0.000 HD
ENDBRANCH   2   5
BRANCH   3  12
ATOM     12  C   UNL     1       5.289   4.133  18.144  0.00  0.00    +0.000 C 
BRANCH  12  13
ATOM     13  C   UNL     1       4.147   4.933  18.713  0.00  0.00    +0.000 A 
ATOM     14  C   UNL     1       3.479   4.491  19.866  0.00  0.00    +0.000 A 
ATOM     15  C   UNL     1       2.446   5.248  20.412  0.00  0.00    +0.000 A 
ATOM     16  F   UNL     1       1.822   4.808  21.512  0.00  0.00    +0.000 F 
ATOM     17  C   UNL     1       2.057   6.451  19.842  0.00  0.00    +0.000 A 
ATOM     18  C   UNL     1       2.715   6.897  18.699  0.00  0.00    +0.000 A 
ATOM     19 BR   UNL     1       2.211   8.541  17.914  0.00  0.00    +0.000 Br
ATOM     20  C   UNL     1       3.752   6.148  18.132  0.00  0.00    +0.000 A 
ENDBRANCH  12  13
ENDBRANCH   3  12
TORSDOF 3
ENDMDL
MODEL 4
REMARK VINA RESULT:      -6.6      4.031      7.094
REMARK  Name = 
REMARK  3 active torsions:
REMARK  status: ('A' for Active; 'I' for Inactive)
REMARK    1  A    between atoms: C_2  and  C_13
REMARK    2  A    between atoms: N_3  and  C_4
REMARK    3  A    between atoms: C_4  and  C_5
REMARK                            x       y       z     vdW  Elec       q    Type
REMARK                         _______ _______ _______ _____ _____    ______ ____
ROOT
ATOM      1  O   UNL     1       4.656   5.435  17.996  0.00  0.00    +0.000 OA
ATOM      2  C   UNL     1       4.561   4.299  17.540  0.00  0.00    +0.000 C 
ATOM      3  N   UNL     1       5.492   3.748  16.688  0.00  0.00    +0.000 N 
ATOM      4  H   UNL     1       5.457   2.735  16.611  0.00  0.00    +0.000 HD
ENDROOT
BRANCH   2   5
ATOM      5  C   UNL     1       3.359   3.383  17.834  0.00  0.00    +0.000 C 
ATOM      6  C   UNL     1       2.053   4.168  17.638  0.00  0.00    +0.000 C 
ATOM      7  O   UNL     1       0.908   3.343  17.909  0.00  0.00    +0.000 OA
ATOM      8  C   UNL     1       0.961   2.835  19.248  0.00  0.00    +0.000 C 
ATOM      9  C   UNL     1       2.238   2.016  19.476  0.00  0.00    +0.000 C 
ATOM     10  N   UNL     1       3.463   2.795  19.211  0.00  0.00    +0.000 NA
ATOM     11  H   UNL     1       4.254   2.149  19.210  0.00  0.00    +0.000 HD
ENDBRANCH   2   5
BRANCH   3  12
ATOM     12  C   UNL     1       6.691   4.447  16.299  0.00  0.00    +0.000 C 
BRANCH  12  13
ATOM     13  C   UNL     1       6.834   4.482  14.799  0.00  0.00    +0.000 A 
ATOM     14  C   UNL     1       7.722   5.385  14.195  0.00  0.00    +0.000 A 
ATOM     15  C   UNL     1       7.879   5.394  12.811  0.00  0.00    +0.000 A 
ATOM     16  F   UNL     1       8.731   6.264  12.254  0.00  0.00    +0.000 F 
ATOM     17  C   UNL     1       7.176   4.514  12.002  0.00  0.00    +0.000 A 
ATOM     18  C   UNL     1       6.294   3.614  12.594  0.00  0.00    +0.000 A 
ATOM     19 BR   UNL     1       5.337   2.397  11.511  0.00  0.00    +0.000 Br
ATOM     20  C   UNL     1       6.117   3.594  13.982  0.00  0.00    +0.000 A 
ENDBRANCH  12  13
ENDBRANCH   3  12
TORSDOF 3
ENDMDL
MODEL 5
REMARK VINA RESULT:      -6.6      1.794      1.952
REMARK  Name = 
REMARK  3 active torsions:
REMARK  status: ('A' for Active; 'I' for Inactive)
REMARK    1  A    between atoms: C_2  and  C_13
REMARK    2  A    between atoms: N_3  and  C_4
REMARK    3  A    between atoms: C_4  and  C_5
REMARK                            x       y       z     vdW  Elec       q    Type
REMARK                         _______ _______ _______ _____ _____    ______ ____
ROOT
ATOM      1  O   UNL     1       7.561   6.203  16.595  0.00  0.00    +0.000 OA
ATOM      2  C   UNL     1       6.752   5.407  16.124  0.00  0.00    +0.000 C 
ATOM      3  N   UNL     1       5.983   4.567  16.898  0.00  0.00    +0.000 N 
ATOM      4  H   UNL     1       5.171   4.174  16.428  0.00  0.00    +0.000 HD
ENDROOT
BRANCH   2   5
ATOM      5  C   UNL     1       6.550   5.225  14.609  0.00  0.00    +0.000 C 
ATOM      6  C   UNL     1       6.028   3.809  14.325  0.00  0.00    +0.000 C 
ATOM      7  O   UNL     1       5.831   3.602  12.916  0.00  0.00    +0.000 OA
ATOM      8  C   UNL     1       7.058   3.808  12.204  0.00  0.00    +0.000 C 
ATOM      9  C   UNL     1       7.597   5.226  12.435  0.00  0.00    +0.000 C 
ATOM     10  N   UNL     1       7.820   5.518  13.864  0.00  0.00    +0.000 NA
ATOM     11  H   UNL     1       8.006   6.518  13.957  0.00  0.00    +0.000 HD
ENDBRANCH   2   5
BRANCH   3  12
ATOM     12  C   UNL     1       6.025   4.591  18.338  0.00  0.00    +0.000 C 
BRANCH  12  13
ATOM     13  C   UNL     1       4.635   4.558  18.920  0.00  0.00    +0.000 A 
ATOM     14  C   UNL     1       3.995   3.330  19.151  0.00  0.00    +0.000 A 
ATOM     15  C   UNL     1       2.724   3.299  19.721  0.00  0.00    +0.000 A 
ATOM     16  F   UNL     1       2.130   2.118  19.933  0.00  0.00    +0.000 F 
ATOM     17  C   UNL     1       2.067   4.468  20.079  0.00  0.00    +0.000 A 
ATOM     18  C   UNL     1       2.697   5.688  19.854  0.00  0.00    +0.000 A 
ATOM     19 BR   UNL     1       1.827   7.292  20.348  0.00  0.00    +0.000 Br
ATOM     20  C   UNL     1       3.970   5.741  19.277  0.00  0.00    +0.000 A 
ENDBRANCH  12  13
ENDBRANCH   3  12
TORSDOF 3
ENDMDL
MODEL 6
REMARK VINA RESULT:      -6.6      1.358      1.368
REMARK  Name = 
REMARK  3 active torsions:
REMARK  status: ('A' for Active; 'I' for Inactive)
REMARK    1  A    between atoms: C_2  and  C_13
REMARK    2  A    between atoms: N_3  and  C_4
REMARK    3  A    between atoms: C_4  and  C_5
REMARK                            x       y       z     vdW  Elec       q    Type
REMARK                         _______ _______ _______ _____ _____    ______ ____
ROOT
ATOM      1  O   UNL     1       7.060   6.466  16.553  0.00  0.00    +0.000 OA
ATOM      2  C   UNL     1       6.547   5.459  16.072  0.00  0.00    +0.000 C 
ATOM      3  N   UNL     1       6.070   4.418  16.836  0.00  0.00    +0.000 N 
ATOM      4  H   UNL     1       5.428   3.792  16.356  0.00  0.00    +0.000 HD
ENDROOT
BRANCH   2   5
ATOM      5  C   UNL     1       6.431   5.229  14.555  0.00  0.00    +0.000 C 
ATOM      6  C   UNL     1       5.829   3.841  14.289  0.00  0.00    +0.000 C 
ATOM      7  O   UNL     1       5.709   3.590  12.878  0.00  0.00    +0.000 OA
ATOM      8  C   UNL     1       6.991   3.681  12.243  0.00  0.00    +0.000 C 
ATOM      9  C   UNL     1       7.614   5.067  12.458  0.00  0.00    +0.000 C 
ATOM     10  N   UNL     1       7.764   5.402  13.887  0.00  0.00    +0.000 NA
ATOM     11  H   UNL     1       8.015   6.390  13.955  0.00  0.00    +0.000 HD
ENDBRANCH   2   5
BRANCH   3  12
ATOM     12  C   UNL     1       6.084   4.448  18.277  0.00  0.00    +0.000 C 
BRANCH  12  13
ATOM     13  C   UNL     1       4.712   4.745  18.825  0.00  0.00    +0.000 A 
ATOM     14  C   UNL     1       4.018   5.892  18.410  0.00  0.00    +0.000 A 
ATOM     15  C   UNL     1       2.736   6.148  18.890  0.00  0.00    +0.000 A 
ATOM     16  F   UNL     1       2.091   7.248  18.482  0.00  0.00    +0.000 F 
ATOM     17  C   UNL     1       2.114   5.281  19.777  0.00  0.00    +0.000 A 
ATOM     18  C   UNL     1       2.795   4.140  20.191  0.00  0.00    +0.000 A 
ATOM     19 BR   UNL     1       1.960   2.938  21.387  0.00  0.00    +0.000 Br
ATOM     20  C   UNL     1       4.086   3.869  19.725  0.00  0.00    +0.000 A 
ENDBRANCH  12  13
ENDBRANCH   3  12
TORSDOF 3
ENDMDL
MODEL 7
REMARK VINA RESULT:      -6.5      4.609      7.313
REMARK  Name = 
REMARK  3 active torsions:
REMARK  status: ('A' for Active; 'I' for Inactive)
REMARK    1  A    between atoms: C_2  and  C_13
REMARK    2  A    between atoms: N_3  and  C_4
REMARK    3  A    between atoms: C_4  and  C_5
REMARK                            x       y       z     vdW  Elec       q    Type
REMARK                         _______ _______ _______ _____ _____    ______ ____
ROOT
ATOM      1  O   UNL     1       2.403   7.320  19.699  0.00  0.00    +0.000 OA
ATOM      2  C   UNL     1       2.481   6.122  19.440  0.00  0.00    +0.000 C 
ATOM      3  N   UNL     1       3.208   5.625  18.381  0.00  0.00    +0.000 N 
ATOM      4  H   UNL     1       3.427   4.634  18.438  0.00  0.00    +0.000 HD
ENDROOT
BRANCH   2   5
ATOM      5  C   UNL     1       1.728   5.047  20.244  0.00  0.00    +0.000 C 
ATOM      6  C   UNL     1       2.643   4.494  21.347  0.00  0.00    +0.000 C 
ATOM      7  O   UNL     1       1.972   3.482  22.117  0.00  0.00    +0.000 OA
ATOM      8  C   UNL     1       1.546   2.408  21.270  0.00  0.00    +0.000 C 
ATOM      9  C   UNL     1       0.602   2.914  20.171  0.00  0.00    +0.000 C 
ATOM     10  N   UNL     1       1.219   3.964  19.338  0.00  0.00    +0.000 NA
ATOM     11  H   UNL     1       0.488   4.373  18.753  0.00  0.00    +0.000 HD
ENDBRANCH   2   5
BRANCH   3  12
ATOM     12  C   UNL     1       3.987   6.473  17.515  0.00  0.00    +0.000 C 
BRANCH  12  13
ATOM     13  C   UNL     1       5.154   5.721  16.928  0.00  0.00    +0.000 A 
ATOM     14  C   UNL     1       6.256   5.388  17.731  0.00  0.00    +0.000 A 
ATOM     15  C   UNL     1       7.318   4.662  17.197  0.00  0.00    +0.000 A 
ATOM     16  F   UNL     1       8.361   4.356  17.980  0.00  0.00    +0.000 F 
ATOM     17  C   UNL     1       7.313   4.248  15.873  0.00  0.00    +0.000 A 
ATOM     18  C   UNL     1       6.222   4.572  15.072  0.00  0.00    +0.000 A 
ATOM     19 BR   UNL     1       6.187   4.004  13.270  0.00  0.00    +0.000 Br
ATOM     20  C   UNL     1       5.148   5.306  15.587  0.00  0.00    +0.000 A 
ENDBRANCH  12  13
ENDBRANCH   3  12
TORSDOF 3
ENDMDL
MODEL 8
REMARK VINA RESULT:      -6.4      3.952      6.838
REMARK  Name = 
REMARK  3 active torsions:
REMARK  status: ('A' for Active; 'I' for Inactive)
REMARK    1  A    between atoms: C_2  and  C_13
REMARK    2  A    between atoms: N_3  and  C_4
REMARK    3  A    between atoms: C_4  and  C_5
REMARK                            x       y       z     vdW  Elec       q    Type
REMARK                         _______ _______ _______ _____ _____    ______ ____
ROOT
ATOM      1  O   UNL     1       6.259   4.735  19.128  0.00  0.00    +0.000 OA
ATOM      2  C   UNL     1       5.452   4.326  18.298  0.00  0.00    +0.000 C 
ATOM      3  N   UNL     1       5.757   4.165  16.965  0.00  0.00    +0.000 N 
ATOM      4  H   UNL     1       5.119   3.565  16.448  0.00  0.00    +0.000 HD
ENDROOT
BRANCH   2   5
ATOM      5  C   UNL     1       3.990   3.996  18.652  0.00  0.00    +0.000 C 
ATOM      6  C   UNL     1       3.891   2.539  19.127  0.00  0.00    +0.000 C 
ATOM      7  O   UNL     1       2.536   2.195  19.463  0.00  0.00    +0.000 OA
ATOM      8  C   UNL     1       1.677   2.385  18.332  0.00  0.00    +0.000 C 
ATOM      9  C   UNL     1       1.722   3.839  17.845  0.00  0.00    +0.000 C 
ATOM     10  N   UNL     1       3.086   4.271  17.486  0.00  0.00    +0.000 NA
ATOM     11  H   UNL     1       3.070   5.283  17.343  0.00  0.00    +0.000 HD
ENDBRANCH   2   5
BRANCH   3  12
ATOM     12  C   UNL     1       7.076   4.416  16.440  0.00  0.00    +0.000 C 
BRANCH  12  13
ATOM     13  C   UNL     1       7.050   4.512  14.936  0.00  0.00    +0.000 A 
ATOM     14  C   UNL     1       7.912   5.396  14.270  0.00  0.00    +0.000 A 
ATOM     15  C   UNL     1       7.912   5.460  12.878  0.00  0.00    +0.000 A 
ATOM     16  F   UNL     1       8.743   6.311  12.262  0.00  0.00    +0.000 F 
ATOM     17  C   UNL     1       7.074   4.655  12.122  0.00  0.00    +0.000 A 
ATOM     18  C   UNL     1       6.217   3.775  12.776  0.00  0.00    +0.000 A 
ATOM     19 BR   UNL     1       5.076   2.658  11.763  0.00  0.00    +0.000 Br
ATOM     20  C   UNL     1       6.197   3.700  14.173  0.00  0.00    +0.000 A 
ENDBRANCH  12  13
ENDBRANCH   3  12
TORSDOF 3
ENDMDL
MODEL 9
REMARK VINA RESULT:      -6.3      3.854      4.968
REMARK  Name = 
REMARK  3 active torsions:
REMARK  status: ('A' for Active; 'I' for Inactive)
REMARK    1  A    between atoms: C_2  and  C_13
REMARK    2  A    between atoms: N_3  and  C_4
REMARK    3  A    between atoms: C_4  and  C_5
REMARK                            x       y       z     vdW  Elec       q    Type
REMARK                         _______ _______ _______ _____ _____    ______ ____
ROOT
ATOM      1  O   UNL     1       2.372   3.930  18.016  0.00  0.00    +0.000 OA
ATOM      2  C   UNL     1       3.414   4.313  18.540  0.00  0.00    +0.000 C 
ATOM      3  N   UNL     1       3.445   5.108  19.664  0.00  0.00    +0.000 N 
ATOM      4  H   UNL     1       4.334   5.119  20.158  0.00  0.00    +0.000 HD
ENDROOT
BRANCH   2   5
ATOM      5  C   UNL     1       4.804   3.986  17.964  0.00  0.00    +0.000 C 
ATOM      6  C   UNL     1       5.881   4.743  18.756  0.00  0.00    +0.000 C 
ATOM      7  O   UNL     1       7.194   4.464  18.241  0.00  0.00    +0.000 OA
ATOM      8  C   UNL     1       7.277   4.828  16.858  0.00  0.00    +0.000 C 
ATOM      9  C   UNL     1       6.237   4.068  16.025  0.00  0.00    +0.000 C 
ATOM     10  N   UNL     1       4.858   4.299  16.497  0.00  0.00    +0.000 NA
ATOM     11  H   UNL     1       4.245   3.636  16.020  0.00  0.00    +0.000 HD
ENDBRANCH   2   5
BRANCH   3  12
ATOM     12  C   UNL     1       2.248   5.515  20.354  0.00  0.00    +0.000 C 
BRANCH  12  13
ATOM     13  C   UNL     1       1.911   6.952  20.051  0.00  0.00    +0.000 A 
ATOM     14  C   UNL     1       2.205   7.496  18.790  0.00  0.00    +0.000 A 
ATOM     15  C   UNL     1       1.862   8.813  18.498  0.00  0.00    +0.000 A 
ATOM     16  F   UNL     1       2.152   9.314  17.290  0.00  0.00    +0.000 F 
ATOM     17  C   UNL     1       1.220   9.614  19.432  0.00  0.00    +0.000 A 
ATOM     18  C   UNL     1       0.924   9.081  20.683  0.00  0.00    +0.000 A 
ATOM     19 BR   UNL     1       0.036  10.149  21.965  0.00  0.00    +0.000 Br
ATOM     20  C   UNL     1       1.265   7.761  20.999  0.00  0.00    +0.000 A 
ENDBRANCH  12  13
ENDBRANCH   3  12
TORSDOF 3
ENDMDL
