MODEL 1
REMARK VINA RESULT:      -6.6      0.000      0.000
REMARK  Name = 
REMARK  15 active torsions:
REMARK  status: ('A' for Active; 'I' for Inactive)
REMARK    1  A    between atoms: C_1  and  C_2
REMARK    2  A    between atoms: C_2  and  N_3
REMARK    3  A    between atoms: N_3  and  C_4
REMARK    4  A    between atoms: N_3  and  C_6
REMARK    5  A    between atoms: C_4  and  C_5
REMARK    6  A    between atoms: C_6  and  C_7
REMARK    7  A    between atoms: C_10  and  O_11
REMARK    8  A    between atoms: O_11  and  C_12
REMARK    9  A    between atoms: C_12  and  C_13
REMARK   10  A    between atoms: C_13  and  C_14
REMARK   11  A    between atoms: C_14  and  C_15
REMARK   12  A    between atoms: C_15  and  C_16
REMARK   13  A    between atoms: C_16  and  C_17
REMARK   14  A    between atoms: C_17  and  N_18
REMARK   15  A    between atoms: N_21  and  C_22
REMARK                            x       y       z     vdW  Elec       q    Type
REMARK                         _______ _______ _______ _____ _____    ______ ____
ROOT
ATOM      1  O   UNL     1       2.531   6.000  19.942  0.00  0.00    +0.000 OA
ENDROOT
BRANCH   1   5
ATOM      2  C   UNL     1       1.003   9.865  19.570  0.00  0.00    +0.000 A 
ATOM      3  C   UNL     1       0.826   9.106  20.733  0.00  0.00    +0.000 A 
ATOM      4  C   UNL     1       1.361   7.821  20.824  0.00  0.00    +0.000 A 
ATOM      5  C   UNL     1       2.056   7.269  19.749  0.00  0.00    +0.000 A 
ATOM      6  C   UNL     1       2.251   8.024  18.593  0.00  0.00    +0.000 A 
ATOM      7  C   UNL     1       1.725   9.315  18.503  0.00  0.00    +0.000 A 
BRANCH   2   8
ATOM      8  C   UNL     1       0.434  11.263  19.453  0.00  0.00    +0.000 C 
BRANCH   8   9
ATOM      9  N   UNL     1      -0.544  11.428  18.361  0.00  0.00    +0.000 NA
BRANCH   9  11
ATOM     10  C   UNL     1      -2.172   9.926  17.166  0.00  0.00    +0.000 C 
ATOM     11  C   UNL     1      -1.673  10.491  18.492  0.00  0.00    +0.000 C 
ENDBRANCH   9  11
BRANCH   9  12
ATOM     12  C   UNL     1      -0.944  12.839  18.228  0.00  0.00    +0.000 C 
ATOM     13  C   UNL     1      -0.192  13.843  19.099  0.00  0.00    +0.000 C 
ENDBRANCH   9  12
ENDBRANCH   8   9
ENDBRANCH   2   8
ENDBRANCH   1   5
BRANCH   1  14
ATOM     14  C   UNL     1       1.856   5.273  20.967  0.00  0.00    +0.000 C 
BRANCH  14  15
ATOM     15  C   UNL     1       0.939   4.249  20.309  0.00  0.00    +0.000 C 
BRANCH  15  16
ATOM     16  C   UNL     1       1.388   2.842  20.680  0.00  0.00    +0.000 C 
BRANCH  16  17
ATOM     17  C   UNL     1       1.704   1.996  19.450  0.00  0.00    +0.000 C 
BRANCH  17  18
ATOM     18  C   UNL     1       1.722   2.834  18.167  0.00  0.00    +0.000 C 
BRANCH  18  19
ATOM     19  C   UNL     1       3.088   2.838  17.463  0.00  0.00    +0.000 C 
BRANCH  19  20
ATOM     20  N   UNL     1       3.906   4.015  17.783  0.00  0.00    +0.000 NA
ATOM     21  C   UNL     1       4.659   4.455  16.586  0.00  0.00    +0.000 C 
ATOM     22  C   UNL     1       5.565   5.677  16.874  0.00  0.00    +0.000 C 
ATOM     23  N   UNL     1       6.490   5.518  18.016  0.00  0.00    +0.000 NA
ATOM     24  C   UNL     1       7.614   4.646  17.688  0.00  0.00    +0.000 C 
ATOM     25  C   UNL     1       5.733   5.010  19.176  0.00  0.00    +0.000 C 
ATOM     26  C   UNL     1       4.853   3.774  18.888  0.00  0.00    +0.000 C 
ENDBRANCH  19  20
ENDBRANCH  18  19
ENDBRANCH  17  18
ENDBRANCH  16  17
ENDBRANCH  15  16
ENDBRANCH  14  15
ENDBRANCH   1  14
TORSDOF 12
ENDMDL
MODEL 2
REMARK VINA RESULT:      -6.4      0.920      1.681
REMARK  Name = 
REMARK  15 active torsions:
REMARK  status: ('A' for Active; 'I' for Inactive)
REMARK    1  A    between atoms: C_1  and  C_2
REMARK    2  A    between atoms: C_2  and  N_3
REMARK    3  A    between atoms: N_3  and  C_4
REMARK    4  A    between atoms: N_3  and  C_6
REMARK    5  A    between atoms: C_4  and  C_5
REMARK    6  A    between atoms: C_6  and  C_7
REMARK    7  A    between atoms: C_10  and  O_11
REMARK    8  A    between atoms: O_11  and  C_12
REMARK    9  A    between atoms: C_12  and  C_13
REMARK   10  A    between atoms: C_13  and  C_14
REMARK   11  A    between atoms: C_14  and  C_15
REMARK   12  A    between atoms: C_15  and  C_16
REMARK   13  A    between atoms: C_16  and  C_17
REMARK   14  A    between atoms: C_17  and  N_18
REMARK   15  A    between atoms: N_21  and  C_22
REMARK                            x       y       z     vdW  Elec       q    Type
REMARK                         _______ _______ _______ _____ _____    ______ ____
ROOT
ATOM      1  O   UNL     1       2.510   6.293  19.937  0.00  0.00    +0.000 OA
ENDROOT
BRANCH   1   5
ATOM      2  C   UNL     1       1.107  10.107  18.991  0.00  0.00    +0.000 A 
ATOM      3  C   UNL     1       0.891   9.527  20.247  0.00  0.00    +0.000 A 
ATOM      4  C   UNL     1       1.384   8.253  20.530  0.00  0.00    +0.000 A 
ATOM      5  C   UNL     1       2.077   7.534  19.556  0.00  0.00    +0.000 A 
ATOM      6  C   UNL     1       2.312   8.110  18.309  0.00  0.00    +0.000 A 
ATOM      7  C   UNL     1       1.827   9.390  18.027  0.00  0.00    +0.000 A 
BRANCH   2   8
ATOM      8  C   UNL     1       0.583  11.489  18.667  0.00  0.00    +0.000 C 
BRANCH   8   9
ATOM      9  N   UNL     1      -0.706  11.813  19.308  0.00  0.00    +0.000 NA
BRANCH   9  11
ATOM     10  C   UNL     1      -0.337  12.798  21.595  0.00  0.00    +0.000 C 
ATOM     11  C   UNL     1      -0.619  13.043  20.116  0.00  0.00    +0.000 C 
ENDBRANCH   9  11
BRANCH   9  12
ATOM     12  C   UNL     1      -1.795  11.818  18.318  0.00  0.00    +0.000 C 
ATOM     13  C   UNL     1      -1.968  10.544  17.494  0.00  0.00    +0.000 C 
ENDBRANCH   9  12
ENDBRANCH   8   9
ENDBRANCH   2   8
ENDBRANCH   1   5
BRANCH   1  14
ATOM     14  C   UNL     1       1.575   5.565  20.730  0.00  0.00    +0.000 C 
BRANCH  14  15
ATOM     15  C   UNL     1       2.284   4.355  21.325  0.00  0.00    +0.000 C 
BRANCH  15  16
ATOM     16  C   UNL     1       1.466   3.098  21.063  0.00  0.00    +0.000 C 
BRANCH  16  17
ATOM     17  C   UNL     1       1.106   2.943  19.588  0.00  0.00    +0.000 C 
BRANCH  17  18
ATOM     18  C   UNL     1       1.872   1.792  18.929  0.00  0.00    +0.000 C 
BRANCH  18  19
ATOM     19  C   UNL     1       2.790   2.251  17.784  0.00  0.00    +0.000 C 
BRANCH  19  20
ATOM     20  N   UNL     1       3.497   3.506  18.069  0.00  0.00    +0.000 NA
ATOM     21  C   UNL     1       3.932   4.147  16.808  0.00  0.00    +0.000 C 
ATOM     22  C   UNL     1       4.712   5.461  17.050  0.00  0.00    +0.000 C 
ATOM     23  N   UNL     1       5.859   5.350  17.975  0.00  0.00    +0.000 NA
ATOM     24  C   UNL     1       6.998   4.682  17.351  0.00  0.00    +0.000 C 
ATOM     25  C   UNL     1       5.422   4.644  19.194  0.00  0.00    +0.000 C 
ATOM     26  C   UNL     1       4.669   3.319  18.945  0.00  0.00    +0.000 C 
ENDBRANCH  19  20
ENDBRANCH  18  19
ENDBRANCH  17  18
ENDBRANCH  16  17
ENDBRANCH  15  16
ENDBRANCH  14  15
ENDBRANCH   1  14
TORSDOF 12
ENDMDL
MODEL 3
REMARK VINA RESULT:      -6.4      0.900      1.412
REMARK  Name = 
REMARK  15 active torsions:
REMARK  status: ('A' for Active; 'I' for Inactive)
REMARK    1  A    between atoms: C_1  and  C_2
REMARK    2  A    between atoms: C_2  and  N_3
REMARK    3  A    between atoms: N_3  and  C_4
REMARK    4  A    between atoms: N_3  and  C_6
REMARK    5  A    between atoms: C_4  and  C_5
REMARK    6  A    between atoms: C_6  and  C_7
REMARK    7  A    between atoms: C_10  and  O_11
REMARK    8  A    between atoms: O_11  and  C_12
REMARK    9  A    between atoms: C_12  and  C_13
REMARK   10  A    between atoms: C_13  and  C_14
REMARK   11  A    between atoms: C_14  and  C_15
REMARK   12  A    between atoms: C_15  and  C_16
REMARK   13  A    between atoms: C_16  and  C_17
REMARK   14  A    between atoms: C_17  and  N_18
REMARK   15  A    between atoms: N_21  and  C_22
REMARK                            x       y       z     vdW  Elec       q    Type
REMARK                         _______ _______ _______ _____ _____    ______ ____
ROOT
ATOM      1  O   UNL     1       2.902   5.998  19.803  0.00  0.00    +0.000 OA
ENDROOT
BRANCH   1   5
ATOM      2  C   UNL     1       0.814   9.611  19.774  0.00  0.00    +0.000 A 
ATOM      3  C   UNL     1       0.911   8.819  20.924  0.00  0.00    +0.000 A 
ATOM      4  C   UNL     1       1.626   7.622  20.898  0.00  0.00    +0.000 A 
ATOM      5  C   UNL     1       2.233   7.189  19.719  0.00  0.00    +0.000 A 
ATOM      6  C   UNL     1       2.156   7.980  18.573  0.00  0.00    +0.000 A 
ATOM      7  C   UNL     1       1.448   9.184  18.600  0.00  0.00    +0.000 A 
BRANCH   2   8
ATOM      8  C   UNL     1       0.046  10.915  19.784  0.00  0.00    +0.000 C 
BRANCH   8   9
ATOM      9  N   UNL     1      -0.592  11.251  18.497  0.00  0.00    +0.000 NA
BRANCH   9  11
ATOM     10  C   UNL     1      -2.054   9.909  16.949  0.00  0.00    +0.000 C 
ATOM     11  C   UNL     1      -1.874  10.547  18.323  0.00  0.00    +0.000 C 
ENDBRANCH   9  11
BRANCH   9  12
ATOM     12  C   UNL     1      -0.676  12.710  18.321  0.00  0.00    +0.000 C 
ATOM     13  C   UNL     1      -0.986  13.528  19.574  0.00  0.00    +0.000 C 
ENDBRANCH   9  12
ENDBRANCH   8   9
ENDBRANCH   2   8
ENDBRANCH   1   5
BRANCH   1  14
ATOM     14  C   UNL     1       2.289   5.042  20.665  0.00  0.00    +0.000 C 
BRANCH  14  15
ATOM     15  C   UNL     1       1.130   4.393  19.920  0.00  0.00    +0.000 C 
BRANCH  15  16
ATOM     16  C   UNL     1       1.423   2.915  19.700  0.00  0.00    +0.000 C 
BRANCH  16  17
ATOM     17  C   UNL     1       2.917   2.610  19.757  0.00  0.00    +0.000 C 
BRANCH  17  18
ATOM     18  C   UNL     1       3.496   2.320  18.368  0.00  0.00    +0.000 C 
BRANCH  18  19
ATOM     19  C   UNL     1       3.634   3.577  17.493  0.00  0.00    +0.000 C 
BRANCH  19  20
ATOM     20  N   UNL     1       5.019   3.865  17.099  0.00  0.00    +0.000 NA
ATOM     21  C   UNL     1       5.800   4.322  18.271  0.00  0.00    +0.000 C 
ATOM     22  C   UNL     1       7.263   4.672  17.906  0.00  0.00    +0.000 C 
ATOM     23  N   UNL     1       7.422   5.632  16.795  0.00  0.00    +0.000 NA
ATOM     24  C   UNL     1       7.102   6.996  17.205  0.00  0.00    +0.000 C 
ATOM     25  C   UNL     1       6.580   5.197  15.665  0.00  0.00    +0.000 C 
ATOM     26  C   UNL     1       5.114   4.877  16.030  0.00  0.00    +0.000 C 
ENDBRANCH  19  20
ENDBRANCH  18  19
ENDBRANCH  17  18
ENDBRANCH  16  17
ENDBRANCH  15  16
ENDBRANCH  14  15
ENDBRANCH   1  14
TORSDOF 12
ENDMDL
MODEL 4
REMARK VINA RESULT:      -6.2      1.361      2.186
REMARK  Name = 
REMARK  15 active torsions:
REMARK  status: ('A' for Active; 'I' for Inactive)
REMARK    1  A    between atoms: C_1  and  C_2
REMARK    2  A    between atoms: C_2  and  N_3
REMARK    3  A    between atoms: N_3  and  C_4
REMARK    4  A    between atoms: N_3  and  C_6
REMARK    5  A    between atoms: C_4  and  C_5
REMARK    6  A    between atoms: C_6  and  C_7
REMARK    7  A    between atoms: C_10  and  O_11
REMARK    8  A    between atoms: O_11  and  C_12
REMARK    9  A    between atoms: C_12  and  C_13
REMARK   10  A    between atoms: C_13  and  C_14
REMARK   11  A    between atoms: C_14  and  C_15
REMARK   12  A    between atoms: C_15  and  C_16
REMARK   13  A    between atoms: C_16  and  C_17
REMARK   14  A    between atoms: C_17  and  N_18
REMARK   15  A    between atoms: N_21  and  C_22
REMARK                            x       y       z     vdW  Elec       q    Type
REMARK                         _______ _______ _______ _____ _____    ______ ____
ROOT
ATOM      1  O   UNL     1       2.654   5.515  20.081  0.00  0.00    +0.000 OA
ENDROOT
BRANCH   1   5
ATOM      2  C   UNL     1       1.447   9.383  19.082  0.00  0.00    +0.000 A 
ATOM      3  C   UNL     1       1.175   8.821  20.334  0.00  0.00    +0.000 A 
ATOM      4  C   UNL     1       1.603   7.528  20.636  0.00  0.00    +0.000 A 
ATOM      5  C   UNL     1       2.287   6.773  19.683  0.00  0.00    +0.000 A 
ATOM      6  C   UNL     1       2.577   7.330  18.439  0.00  0.00    +0.000 A 
ATOM      7  C   UNL     1       2.157   8.628  18.139  0.00  0.00    +0.000 A 
BRANCH   2   8
ATOM      8  C   UNL     1       0.994  10.785  18.738  0.00  0.00    +0.000 C 
BRANCH   8   9
ATOM      9  N   UNL     1       1.079  11.740  19.860  0.00  0.00    +0.000 NA
BRANCH   9  11
ATOM     10  C   UNL     1       2.546  12.841  18.136  0.00  0.00    +0.000 C 
ATOM     11  C   UNL     1       1.989  12.859  19.556  0.00  0.00    +0.000 C 
ENDBRANCH   9  11
BRANCH   9  12
ATOM     12  C   UNL     1      -0.264  12.156  20.295  0.00  0.00    +0.000 C 
ATOM     13  C   UNL     1      -1.273  12.458  19.188  0.00  0.00    +0.000 C 
ENDBRANCH   9  12
ENDBRANCH   8   9
ENDBRANCH   2   8
ENDBRANCH   1   5
BRANCH   1  14
ATOM     14  C   UNL     1       1.663   4.831  20.844  0.00  0.00    +0.000 C 
BRANCH  14  15
ATOM     15  C   UNL     1       1.920   3.333  20.737  0.00  0.00    +0.000 C 
BRANCH  15  16
ATOM     16  C   UNL     1       3.161   3.083  19.890  0.00  0.00    +0.000 C 
BRANCH  16  17
ATOM     17  C   UNL     1       2.952   1.957  18.881  0.00  0.00    +0.000 C 
BRANCH  17  18
ATOM     18  C   UNL     1       3.089   2.449  17.437  0.00  0.00    +0.000 C 
BRANCH  18  19
ATOM     19  C   UNL     1       3.526   3.919  17.334  0.00  0.00    +0.000 C 
BRANCH  19  20
ATOM     20  N   UNL     1       4.935   4.085  16.957  0.00  0.00    +0.000 NA
ATOM     21  C   UNL     1       5.749   4.412  18.150  0.00  0.00    +0.000 C 
ATOM     22  C   UNL     1       7.242   4.630  17.805  0.00  0.00    +0.000 C 
ATOM     23  N   UNL     1       7.504   5.617  16.737  0.00  0.00    +0.000 NA
ATOM     24  C   UNL     1       7.317   6.987  17.206  0.00  0.00    +0.000 C 
ATOM     25  C   UNL     1       6.630   5.317  15.586  0.00  0.00    +0.000 C 
ATOM     26  C   UNL     1       5.137   5.129  15.934  0.00  0.00    +0.000 C 
ENDBRANCH  19  20
ENDBRANCH  18  19
ENDBRANCH  17  18
ENDBRANCH  16  17
ENDBRANCH  15  16
ENDBRANCH  14  15
ENDBRANCH   1  14
TORSDOF 12
ENDMDL
MODEL 5
REMARK VINA RESULT:      -6.2      1.389      2.217
REMARK  Name = 
REMARK  15 active torsions:
REMARK  status: ('A' for Active; 'I' for Inactive)
REMARK    1  A    between atoms: C_1  and  C_2
REMARK    2  A    between atoms: C_2  and  N_3
REMARK    3  A    between atoms: N_3  and  C_4
REMARK    4  A    between atoms: N_3  and  C_6
REMARK    5  A    between atoms: C_4  and  C_5
REMARK    6  A    between atoms: C_6  and  C_7
REMARK    7  A    between atoms: C_10  and  O_11
REMARK    8  A    between atoms: O_11  and  C_12
REMARK    9  A    between atoms: C_12  and  C_13
REMARK   10  A    between atoms: C_13  and  C_14
REMARK   11  A    between atoms: C_14  and  C_15
REMARK   12  A    between atoms: C_15  and  C_16
REMARK   13  A    between atoms: C_16  and  C_17
REMARK   14  A    between atoms: C_17  and  N_18
REMARK   15  A    between atoms: N_21  and  C_22
REMARK                            x       y       z     vdW  Elec       q    Type
REMARK                         _______ _______ _______ _____ _____    ______ ____
ROOT
ATOM      1  O   UNL     1       2.295   5.385  20.646  0.00  0.00    +0.000 OA
ENDROOT
BRANCH   1   5
ATOM      2  C   UNL     1       1.663   9.091  18.834  0.00  0.00    +0.000 A 
ATOM      3  C   UNL     1       1.248   8.825  20.144  0.00  0.00    +0.000 A 
ATOM      4  C   UNL     1       1.485   7.577  20.720  0.00  0.00    +0.000 A 
ATOM      5  C   UNL     1       2.118   6.572  19.988  0.00  0.00    +0.000 A 
ATOM      6  C   UNL     1       2.550   6.833  18.688  0.00  0.00    +0.000 A 
ATOM      7  C   UNL     1       2.321   8.086  18.113  0.00  0.00    +0.000 A 
BRANCH   2   8
ATOM      8  C   UNL     1       1.417  10.440  18.194  0.00  0.00    +0.000 C 
BRANCH   8   9
ATOM      9  N   UNL     1       1.023  11.498  19.144  0.00  0.00    +0.000 NA
BRANCH   9  11
ATOM     10  C   UNL     1       2.197  13.280  20.478  0.00  0.00    +0.000 C 
ATOM     11  C   UNL     1       1.962  12.633  19.117  0.00  0.00    +0.000 C 
ENDBRANCH   9  11
BRANCH   9  12
ATOM     12  C   UNL     1      -0.386  11.876  18.949  0.00  0.00    +0.000 C 
ATOM     13  C   UNL     1      -1.318  11.656  20.139  0.00  0.00    +0.000 C 
ENDBRANCH   9  12
ENDBRANCH   8   9
ENDBRANCH   2   8
ENDBRANCH   1   5
BRANCH   1  14
ATOM     14  C   UNL     1       1.162   4.520  20.605  0.00  0.00    +0.000 C 
BRANCH  14  15
ATOM     15  C   UNL     1       1.260   3.655  19.354  0.00  0.00    +0.000 C 
BRANCH  15  16
ATOM     16  C   UNL     1       1.697   2.247  19.734  0.00  0.00    +0.000 C 
BRANCH  16  17
ATOM     17  C   UNL     1       2.911   1.785  18.934  0.00  0.00    +0.000 C 
BRANCH  17  18
ATOM     18  C   UNL     1       3.508   2.918  18.093  0.00  0.00    +0.000 C 
BRANCH  18  19
ATOM     19  C   UNL     1       4.743   3.569  18.739  0.00  0.00    +0.000 C 
BRANCH  19  20
ATOM     20  N   UNL     1       5.277   4.699  17.968  0.00  0.00    +0.000 NA
ATOM     21  C   UNL     1       4.669   4.731  16.619  0.00  0.00    +0.000 C 
ATOM     22  C   UNL     1       5.221   5.886  15.749  0.00  0.00    +0.000 C 
ATOM     23  N   UNL     1       6.693   5.938  15.634  0.00  0.00    +0.000 NA
ATOM     24  C   UNL     1       7.206   4.901  14.744  0.00  0.00    +0.000 C 
ATOM     25  C   UNL     1       7.281   5.831  16.983  0.00  0.00    +0.000 C 
ATOM     26  C   UNL     1       6.746   4.659  17.835  0.00  0.00    +0.000 C 
ENDBRANCH  19  20
ENDBRANCH  18  19
ENDBRANCH  17  18
ENDBRANCH  16  17
ENDBRANCH  15  16
ENDBRANCH  14  15
ENDBRANCH   1  14
TORSDOF 12
ENDMDL
MODEL 6
REMARK VINA RESULT:      -6.1      1.215      1.924
REMARK  Name = 
REMARK  15 active torsions:
REMARK  status: ('A' for Active; 'I' for Inactive)
REMARK    1  A    between atoms: C_1  and  C_2
REMARK    2  A    between atoms: C_2  and  N_3
REMARK    3  A    between atoms: N_3  and  C_4
REMARK    4  A    between atoms: N_3  and  C_6
REMARK    5  A    between atoms: C_4  and  C_5
REMARK    6  A    between atoms: C_6  and  C_7
REMARK    7  A    between atoms: C_10  and  O_11
REMARK    8  A    between atoms: O_11  and  C_12
REMARK    9  A    between atoms: C_12  and  C_13
REMARK   10  A    between atoms: C_13  and  C_14
REMARK   11  A    between atoms: C_14  and  C_15
REMARK   12  A    between atoms: C_15  and  C_16
REMARK   13  A    between atoms: C_16  and  C_17
REMARK   14  A    between atoms: C_17  and  N_18
REMARK   15  A    between atoms: N_21  and  C_22
REMARK                            x       y       z     vdW  Elec       q    Type
REMARK                         _______ _______ _______ _____ _____    ______ ____
ROOT
ATOM      1  O   UNL     1       2.524   5.937  19.995  0.00  0.00    +0.000 OA
ENDROOT
BRANCH   1   5
ATOM      2  C   UNL     1       1.330   9.831  19.089  0.00  0.00    +0.000 A 
ATOM      3  C   UNL     1       1.034   9.231  20.319  0.00  0.00    +0.000 A 
ATOM      4  C   UNL     1       1.458   7.930  20.590  0.00  0.00    +0.000 A 
ATOM      5  C   UNL     1       2.162   7.205  19.629  0.00  0.00    +0.000 A 
ATOM      6  C   UNL     1       2.477   7.800  18.408  0.00  0.00    +0.000 A 
ATOM      7  C   UNL     1       2.061   9.107  18.139  0.00  0.00    +0.000 A 
BRANCH   2   8
ATOM      8  C   UNL     1       0.882  11.243  18.779  0.00  0.00    +0.000 C 
BRANCH   8   9
ATOM      9  N   UNL     1       0.732  12.105  19.968  0.00  0.00    +0.000 NA
BRANCH   9  11
ATOM     10  C   UNL     1       1.615  14.177  21.091  0.00  0.00    +0.000 C 
ATOM     11  C   UNL     1       1.869  13.031  20.117  0.00  0.00    +0.000 C 
ENDBRANCH   9  11
BRANCH   9  12
ATOM     12  C   UNL     1      -0.585  12.761  19.974  0.00  0.00    +0.000 C 
ATOM     13  C   UNL     1      -1.642  12.155  20.895  0.00  0.00    +0.000 C 
ENDBRANCH   9  12
ENDBRANCH   8   9
ENDBRANCH   2   8
ENDBRANCH   1   5
BRANCH   1  14
ATOM     14  C   UNL     1       1.693   5.359  21.000  0.00  0.00    +0.000 C 
BRANCH  14  15
ATOM     15  C   UNL     1       1.531   3.874  20.697  0.00  0.00    +0.000 C 
BRANCH  15  16
ATOM     16  C   UNL     1       0.844   3.696  19.350  0.00  0.00    +0.000 C 
BRANCH  16  17
ATOM     17  C   UNL     1       1.129   2.328  18.736  0.00  0.00    +0.000 C 
BRANCH  17  18
ATOM     18  C   UNL     1       2.562   1.863  19.012  0.00  0.00    +0.000 C 
BRANCH  18  19
ATOM     19  C   UNL     1       3.549   2.241  17.895  0.00  0.00    +0.000 C 
BRANCH  19  20
ATOM     20  N   UNL     1       4.025   3.628  17.981  0.00  0.00    +0.000 NA
ATOM     21  C   UNL     1       4.585   4.058  16.680  0.00  0.00    +0.000 C 
ATOM     22  C   UNL     1       5.133   5.505  16.721  0.00  0.00    +0.000 C 
ATOM     23  N   UNL     1       6.106   5.778  17.799  0.00  0.00    +0.000 NA
ATOM     24  C   UNL     1       7.413   5.194  17.511  0.00  0.00    +0.000 C 
ATOM     25  C   UNL     1       5.560   5.276  19.074  0.00  0.00    +0.000 C 
ATOM     26  C   UNL     1       5.041   3.822  19.032  0.00  0.00    +0.000 C 
ENDBRANCH  19  20
ENDBRANCH  18  19
ENDBRANCH  17  18
ENDBRANCH  16  17
ENDBRANCH  15  16
ENDBRANCH  14  15
ENDBRANCH   1  14
TORSDOF 12
ENDMDL
MODEL 7
REMARK VINA RESULT:      -6.1      1.225      1.791
REMARK  Name = 
REMARK  15 active torsions:
REMARK  status: ('A' for Active; 'I' for Inactive)
REMARK    1  A    between atoms: C_1  and  C_2
REMARK    2  A    between atoms: C_2  and  N_3
REMARK    3  A    between atoms: N_3  and  C_4
REMARK    4  A    between atoms: N_3  and  C_6
REMARK    5  A    between atoms: C_4  and  C_5
REMARK    6  A    between atoms: C_6  and  C_7
REMARK    7  A    between atoms: C_10  and  O_11
REMARK    8  A    between atoms: O_11  and  C_12
REMARK    9  A    between atoms: C_12  and  C_13
REMARK   10  A    between atoms: C_13  and  C_14
REMARK   11  A    between atoms: C_14  and  C_15
REMARK   12  A    between atoms: C_15  and  C_16
REMARK   13  A    between atoms: C_16  and  C_17
REMARK   14  A    between atoms: C_17  and  N_18
REMARK   15  A    between atoms: N_21  and  C_22
REMARK                            x       y       z     vdW  Elec       q    Type
REMARK                         _______ _______ _______ _____ _____    ______ ____
ROOT
ATOM      1  O   UNL     1       2.718   6.084  20.042  0.00  0.00    +0.000 OA
ENDROOT
BRANCH   1   5
ATOM      2  C   UNL     1       0.631   9.696  19.947  0.00  0.00    +0.000 A 
ATOM      3  C   UNL     1       1.337   9.218  18.837  0.00  0.00    +0.000 A 
ATOM      4  C   UNL     1       2.015   8.001  18.903  0.00  0.00    +0.000 A 
ATOM      5  C   UNL     1       2.016   7.259  20.084  0.00  0.00    +0.000 A 
ATOM      6  C   UNL     1       1.302   7.719  21.189  0.00  0.00    +0.000 A 
ATOM      7  C   UNL     1       0.614   8.933  21.121  0.00  0.00    +0.000 A 
BRANCH   2   8
ATOM      8  C   UNL     1      -0.114  11.013  19.892  0.00  0.00    +0.000 C 
BRANCH   8   9
ATOM      9  N   UNL     1       0.268  11.877  18.759  0.00  0.00    +0.000 NA
BRANCH   9  11
ATOM     10  C   UNL     1      -2.240  11.888  18.539  0.00  0.00    +0.000 C 
ATOM     11  C   UNL     1      -0.907  12.515  18.139  0.00  0.00    +0.000 C 
ENDBRANCH   9  11
BRANCH   9  12
ATOM     12  C   UNL     1       1.327  12.819  19.154  0.00  0.00    +0.000 C 
ATOM     13  C   UNL     1       2.534  12.914  18.223  0.00  0.00    +0.000 C 
ENDBRANCH   9  12
ENDBRANCH   8   9
ENDBRANCH   2   8
ENDBRANCH   1   5
BRANCH   1  14
ATOM     14  C   UNL     1       2.135   5.027  20.802  0.00  0.00    +0.000 C 
BRANCH  14  15
ATOM     15  C   UNL     1       0.932   4.490  20.037  0.00  0.00    +0.000 C 
BRANCH  15  16
ATOM     16  C   UNL     1       1.015   2.972  19.947  0.00  0.00    +0.000 C 
BRANCH  16  17
ATOM     17  C   UNL     1       2.342   2.503  19.359  0.00  0.00    +0.000 C 
BRANCH  17  18
ATOM     18  C   UNL     1       2.489   2.898  17.886  0.00  0.00    +0.000 C 
BRANCH  18  19
ATOM     19  C   UNL     1       3.945   2.881  17.394  0.00  0.00    +0.000 C 
BRANCH  19  20
ATOM     20  N   UNL     1       4.329   4.095  16.662  0.00  0.00    +0.000 NA
ATOM     21  C   UNL     1       5.672   3.929  16.063  0.00  0.00    +0.000 C 
ATOM     22  C   UNL     1       6.142   5.193  15.304  0.00  0.00    +0.000 C 
ATOM     23  N   UNL     1       6.096   6.448  16.084  0.00  0.00    +0.000 NA
ATOM     24  C   UNL     1       7.178   6.520  17.062  0.00  0.00    +0.000 C 
ATOM     25  C   UNL     1       4.775   6.558  16.733  0.00  0.00    +0.000 C 
ATOM     26  C   UNL     1       4.325   5.302  17.511  0.00  0.00    +0.000 C 
ENDBRANCH  19  20
ENDBRANCH  18  19
ENDBRANCH  17  18
ENDBRANCH  16  17
ENDBRANCH  15  16
ENDBRANCH  14  15
ENDBRANCH   1  14
TORSDOF 12
ENDMDL
MODEL 8
REMARK VINA RESULT:      -6.0      1.231      2.113
REMARK  Name = 
REMARK  15 active torsions:
REMARK  status: ('A' for Active; 'I' for Inactive)
REMARK    1  A    between atoms: C_1  and  C_2
REMARK    2  A    between atoms: C_2  and  N_3
REMARK    3  A    between atoms: N_3  and  C_4
REMARK    4  A    between atoms: N_3  and  C_6
REMARK    5  A    between atoms: C_4  and  C_5
REMARK    6  A    between atoms: C_6  and  C_7
REMARK    7  A    between atoms: C_10  and  O_11
REMARK    8  A    between atoms: O_11  and  C_12
REMARK    9  A    between atoms: C_12  and  C_13
REMARK   10  A    between atoms: C_13  and  C_14
REMARK   11  A    between atoms: C_14  and  C_15
REMARK   12  A    between atoms: C_15  and  C_16
REMARK   13  A    between atoms: C_16  and  C_17
REMARK   14  A    between atoms: C_17  and  N_18
REMARK   15  A    between atoms: N_21  and  C_22
REMARK                            x       y       z     vdW  Elec       q    Type
REMARK                         _______ _______ _______ _____ _____    ______ ____
ROOT
ATOM      1  O   UNL     1       2.492   6.180  19.844  0.00  0.00    +0.000 OA
ENDROOT
BRANCH   1   5
ATOM      2  C   UNL     1       0.836   9.998  19.537  0.00  0.00    +0.000 A 
ATOM      3  C   UNL     1       1.434   9.359  18.445  0.00  0.00    +0.000 A 
ATOM      4  C   UNL     1       1.969   8.078  18.584  0.00  0.00    +0.000 A 
ATOM      5  C   UNL     1       1.933   7.430  19.818  0.00  0.00    +0.000 A 
ATOM      6  C   UNL     1       1.324   8.051  20.907  0.00  0.00    +0.000 A 
ATOM      7  C   UNL     1       0.779   9.330  20.768  0.00  0.00    +0.000 A 
BRANCH   2   8
ATOM      8  C   UNL     1       0.247  11.386  19.406  0.00  0.00    +0.000 C 
BRANCH   8   9
ATOM      9  N   UNL     1      -1.228  11.415  19.359  0.00  0.00    +0.000 NA
BRANCH   9  11
ATOM     10  C   UNL     1      -1.213  12.441  21.657  0.00  0.00    +0.000 C 
ATOM     11  C   UNL     1      -1.781  12.458  20.241  0.00  0.00    +0.000 C 
ENDBRANCH   9  11
BRANCH   9  12
ATOM     12  C   UNL     1      -1.705  11.487  17.968  0.00  0.00    +0.000 C 
ATOM     13  C   UNL     1      -2.213  10.183  17.356  0.00  0.00    +0.000 C 
ENDBRANCH   9  12
ENDBRANCH   8   9
ENDBRANCH   2   8
ENDBRANCH   1   5
BRANCH   1  14
ATOM     14  C   UNL     1       2.037   5.359  20.917  0.00  0.00    +0.000 C 
BRANCH  14  15
ATOM     15  C   UNL     1       1.079   4.316  20.354  0.00  0.00    +0.000 C 
BRANCH  15  16
ATOM     16  C   UNL     1       1.386   4.076  18.882  0.00  0.00    +0.000 C 
BRANCH  16  17
ATOM     17  C   UNL     1       1.982   2.693  18.637  0.00  0.00    +0.000 C 
BRANCH  17  18
ATOM     18  C   UNL     1       3.509   2.696  18.758  0.00  0.00    +0.000 C 
BRANCH  18  19
ATOM     19  C   UNL     1       4.226   2.681  17.398  0.00  0.00    +0.000 C 
BRANCH  19  20
ATOM     20  N   UNL     1       4.425   4.020  16.828  0.00  0.00    +0.000 NA
ATOM     21  C   UNL     1       5.555   4.006  15.871  0.00  0.00    +0.000 C 
ATOM     22  C   UNL     1       5.831   5.401  15.262  0.00  0.00    +0.000 C 
ATOM     23  N   UNL     1       6.023   6.489  16.243  0.00  0.00    +0.000 NA
ATOM     24  C   UNL     1       7.328   6.413  16.892  0.00  0.00    +0.000 C 
ATOM     25  C   UNL     1       4.926   6.440  17.230  0.00  0.00    +0.000 C 
ATOM     26  C   UNL     1       4.675   5.050  17.854  0.00  0.00    +0.000 C 
ENDBRANCH  19  20
ENDBRANCH  18  19
ENDBRANCH  17  18
ENDBRANCH  16  17
ENDBRANCH  15  16
ENDBRANCH  14  15
ENDBRANCH   1  14
TORSDOF 12
ENDMDL
MODEL 9
REMARK VINA RESULT:      -6.0      1.407      2.509
REMARK  Name = 
REMARK  15 active torsions:
REMARK  status: ('A' for Active; 'I' for Inactive)
REMARK    1  A    between atoms: C_1  and  C_2
REMARK    2  A    between atoms: C_2  and  N_3
REMARK    3  A    between atoms: N_3  and  C_4
REMARK    4  A    between atoms: N_3  and  C_6
REMARK    5  A    between atoms: C_4  and  C_5
REMARK    6  A    between atoms: C_6  and  C_7
REMARK    7  A    between atoms: C_10  and  O_11
REMARK    8  A    between atoms: O_11  and  C_12
REMARK    9  A    between atoms: C_12  and  C_13
REMARK   10  A    between atoms: C_13  and  C_14
REMARK   11  A    between atoms: C_14  and  C_15
REMARK   12  A    between atoms: C_15  and  C_16
REMARK   13  A    between atoms: C_16  and  C_17
REMARK   14  A    between atoms: C_17  and  N_18
REMARK   15  A    between atoms: N_21  and  C_22
REMARK                            x       y       z     vdW  Elec       q    Type
REMARK                         _______ _______ _______ _____ _____    ______ ____
ROOT
ATOM      1  O   UNL     1       2.826   6.381  19.076  0.00  0.00    +0.000 OA
ENDROOT
BRANCH   1   5
ATOM      2  C   UNL     1       0.852  10.056  19.167  0.00  0.00    +0.000 A 
ATOM      3  C   UNL     1       1.417   9.546  17.993  0.00  0.00    +0.000 A 
ATOM      4  C   UNL     1       2.061   8.308  17.999  0.00  0.00    +0.000 A 
ATOM      5  C   UNL     1       2.169   7.577  19.181  0.00  0.00    +0.000 A 
ATOM      6  C   UNL     1       1.595   8.069  20.352  0.00  0.00    +0.000 A 
ATOM      7  C   UNL     1       0.941   9.304  20.346  0.00  0.00    +0.000 A 
BRANCH   2   8
ATOM      8  C   UNL     1       0.146  11.394  19.179  0.00  0.00    +0.000 C 
BRANCH   8   9
ATOM      9  N   UNL     1      -1.283  11.321  19.541  0.00  0.00    +0.000 NA
BRANCH   9  11
ATOM     10  C   UNL     1      -1.004  12.085  21.923  0.00  0.00    +0.000 C 
ATOM     11  C   UNL     1      -1.641  12.326  20.557  0.00  0.00    +0.000 C 
ENDBRANCH   9  11
BRANCH   9  12
ATOM     12  C   UNL     1      -2.129  11.355  18.336  0.00  0.00    +0.000 C 
ATOM     13  C   UNL     1      -2.568  10.003  17.777  0.00  0.00    +0.000 C 
ENDBRANCH   9  12
ENDBRANCH   8   9
ENDBRANCH   2   8
ENDBRANCH   1   5
BRANCH   1  14
ATOM     14  C   UNL     1       2.129   5.396  18.316  0.00  0.00    +0.000 C 
BRANCH  14  15
ATOM     15  C   UNL     1       1.398   4.469  19.280  0.00  0.00    +0.000 C 
BRANCH  15  16
ATOM     16  C   UNL     1       2.265   4.215  20.506  0.00  0.00    +0.000 C 
BRANCH  16  17
ATOM     17  C   UNL     1       2.851   2.807  20.515  0.00  0.00    +0.000 C 
BRANCH  17  18
ATOM     18  C   UNL     1       4.324   2.796  20.095  0.00  0.00    +0.000 C 
BRANCH  18  19
ATOM     19  C   UNL     1       4.544   3.239  18.639  0.00  0.00    +0.000 C 
BRANCH  19  20
ATOM     20  N   UNL     1       5.854   3.863  18.411  0.00  0.00    +0.000 NA
ATOM     21  C   UNL     1       6.023   5.035  19.299  0.00  0.00    +0.000 C 
ATOM     22  C   UNL     1       7.377   5.753  19.078  0.00  0.00    +0.000 C 
ATOM     23  N   UNL     1       7.663   6.140  17.681  0.00  0.00    +0.000 NA
ATOM     24  C   UNL     1       6.876   7.298  17.266  0.00  0.00    +0.000 C 
ATOM     25  C   UNL     1       7.417   4.979  16.804  0.00  0.00    +0.000 C 
ATOM     26  C   UNL     1       6.053   4.285  17.011  0.00  0.00    +0.000 C 
ENDBRANCH  19  20
ENDBRANCH  18  19
ENDBRANCH  17  18
ENDBRANCH  16  17
ENDBRANCH  15  16
ENDBRANCH  14  15
ENDBRANCH   1  14
TORSDOF 12
ENDMDL
