MODEL 1
REMARK VINA RESULT:      -7.5      0.000      0.000
REMARK  Name = 
REMARK  4 active torsions:
REMARK  status: ('A' for Active; 'I' for Inactive)
REMARK    1  A    between atoms: C_2  and  C_5
REMARK    2  A    between atoms: C_11  and  C_12
REMARK    3  A    between atoms: C_18  and  C_19
REMARK    4  A    between atoms: C_19  and  C_20
REMARK                            x       y       z     vdW  Elec       q    Type
REMARK                         _______ _______ _______ _____ _____    ______ ____
ROOT
ATOM      1  C   UNL     1       0.700   8.853  20.967  0.00  0.00    +0.000 A 
ATOM      2  C   UNL     1       0.804   9.852  19.900  0.00  0.00    +0.000 A 
ATOM      3  C   UNL     1       1.580   9.650  18.819  0.00  0.00    +0.000 A 
ATOM      4 CL   UNL     1       1.681  10.841  17.576  0.00  0.00    +0.000 Cl
ATOM      5  C   UNL     1       2.329   8.446  18.685  0.00  0.00    +0.000 A 
ATOM      6  N   UNL     1       3.143   8.023  17.745  0.00  0.00    +0.000 NA
ATOM      7  C   UNL     1       3.559   6.770  18.135  0.00  0.00    +0.000 A 
ATOM      8  C   UNL     1       3.020   6.434  19.370  0.00  0.00    +0.000 A 
ATOM      9  N   UNL     1       2.211   7.509  19.707  0.00  0.00    +0.000 N 
ATOM     10  C   UNL     1       1.401   7.709  20.832  0.00  0.00    +0.000 A 
ENDROOT
BRANCH   7  11
ATOM     11  C   UNL     1       4.440   5.986  17.283  0.00  0.00    +0.000 A 
ATOM     12  C   UNL     1       4.015   4.728  16.828  0.00  0.00    +0.000 A 
ATOM     13  C   UNL     1       4.866   3.914  16.075  0.00  0.00    +0.000 A 
ATOM     14  C   UNL     1       6.154   4.347  15.770  0.00  0.00    +0.000 A 
ATOM     15  C   UNL     1       6.588   5.592  16.212  0.00  0.00    +0.000 A 
ATOM     16  C   UNL     1       5.737   6.403  16.966  0.00  0.00    +0.000 A 
ENDBRANCH   7  11
BRANCH   1  18
ATOM     17  F   UNL     1      -0.859  10.307  22.042  0.00  0.00    +0.000 F 
ATOM     18  C   UNL     1      -0.169   9.146  22.161  0.00  0.00    +0.000 C 
ATOM     19  F   UNL     1       0.570   9.241  23.295  0.00  0.00    +0.000 F 
ATOM     20  F   UNL     1      -1.081   8.163  22.365  0.00  0.00    +0.000 F 
ENDBRANCH   1  18
BRANCH   8  21
ATOM     21  C   UNL     1       3.212   5.245  20.259  0.00  0.00    +0.000 C 
BRANCH  21  22
ATOM     22  C   UNL     1       2.570   3.967  19.766  0.00  0.00    +0.000 A 
ATOM     23  C   UNL     1       3.186   2.670  19.673  0.00  0.00    +0.000 A 
ATOM     24  C   UNL     1       2.344   1.710  19.159  0.00  0.00    +0.000 A 
ATOM     25  S   UNL     1       0.789   2.333  18.833  0.00  0.00    +0.000 S 
ATOM     26  C   UNL     1       1.248   3.894  19.355  0.00  0.00    +0.000 A 
ENDBRANCH  21  22
ENDBRANCH   8  21
TORSDOF 4
ENDMDL
MODEL 2
REMARK VINA RESULT:      -7.5      0.149      1.210
REMARK  Name = 
REMARK  4 active torsions:
REMARK  status: ('A' for Active; 'I' for Inactive)
REMARK    1  A    between atoms: C_2  and  C_5
REMARK    2  A    between atoms: C_11  and  C_12
REMARK    3  A    between atoms: C_18  and  C_19
REMARK    4  A    between atoms: C_19  and  C_20
REMARK                            x       y       z     vdW  Elec       q    Type
REMARK                         _______ _______ _______ _____ _____    ______ ____
ROOT
ATOM      1  C   UNL     1       0.741   8.823  20.919  0.00  0.00    +0.000 A 
ATOM      2  C   UNL     1       0.892   9.823  19.859  0.00  0.00    +0.000 A 
ATOM      3  C   UNL     1       1.695   9.613  18.799  0.00  0.00    +0.000 A 
ATOM      4 CL   UNL     1       1.851  10.805  17.564  0.00  0.00    +0.000 Cl
ATOM      5  C   UNL     1       2.427   8.396  18.682  0.00  0.00    +0.000 A 
ATOM      6  N   UNL     1       3.259   7.962  17.764  0.00  0.00    +0.000 NA
ATOM      7  C   UNL     1       3.643   6.701  18.161  0.00  0.00    +0.000 A 
ATOM      8  C   UNL     1       3.064   6.370  19.379  0.00  0.00    +0.000 A 
ATOM      9  N   UNL     1       2.263   7.458  19.697  0.00  0.00    +0.000 N 
ATOM     10  C   UNL     1       1.426   7.668  20.799  0.00  0.00    +0.000 A 
ENDROOT
BRANCH   7  11
ATOM     11  C   UNL     1       4.533   5.904  17.331  0.00  0.00    +0.000 A 
ATOM     12  C   UNL     1       5.841   6.358  17.095  0.00  0.00    +0.000 A 
ATOM     13  C   UNL     1       6.697   5.660  16.238  0.00  0.00    +0.000 A 
ATOM     14  C   UNL     1       6.254   4.501  15.603  0.00  0.00    +0.000 A 
ATOM     15  C   UNL     1       4.963   4.039  15.829  0.00  0.00    +0.000 A 
ATOM     16  C   UNL     1       4.108   4.739  16.684  0.00  0.00    +0.000 A 
ENDBRANCH   7  11
BRANCH   1  18
ATOM     17  F   UNL     1      -1.072   8.156  22.323  0.00  0.00    +0.000 F 
ATOM     18  C   UNL     1      -0.156   9.128  22.088  0.00  0.00    +0.000 C 
ATOM     19  F   UNL     1      -0.846  10.280  21.892  0.00  0.00    +0.000 F 
ATOM     20  F   UNL     1       0.555   9.285  23.233  0.00  0.00    +0.000 F 
ENDBRANCH   1  18
BRANCH   8  21
ATOM     21  C   UNL     1       3.210   5.175  20.269  0.00  0.00    +0.000 C 
BRANCH  21  22
ATOM     22  C   UNL     1       2.583   3.904  19.741  0.00  0.00    +0.000 A 
ATOM     23  C   UNL     1       3.258   2.671  19.431  0.00  0.00    +0.000 A 
ATOM     24  C   UNL     1       2.411   1.702  18.942  0.00  0.00    +0.000 A 
ATOM     25  S   UNL     1       0.790   2.233  18.901  0.00  0.00    +0.000 S 
ATOM     26  C   UNL     1       1.223   3.769  19.512  0.00  0.00    +0.000 A 
ENDBRANCH  21  22
ENDBRANCH   8  21
TORSDOF 4
ENDMDL
MODEL 3
REMARK VINA RESULT:      -7.4      0.449      1.437
REMARK  Name = 
REMARK  4 active torsions:
REMARK  status: ('A' for Active; 'I' for Inactive)
REMARK    1  A    between atoms: C_2  and  C_5
REMARK    2  A    between atoms: C_11  and  C_12
REMARK    3  A    between atoms: C_18  and  C_19
REMARK    4  A    between atoms: C_19  and  C_20
REMARK                            x       y       z     vdW  Elec       q    Type
REMARK                         _______ _______ _______ _____ _____    ______ ____
ROOT
ATOM      1  C   UNL     1       0.689   8.890  20.984  0.00  0.00    +0.000 A 
ATOM      2  C   UNL     1       0.841   9.888  19.922  0.00  0.00    +0.000 A 
ATOM      3  C   UNL     1       1.632   9.669  18.855  0.00  0.00    +0.000 A 
ATOM      4 CL   UNL     1       1.789  10.860  17.619  0.00  0.00    +0.000 Cl
ATOM      5  C   UNL     1       2.351   8.446  18.732  0.00  0.00    +0.000 A 
ATOM      6  N   UNL     1       3.171   8.003  17.807  0.00  0.00    +0.000 NA
ATOM      7  C   UNL     1       3.545   6.738  18.200  0.00  0.00    +0.000 A 
ATOM      8  C   UNL     1       2.974   6.413  19.424  0.00  0.00    +0.000 A 
ATOM      9  N   UNL     1       2.187   7.509  19.749  0.00  0.00    +0.000 N 
ATOM     10  C   UNL     1       1.362   7.728  20.858  0.00  0.00    +0.000 A 
ENDROOT
BRANCH   7  11
ATOM     11  C   UNL     1       4.420   5.933  17.363  0.00  0.00    +0.000 A 
ATOM     12  C   UNL     1       5.693   6.423  17.028  0.00  0.00    +0.000 A 
ATOM     13  C   UNL     1       6.528   5.713  16.161  0.00  0.00    +0.000 A 
ATOM     14  C   UNL     1       6.099   4.505  15.614  0.00  0.00    +0.000 A 
ATOM     15  C   UNL     1       4.842   4.006  15.939  0.00  0.00    +0.000 A 
ATOM     16  C   UNL     1       4.008   4.719  16.804  0.00  0.00    +0.000 A 
ENDBRANCH   7  11
BRANCH   1  18
ATOM     17  F   UNL     1       0.498   9.368  23.316  0.00  0.00    +0.000 F 
ATOM     18  C   UNL     1      -0.194   9.204  22.161  0.00  0.00    +0.000 C 
ATOM     19  F   UNL     1      -1.094   8.211  22.379  0.00  0.00    +0.000 F 
ATOM     20  F   UNL     1      -0.904  10.342  21.961  0.00  0.00    +0.000 F 
ENDBRANCH   1  18
BRANCH   8  21
ATOM     21  C   UNL     1       3.116   5.217  20.313  0.00  0.00    +0.000 C 
BRANCH  21  22
ATOM     22  C   UNL     1       2.466   3.954  19.794  0.00  0.00    +0.000 A 
ATOM     23  C   UNL     1       1.081   3.774  19.447  0.00  0.00    +0.000 A 
ATOM     24  C   UNL     1       0.794   2.494  19.027  0.00  0.00    +0.000 A 
ATOM     25  S   UNL     1       2.185   1.507  18.988  0.00  0.00    +0.000 S 
ATOM     26  C   UNL     1       3.169   2.783  19.558  0.00  0.00    +0.000 A 
ENDBRANCH  21  22
ENDBRANCH   8  21
TORSDOF 4
ENDMDL
MODEL 4
REMARK VINA RESULT:      -7.3      0.556      1.141
REMARK  Name = 
REMARK  4 active torsions:
REMARK  status: ('A' for Active; 'I' for Inactive)
REMARK    1  A    between atoms: C_2  and  C_5
REMARK    2  A    between atoms: C_11  and  C_12
REMARK    3  A    between atoms: C_18  and  C_19
REMARK    4  A    between atoms: C_19  and  C_20
REMARK                            x       y       z     vdW  Elec       q    Type
REMARK                         _______ _______ _______ _____ _____    ______ ____
ROOT
ATOM      1  C   UNL     1       0.588   9.012  21.228  0.00  0.00    +0.000 A 
ATOM      2  C   UNL     1       0.632  10.001  20.148  0.00  0.00    +0.000 A 
ATOM      3  C   UNL     1       1.344   9.788  19.025  0.00  0.00    +0.000 A 
ATOM      4 CL   UNL     1       1.376  10.966  17.768  0.00  0.00    +0.000 Cl
ATOM      5  C   UNL     1       2.082   8.580  18.860  0.00  0.00    +0.000 A 
ATOM      6  N   UNL     1       2.839   8.146  17.879  0.00  0.00    +0.000 NA
ATOM      7  C   UNL     1       3.274   6.896  18.255  0.00  0.00    +0.000 A 
ATOM      8  C   UNL     1       2.807   6.572  19.523  0.00  0.00    +0.000 A 
ATOM      9  N   UNL     1       2.021   7.653  19.896  0.00  0.00    +0.000 N 
ATOM     10  C   UNL     1       1.278   7.866  21.063  0.00  0.00    +0.000 A 
ENDROOT
BRANCH   7  11
ATOM     11  C   UNL     1       4.102   6.102  17.361  0.00  0.00    +0.000 A 
ATOM     12  C   UNL     1       3.751   4.767  17.104  0.00  0.00    +0.000 A 
ATOM     13  C   UNL     1       4.568   3.951  16.315  0.00  0.00    +0.000 A 
ATOM     14  C   UNL     1       5.748   4.460  15.775  0.00  0.00    +0.000 A 
ATOM     15  C   UNL     1       6.107   5.781  16.020  0.00  0.00    +0.000 A 
ATOM     16  C   UNL     1       5.290   6.594  16.811  0.00  0.00    +0.000 A 
ENDBRANCH   7  11
BRANCH   1  18
ATOM     17  F   UNL     1      -1.150   8.380  22.739  0.00  0.00    +0.000 F 
ATOM     18  C   UNL     1      -0.210   9.319  22.467  0.00  0.00    +0.000 C 
ATOM     19  F   UNL     1      -0.859  10.505  22.352  0.00  0.00    +0.000 F 
ATOM     20  F   UNL     1       0.587   9.410  23.561  0.00  0.00    +0.000 F 
ENDBRANCH   1  18
BRANCH   8  21
ATOM     21  C   UNL     1       3.047   5.391  20.410  0.00  0.00    +0.000 C 
BRANCH  21  22
ATOM     22  C   UNL     1       2.392   4.106  19.956  0.00  0.00    +0.000 A 
ATOM     23  C   UNL     1       1.009   3.917  19.608  0.00  0.00    +0.000 A 
ATOM     24  C   UNL     1       0.715   2.619  19.257  0.00  0.00    +0.000 A 
ATOM     25  S   UNL     1       2.099   1.621  19.283  0.00  0.00    +0.000 S 
ATOM     26  C   UNL     1       3.088   2.919  19.790  0.00  0.00    +0.000 A 
ENDBRANCH  21  22
ENDBRANCH   8  21
TORSDOF 4
ENDMDL
MODEL 5
REMARK VINA RESULT:      -7.2      2.857      4.479
REMARK  Name = 
REMARK  4 active torsions:
REMARK  status: ('A' for Active; 'I' for Inactive)
REMARK    1  A    between atoms: C_2  and  C_5
REMARK    2  A    between atoms: C_11  and  C_12
REMARK    3  A    between atoms: C_18  and  C_19
REMARK    4  A    between atoms: C_19  and  C_20
REMARK                            x       y       z     vdW  Elec       q    Type
REMARK                         _______ _______ _______ _____ _____    ______ ____
ROOT
ATOM      1  C   UNL     1       1.419  11.020  19.487  0.00  0.00    +0.000 A 
ATOM      2  C   UNL     1       0.799  10.982  20.814  0.00  0.00    +0.000 A 
ATOM      3  C   UNL     1       0.614   9.823  21.473  0.00  0.00    +0.000 A 
ATOM      4 CL   UNL     1      -0.115   9.808  23.035  0.00  0.00    +0.000 Cl
ATOM      5  C   UNL     1       1.022   8.590  20.888  0.00  0.00    +0.000 A 
ATOM      6  N   UNL     1       0.950   7.352  21.320  0.00  0.00    +0.000 NA
ATOM      7  C   UNL     1       1.526   6.571  20.344  0.00  0.00    +0.000 A 
ATOM      8  C   UNL     1       1.921   7.348  19.261  0.00  0.00    +0.000 A 
ATOM      9  N   UNL     1       1.614   8.650  19.630  0.00  0.00    +0.000 N 
ATOM     10  C   UNL     1       1.814   9.852  18.941  0.00  0.00    +0.000 A 
ENDROOT
BRANCH   7  11
ATOM     11  C   UNL     1       1.660   5.135  20.529  0.00  0.00    +0.000 A 
ATOM     12  C   UNL     1       0.742   4.274  19.908  0.00  0.00    +0.000 A 
ATOM     13  C   UNL     1       0.792   2.894  20.129  0.00  0.00    +0.000 A 
ATOM     14  C   UNL     1       1.759   2.359  20.978  0.00  0.00    +0.000 A 
ATOM     15  C   UNL     1       2.676   3.200  21.599  0.00  0.00    +0.000 A 
ATOM     16  C   UNL     1       2.623   4.579  21.378  0.00  0.00    +0.000 A 
ENDBRANCH   7  11
BRANCH   1  18
ATOM     17  F   UNL     1       2.005  13.331  19.621  0.00  0.00    +0.000 F 
ATOM     18  C   UNL     1       1.579  12.346  18.793  0.00  0.00    +0.000 C 
ATOM     19  F   UNL     1       0.406  12.763  18.254  0.00  0.00    +0.000 F 
ATOM     20  F   UNL     1       2.475  12.270  17.776  0.00  0.00    +0.000 F 
ENDBRANCH   1  18
BRANCH   8  21
ATOM     21  C   UNL     1       2.515   6.993  17.934  0.00  0.00    +0.000 C 
BRANCH  21  22
ATOM     22  C   UNL     1       3.502   5.847  17.961  0.00  0.00    +0.000 A 
ATOM     23  C   UNL     1       3.313   4.530  17.415  0.00  0.00    +0.000 A 
ATOM     24  C   UNL     1       4.393   3.701  17.623  0.00  0.00    +0.000 A 
ATOM     25  S   UNL     1       5.668   4.502  18.423  0.00  0.00    +0.000 S 
ATOM     26  C   UNL     1       4.768   5.952  18.516  0.00  0.00    +0.000 A 
ENDBRANCH  21  22
ENDBRANCH   8  21
TORSDOF 4
ENDMDL
MODEL 6
REMARK VINA RESULT:      -7.1      2.728      4.251
REMARK  Name = 
REMARK  4 active torsions:
REMARK  status: ('A' for Active; 'I' for Inactive)
REMARK    1  A    between atoms: C_2  and  C_5
REMARK    2  A    between atoms: C_11  and  C_12
REMARK    3  A    between atoms: C_18  and  C_19
REMARK    4  A    between atoms: C_19  and  C_20
REMARK                            x       y       z     vdW  Elec       q    Type
REMARK                         _______ _______ _______ _____ _____    ______ ____
ROOT
ATOM      1  C   UNL     1       1.783  10.501  18.982  0.00  0.00    +0.000 A 
ATOM      2  C   UNL     1       0.979  10.087  20.135  0.00  0.00    +0.000 A 
ATOM      3  C   UNL     1       0.888   8.795  20.503  0.00  0.00    +0.000 A 
ATOM      4 CL   UNL     1      -0.061   8.336  21.867  0.00  0.00    +0.000 Cl
ATOM      5  C   UNL     1       1.579   7.788  19.770  0.00  0.00    +0.000 A 
ATOM      6  N   UNL     1       1.647   6.485  19.926  0.00  0.00    +0.000 NA
ATOM      7  C   UNL     1       2.487   6.025  18.938  0.00  0.00    +0.000 A 
ATOM      8  C   UNL     1       2.912   7.069  18.126  0.00  0.00    +0.000 A 
ATOM      9  N   UNL     1       2.340   8.205  18.683  0.00  0.00    +0.000 N 
ATOM     10  C   UNL     1       2.444   9.546  18.297  0.00  0.00    +0.000 A 
ENDROOT
BRANCH   7  11
ATOM     11  C   UNL     1       2.825   4.613  18.854  0.00  0.00    +0.000 A 
ATOM     12  C   UNL     1       3.852   4.103  19.666  0.00  0.00    +0.000 A 
ATOM     13  C   UNL     1       4.257   2.770  19.554  0.00  0.00    +0.000 A 
ATOM     14  C   UNL     1       3.643   1.931  18.626  0.00  0.00    +0.000 A 
ATOM     15  C   UNL     1       2.624   2.421  17.818  0.00  0.00    +0.000 A 
ATOM     16  C   UNL     1       2.222   3.755  17.930  0.00  0.00    +0.000 A 
ENDBRANCH   7  11
BRANCH   1  18
ATOM     17  F   UNL     1       2.265  12.752  19.617  0.00  0.00    +0.000 F 
ATOM     18  C   UNL     1       1.827  11.959  18.608  0.00  0.00    +0.000 C 
ATOM     19  F   UNL     1       0.598  12.414  18.255  0.00  0.00    +0.000 F 
ATOM     20  F   UNL     1       2.648  12.176  17.550  0.00  0.00    +0.000 F 
ENDBRANCH   1  18
BRANCH   8  21
ATOM     21  C   UNL     1       3.753   7.101  16.889  0.00  0.00    +0.000 C 
BRANCH  21  22
ATOM     22  C   UNL     1       4.939   6.161  16.898  0.00  0.00    +0.000 A 
ATOM     23  C   UNL     1       5.140   5.014  16.053  0.00  0.00    +0.000 A 
ATOM     24  C   UNL     1       6.312   4.345  16.323  0.00  0.00    +0.000 A 
ATOM     25  S   UNL     1       7.216   5.111  17.551  0.00  0.00    +0.000 S 
ATOM     26  C   UNL     1       6.027   6.324  17.741  0.00  0.00    +0.000 A 
ENDBRANCH  21  22
ENDBRANCH   8  21
TORSDOF 4
ENDMDL
MODEL 7
REMARK VINA RESULT:      -7.0      2.766      4.227
REMARK  Name = 
REMARK  4 active torsions:
REMARK  status: ('A' for Active; 'I' for Inactive)
REMARK    1  A    between atoms: C_2  and  C_5
REMARK    2  A    between atoms: C_11  and  C_12
REMARK    3  A    between atoms: C_18  and  C_19
REMARK    4  A    between atoms: C_19  and  C_20
REMARK                            x       y       z     vdW  Elec       q    Type
REMARK                         _______ _______ _______ _____ _____    ______ ____
ROOT
ATOM      1  C   UNL     1       1.575  10.731  19.010  0.00  0.00    +0.000 A 
ATOM      2  C   UNL     1       0.854  10.276  20.201  0.00  0.00    +0.000 A 
ATOM      3  C   UNL     1       0.851   8.982  20.572  0.00  0.00    +0.000 A 
ATOM      4 CL   UNL     1      -0.002   8.475  21.981  0.00  0.00    +0.000 Cl
ATOM      5  C   UNL     1       1.556   8.012  19.804  0.00  0.00    +0.000 A 
ATOM      6  N   UNL     1       1.701   6.715  19.954  0.00  0.00    +0.000 NA
ATOM      7  C   UNL     1       2.514   6.299  18.925  0.00  0.00    +0.000 A 
ATOM      8  C   UNL     1       2.841   7.363  18.093  0.00  0.00    +0.000 A 
ATOM      9  N   UNL     1       2.239   8.467  18.680  0.00  0.00    +0.000 N 
ATOM     10  C   UNL     1       2.251   9.812  18.292  0.00  0.00    +0.000 A 
ENDROOT
BRANCH   7  11
ATOM     11  C   UNL     1       2.923   4.906  18.823  0.00  0.00    +0.000 A 
ATOM     12  C   UNL     1       2.171   4.027  18.027  0.00  0.00    +0.000 A 
ATOM     13  C   UNL     1       2.488   2.666  17.970  0.00  0.00    +0.000 A 
ATOM     14  C   UNL     1       3.557   2.168  18.712  0.00  0.00    +0.000 A 
ATOM     15  C   UNL     1       4.311   3.028  19.502  0.00  0.00    +0.000 A 
ATOM     16  C   UNL     1       3.992   4.387  19.559  0.00  0.00    +0.000 A 
ENDBRANCH   7  11
BRANCH   1  18
ATOM     17  F   UNL     1       0.304  12.578  18.187  0.00  0.00    +0.000 F 
ATOM     18  C   UNL     1       1.523  12.188  18.636  0.00  0.00    +0.000 C 
ATOM     19  F   UNL     1       2.415  12.477  17.655  0.00  0.00    +0.000 F 
ATOM     20  F   UNL     1       1.827  12.984  19.692  0.00  0.00    +0.000 F 
ENDBRANCH   1  18
BRANCH   8  21
ATOM     21  C   UNL     1       3.616   7.437  16.815  0.00  0.00    +0.000 C 
BRANCH  21  22
ATOM     22  C   UNL     1       4.854   6.570  16.767  0.00  0.00    +0.000 A 
ATOM     23  C   UNL     1       5.047   5.380  15.981  0.00  0.00    +0.000 A 
ATOM     24  C   UNL     1       6.279   4.799  16.177  0.00  0.00    +0.000 A 
ATOM     25  S   UNL     1       7.245   5.699  17.258  0.00  0.00    +0.000 S 
ATOM     26  C   UNL     1       6.005   6.853  17.487  0.00  0.00    +0.000 A 
ENDBRANCH  21  22
ENDBRANCH   8  21
TORSDOF 4
ENDMDL
MODEL 8
REMARK VINA RESULT:      -7.0      2.760      4.225
REMARK  Name = 
REMARK  4 active torsions:
REMARK  status: ('A' for Active; 'I' for Inactive)
REMARK    1  A    between atoms: C_2  and  C_5
REMARK    2  A    between atoms: C_11  and  C_12
REMARK    3  A    between atoms: C_18  and  C_19
REMARK    4  A    between atoms: C_19  and  C_20
REMARK                            x       y       z     vdW  Elec       q    Type
REMARK                         _______ _______ _______ _____ _____    ______ ____
ROOT
ATOM      1  C   UNL     1       1.596  10.621  18.935  0.00  0.00    +0.000 A 
ATOM      2  C   UNL     1       0.885  10.143  20.124  0.00  0.00    +0.000 A 
ATOM      3  C   UNL     1       0.903   8.846  20.484  0.00  0.00    +0.000 A 
ATOM      4 CL   UNL     1       0.060   8.313  21.889  0.00  0.00    +0.000 Cl
ATOM      5  C   UNL     1       1.622   7.894  19.706  0.00  0.00    +0.000 A 
ATOM      6  N   UNL     1       1.789   6.599  19.844  0.00  0.00    +0.000 NA
ATOM      7  C   UNL     1       2.606   6.205  18.809  0.00  0.00    +0.000 A 
ATOM      8  C   UNL     1       2.914   7.282  17.987  0.00  0.00    +0.000 A 
ATOM      9  N   UNL     1       2.296   8.371  18.584  0.00  0.00    +0.000 N 
ATOM     10  C   UNL     1       2.286   9.719  18.208  0.00  0.00    +0.000 A 
ENDROOT
BRANCH   7  11
ATOM     11  C   UNL     1       3.037   4.821  18.694  0.00  0.00    +0.000 A 
ATOM     12  C   UNL     1       2.298   3.936  17.893  0.00  0.00    +0.000 A 
ATOM     13  C   UNL     1       2.636   2.581  17.823  0.00  0.00    +0.000 A 
ATOM     14  C   UNL     1       3.715   2.094  18.558  0.00  0.00    +0.000 A 
ATOM     15  C   UNL     1       4.457   2.959  19.354  0.00  0.00    +0.000 A 
ATOM     16  C   UNL     1       4.117   4.312  19.423  0.00  0.00    +0.000 A 
ENDBRANCH   7  11
BRANCH   1  18
ATOM     17  F   UNL     1       2.347  12.419  17.555  0.00  0.00    +0.000 F 
ATOM     18  C   UNL     1       1.520  12.080  18.575  0.00  0.00    +0.000 C 
ATOM     19  F   UNL     1       1.855  12.865  19.630  0.00  0.00    +0.000 F 
ATOM     20  F   UNL     1       0.265  12.436  18.202  0.00  0.00    +0.000 F 
ENDBRANCH   1  18
BRANCH   8  21
ATOM     21  C   UNL     1       3.686   7.380  16.709  0.00  0.00    +0.000 C 
BRANCH  21  22
ATOM     22  C   UNL     1       4.999   6.629  16.695  0.00  0.00    +0.000 A 
ATOM     23  C   UNL     1       6.182   6.941  17.452  0.00  0.00    +0.000 A 
ATOM     24  C   UNL     1       7.226   6.080  17.200  0.00  0.00    +0.000 A 
ATOM     25  S   UNL     1       6.788   4.852  16.100  0.00  0.00    +0.000 S 
ATOM     26  C   UNL     1       5.210   5.487  15.938  0.00  0.00    +0.000 A 
ENDBRANCH  21  22
ENDBRANCH   8  21
TORSDOF 4
ENDMDL
MODEL 9
REMARK VINA RESULT:      -7.0      2.896      4.721
REMARK  Name = 
REMARK  4 active torsions:
REMARK  status: ('A' for Active; 'I' for Inactive)
REMARK    1  A    between atoms: C_2  and  C_5
REMARK    2  A    between atoms: C_11  and  C_12
REMARK    3  A    between atoms: C_18  and  C_19
REMARK    4  A    between atoms: C_19  and  C_20
REMARK                            x       y       z     vdW  Elec       q    Type
REMARK                         _______ _______ _______ _____ _____    ______ ____
ROOT
ATOM      1  C   UNL     1       1.634  10.819  19.356  0.00  0.00    +0.000 A 
ATOM      2  C   UNL     1       0.970  10.783  20.662  0.00  0.00    +0.000 A 
ATOM      3  C   UNL     1       0.748   9.624  21.309  0.00  0.00    +0.000 A 
ATOM      4 CL   UNL     1      -0.031   9.611  22.846  0.00  0.00    +0.000 Cl
ATOM      5  C   UNL     1       1.158   8.388  20.731  0.00  0.00    +0.000 A 
ATOM      6  N   UNL     1       1.056   7.149  21.153  0.00  0.00    +0.000 NA
ATOM      7  C   UNL     1       1.652   6.365  20.192  0.00  0.00    +0.000 A 
ATOM      8  C   UNL     1       2.093   7.142  19.127  0.00  0.00    +0.000 A 
ATOM      9  N   UNL     1       1.791   8.446  19.493  0.00  0.00    +0.000 N 
ATOM     10  C   UNL     1       2.030   9.649  18.817  0.00  0.00    +0.000 A 
ENDROOT
BRANCH   7  11
ATOM     11  C   UNL     1       1.760   4.926  20.374  0.00  0.00    +0.000 A 
ATOM     12  C   UNL     1       1.188   4.069  19.421  0.00  0.00    +0.000 A 
ATOM     13  C   UNL     1       1.203   2.683  19.605  0.00  0.00    +0.000 A 
ATOM     14  C   UNL     1       1.787   2.138  20.747  0.00  0.00    +0.000 A 
ATOM     15  C   UNL     1       2.359   2.975  21.698  0.00  0.00    +0.000 A 
ATOM     16  C   UNL     1       2.342   4.360  21.513  0.00  0.00    +0.000 A 
ENDBRANCH   7  11
BRANCH   1  18
ATOM     17  F   UNL     1       2.400  13.078  19.481  0.00  0.00    +0.000 F 
ATOM     18  C   UNL     1       1.834  12.146  18.675  0.00  0.00    +0.000 C 
ATOM     19  F   UNL     1       0.654  12.662  18.246  0.00  0.00    +0.000 F 
ATOM     20  F   UNL     1       2.633  12.030  17.584  0.00  0.00    +0.000 F 
ENDBRANCH   1  18
BRANCH   8  21
ATOM     21  C   UNL     1       2.724   6.785  17.818  0.00  0.00    +0.000 C 
BRANCH  21  22
ATOM     22  C   UNL     1       4.201   6.468  17.885  0.00  0.00    +0.000 A 
ATOM     23  C   UNL     1       5.240   7.005  17.047  0.00  0.00    +0.000 A 
ATOM     24  C   UNL     1       6.486   6.499  17.342  0.00  0.00    +0.000 A 
ATOM     25  S   UNL     1       6.440   5.419  18.662  0.00  0.00    +0.000 S 
ATOM     26  C   UNL     1       4.749   5.607  18.823  0.00  0.00    +0.000 A 
ENDBRANCH  21  22
ENDBRANCH   8  21
TORSDOF 4
ENDMDL
