MODEL 1
REMARK VINA RESULT:      -7.9      0.000      0.000
REMARK  Name = 
REMARK  12 active torsions:
REMARK  status: ('A' for Active; 'I' for Inactive)
REMARK    1  A    between atoms: C_1  and  C_2
REMARK    2  A    between atoms: C_2  and  C_3
REMARK    3  A    between atoms: C_2  and  C_4
REMARK    4  A    between atoms: C_2  and  C_23
REMARK    5  A    between atoms: C_4  and  C_5
REMARK    6  A    between atoms: C_8  and  C_9
REMARK    7  A    between atoms: C_9  and  O_11
REMARK    8  A    between atoms: O_11  and  C_12
REMARK    9  A    between atoms: C_15  and  C_16
REMARK   10  A    between atoms: N_25  and  C_26
REMARK   11  A    between atoms: C_29  and  C_30
REMARK   12  A    between atoms: C_30  and  O_32
REMARK                            x       y       z     vdW  Elec       q    Type
REMARK                         _______ _______ _______ _____ _____    ______ ____
ROOT
ATOM      1  C   UNL     1       2.349   5.946  19.925  0.00  0.00    +0.000 A 
ATOM      2  C   UNL     1       2.657   6.721  18.825  0.00  0.00    +0.000 A 
ATOM      3  C   UNL     1       2.104   8.024  18.911  0.00  0.00    +0.000 A 
ATOM      4  C   UNL     1       1.421   8.231  20.098  0.00  0.00    +0.000 A 
ATOM      5  S   UNL     1       1.453   6.838  21.084  0.00  0.00    +0.000 S 
ENDROOT
BRANCH   4   6
ATOM      6  C   UNL     1       0.792   9.456  20.584  0.00  0.00    +0.000 C 
ATOM      7  O   UNL     1       0.412   9.699  21.722  0.00  0.00    +0.000 OA
BRANCH   6   8
ATOM      8  O   UNL     1       0.719  10.361  19.526  0.00  0.00    +0.000 OA
BRANCH   8   9
ATOM      9  C   UNL     1      -0.577  10.666  19.083  0.00  0.00    +0.000 A 
ATOM     10  C   UNL     1      -1.029  10.014  17.936  0.00  0.00    +0.000 A 
ATOM     11  C   UNL     1      -2.279  10.349  17.403  0.00  0.00    +0.000 A 
ATOM     12  C   UNL     1      -3.063  11.340  18.015  0.00  0.00    +0.000 A 
ATOM     13  C   UNL     1      -2.585  12.012  19.142  0.00  0.00    +0.000 A 
ATOM     14  C   UNL     1      -1.342  11.681  19.660  0.00  0.00    +0.000 A 
ATOM     15  F   UNL     1      -0.870  12.393  20.693  0.00  0.00    +0.000 F 
BRANCH  12  16
ATOM     16  C   UNL     1      -4.413  11.690  17.495  0.00  0.00    +0.000 C 
ATOM     17  N   UNL     1      -4.927  11.148  16.438  0.00  0.00    +0.000 NA
ATOM     18  N   UNL     1      -5.174  12.618  18.140  0.00  0.00    +0.000 N 
ATOM     19  H   UNL     1      -4.280  10.501  15.985  0.00  0.00    +0.000 HD
ATOM     20  H   UNL     1      -5.109  12.636  19.151  0.00  0.00    +0.000 HD
ATOM     21  H   UNL     1      -6.136  12.594  17.811  0.00  0.00    +0.000 HD
ENDBRANCH  12  16
ENDBRANCH   8   9
ENDBRANCH   6   8
ENDBRANCH   4   6
BRANCH   1  22
ATOM     22  C   UNL     1       2.742   4.518  20.190  0.00  0.00    +0.000 C 
BRANCH  22  24
ATOM     23  C   UNL     1       2.414   2.051  19.648  0.00  0.00    +0.000 C 
ATOM     24  C   UNL     1       2.249   3.503  19.134  0.00  0.00    +0.000 C 
ATOM     25  C   UNL     1       0.746   3.738  18.880  0.00  0.00    +0.000 C 
BRANCH  24  26
ATOM     26  C   UNL     1       3.021   3.598  17.811  0.00  0.00    +0.000 C 
ATOM     27  O   UNL     1       2.484   3.226  16.767  0.00  0.00    +0.000 OA
ATOM     28  N   UNL     1       4.322   4.093  17.858  0.00  0.00    +0.000 N 
ATOM     29  H   UNL     1       4.798   4.093  18.750  0.00  0.00    +0.000 HD
BRANCH  28  30
ATOM     30  C   UNL     1       5.103   4.351  16.701  0.00  0.00    +0.000 A 
ATOM     31  C   UNL     1       5.672   3.321  15.947  0.00  0.00    +0.000 A 
ATOM     32  C   UNL     1       6.462   3.586  14.831  0.00  0.00    +0.000 A 
ATOM     33  C   UNL     1       6.685   4.900  14.426  0.00  0.00    +0.000 A 
ATOM     34  C   UNL     1       6.091   5.947  15.146  0.00  0.00    +0.000 A 
ATOM     35  C   UNL     1       5.300   5.672  16.277  0.00  0.00    +0.000 A 
BRANCH  33  36
ATOM     36  C   UNL     1       7.498   5.088  13.194  0.00  0.00    +0.000 C 
ATOM     37  O   UNL     1       8.463   5.834  13.154  0.00  0.00    +0.000 OA
BRANCH  36  38
ATOM     38  O   UNL     1       7.066   4.396  12.123  0.00  0.00    +0.000 OA
ATOM     39  H   UNL     1       7.761   3.944  11.613  0.00  0.00    +0.000 HD
ENDBRANCH  36  38
ENDBRANCH  33  36
ENDBRANCH  28  30
ENDBRANCH  24  26
ENDBRANCH  22  24
ENDBRANCH   1  22
TORSDOF 10
ENDMDL
MODEL 2
REMARK VINA RESULT:      -7.8      0.744      1.110
REMARK  Name = 
REMARK  12 active torsions:
REMARK  status: ('A' for Active; 'I' for Inactive)
REMARK    1  A    between atoms: C_1  and  C_2
REMARK    2  A    between atoms: C_2  and  C_3
REMARK    3  A    between atoms: C_2  and  C_4
REMARK    4  A    between atoms: C_2  and  C_23
REMARK    5  A    between atoms: C_4  and  C_5
REMARK    6  A    between atoms: C_8  and  C_9
REMARK    7  A    between atoms: C_9  and  O_11
REMARK    8  A    between atoms: O_11  and  C_12
REMARK    9  A    between atoms: C_15  and  C_16
REMARK   10  A    between atoms: N_25  and  C_26
REMARK   11  A    between atoms: C_29  and  C_30
REMARK   12  A    between atoms: C_30  and  O_32
REMARK                            x       y       z     vdW  Elec       q    Type
REMARK                         _______ _______ _______ _____ _____    ______ ____
ROOT
ATOM      1  C   UNL     1       2.651   6.358  19.719  0.00  0.00    +0.000 A 
ATOM      2  C   UNL     1       2.839   7.027  18.526  0.00  0.00    +0.000 A 
ATOM      3  C   UNL     1       2.143   8.262  18.484  0.00  0.00    +0.000 A 
ATOM      4  C   UNL     1       1.473   8.532  19.665  0.00  0.00    +0.000 A 
ATOM      5  S   UNL     1       1.690   7.277  20.802  0.00  0.00    +0.000 S 
ENDROOT
BRANCH   4   6
ATOM      6  C   UNL     1       0.721   9.728  20.032  0.00  0.00    +0.000 C 
ATOM      7  O   UNL     1       0.408  10.098  21.156  0.00  0.00    +0.000 OA
BRANCH   6   8
ATOM      8  O   UNL     1       0.432  10.439  18.867  0.00  0.00    +0.000 OA
BRANCH   8   9
ATOM      9  C   UNL     1      -0.913  10.800  18.700  0.00  0.00    +0.000 A 
ATOM     10  C   UNL     1      -1.679  10.025  17.829  0.00  0.00    +0.000 A 
ATOM     11  C   UNL     1      -3.001  10.397  17.560  0.00  0.00    +0.000 A 
ATOM     12  C   UNL     1      -3.545  11.545  18.156  0.00  0.00    +0.000 A 
ATOM     13  C   UNL     1      -2.758  12.335  18.998  0.00  0.00    +0.000 A 
ATOM     14  C   UNL     1      -1.446  11.966  19.254  0.00  0.00    +0.000 A 
ATOM     15  F   UNL     1      -0.687  12.780  20.001  0.00  0.00    +0.000 F 
BRANCH  12  16
ATOM     16  C   UNL     1      -4.959  11.944  17.921  0.00  0.00    +0.000 C 
ATOM     17  N   UNL     1      -5.560  12.862  18.608  0.00  0.00    +0.000 NA
ATOM     18  N   UNL     1      -5.686  11.340  16.939  0.00  0.00    +0.000 N 
ATOM     19  H   UNL     1      -4.968  13.233  19.353  0.00  0.00    +0.000 HD
ATOM     20  H   UNL     1      -5.186  11.088  16.094  0.00  0.00    +0.000 HD
ATOM     21  H   UNL     1      -6.541  11.855  16.748  0.00  0.00    +0.000 HD
ENDBRANCH  12  16
ENDBRANCH   8   9
ENDBRANCH   6   8
ENDBRANCH   4   6
BRANCH   1  22
ATOM     22  C   UNL     1       3.210   5.024  20.131  0.00  0.00    +0.000 C 
BRANCH  22  24
ATOM     23  C   UNL     1       3.076   2.487  19.952  0.00  0.00    +0.000 C 
ATOM     24  C   UNL     1       2.761   3.834  19.254  0.00  0.00    +0.000 C 
ATOM     25  C   UNL     1       1.234   3.908  19.056  0.00  0.00    +0.000 C 
BRANCH  24  26
ATOM     26  C   UNL     1       3.461   3.802  17.889  0.00  0.00    +0.000 C 
ATOM     27  O   UNL     1       2.892   3.287  16.926  0.00  0.00    +0.000 OA
ATOM     28  N   UNL     1       4.740   4.352  17.807  0.00  0.00    +0.000 N 
ATOM     29  H   UNL     1       5.258   4.476  18.665  0.00  0.00    +0.000 HD
BRANCH  28  30
ATOM     30  C   UNL     1       5.449   4.501  16.586  0.00  0.00    +0.000 A 
ATOM     31  C   UNL     1       4.810   4.432  15.345  0.00  0.00    +0.000 A 
ATOM     32  C   UNL     1       5.520   4.549  14.152  0.00  0.00    +0.000 A 
ATOM     33  C   UNL     1       6.897   4.763  14.175  0.00  0.00    +0.000 A 
ATOM     34  C   UNL     1       7.551   4.875  15.410  0.00  0.00    +0.000 A 
ATOM     35  C   UNL     1       6.828   4.747  16.611  0.00  0.00    +0.000 A 
BRANCH  33  36
ATOM     36  C   UNL     1       7.566   4.926  12.856  0.00  0.00    +0.000 C 
ATOM     37  O   UNL     1       7.314   4.211  11.901  0.00  0.00    +0.000 OA
BRANCH  36  38
ATOM     38  O   UNL     1       8.493   5.903  12.812  0.00  0.00    +0.000 OA
ATOM     39  H   UNL     1       8.245   6.731  13.260  0.00  0.00    +0.000 HD
ENDBRANCH  36  38
ENDBRANCH  33  36
ENDBRANCH  28  30
ENDBRANCH  24  26
ENDBRANCH  22  24
ENDBRANCH   1  22
TORSDOF 10
ENDMDL
MODEL 3
REMARK VINA RESULT:      -7.7      1.098      1.512
REMARK  Name = 
REMARK  12 active torsions:
REMARK  status: ('A' for Active; 'I' for Inactive)
REMARK    1  A    between atoms: C_1  and  C_2
REMARK    2  A    between atoms: C_2  and  C_3
REMARK    3  A    between atoms: C_2  and  C_4
REMARK    4  A    between atoms: C_2  and  C_23
REMARK    5  A    between atoms: C_4  and  C_5
REMARK    6  A    between atoms: C_8  and  C_9
REMARK    7  A    between atoms: C_9  and  O_11
REMARK    8  A    between atoms: O_11  and  C_12
REMARK    9  A    between atoms: C_15  and  C_16
REMARK   10  A    between atoms: N_25  and  C_26
REMARK   11  A    between atoms: C_29  and  C_30
REMARK   12  A    between atoms: C_30  and  O_32
REMARK                            x       y       z     vdW  Elec       q    Type
REMARK                         _______ _______ _______ _____ _____    ______ ____
ROOT
ATOM      1  C   UNL     1       2.488   6.459  19.923  0.00  0.00    +0.000 A 
ATOM      2  C   UNL     1       2.656   7.061  18.692  0.00  0.00    +0.000 A 
ATOM      3  C   UNL     1       2.015   8.324  18.617  0.00  0.00    +0.000 A 
ATOM      4  C   UNL     1       1.407   8.680  19.808  0.00  0.00    +0.000 A 
ATOM      5  S   UNL     1       1.615   7.472  20.997  0.00  0.00    +0.000 S 
ENDROOT
BRANCH   4   6
ATOM      6  C   UNL     1       0.724   9.926  20.145  0.00  0.00    +0.000 C 
ATOM      7  O   UNL     1       0.400  10.323  21.256  0.00  0.00    +0.000 OA
BRANCH   6   8
ATOM      8  O   UNL     1       0.523  10.647  18.968  0.00  0.00    +0.000 OA
BRANCH   8   9
ATOM      9  C   UNL     1      -0.814  10.954  18.672  0.00  0.00    +0.000 A 
ATOM     10  C   UNL     1      -1.458  11.870  19.504  0.00  0.00    +0.000 A 
ATOM     11  C   UNL     1      -2.816  12.142  19.305  0.00  0.00    +0.000 A 
ATOM     12  C   UNL     1      -3.522  11.490  18.283  0.00  0.00    +0.000 A 
ATOM     13  C   UNL     1      -2.877  10.547  17.478  0.00  0.00    +0.000 A 
ATOM     14  C   UNL     1      -1.533  10.276  17.686  0.00  0.00    +0.000 A 
ATOM     15  F   UNL     1      -0.956   9.313  16.955  0.00  0.00    +0.000 F 
BRANCH  12  16
ATOM     16  C   UNL     1      -4.957  11.787  18.022  0.00  0.00    +0.000 C 
ATOM     17  N   UNL     1      -5.577  11.404  16.952  0.00  0.00    +0.000 NA
ATOM     18  N   UNL     1      -5.687  12.490  18.933  0.00  0.00    +0.000 N 
ATOM     19  H   UNL     1      -4.954  10.926  16.298  0.00  0.00    +0.000 HD
ATOM     20  H   UNL     1      -5.476  12.324  19.910  0.00  0.00    +0.000 HD
ATOM     21  H   UNL     1      -6.681  12.427  18.732  0.00  0.00    +0.000 HD
ENDBRANCH  12  16
ENDBRANCH   8   9
ENDBRANCH   6   8
ENDBRANCH   4   6
BRANCH   1  22
ATOM     22  C   UNL     1       3.005   5.122  20.378  0.00  0.00    +0.000 C 
BRANCH  22  24
ATOM     23  C   UNL     1       2.925   2.583  20.187  0.00  0.00    +0.000 C 
ATOM     24  C   UNL     1       2.569   3.926  19.502  0.00  0.00    +0.000 C 
ATOM     25  C   UNL     1       1.038   3.967  19.327  0.00  0.00    +0.000 C 
BRANCH  24  26
ATOM     26  C   UNL     1       3.249   3.917  18.126  0.00  0.00    +0.000 C 
ATOM     27  O   UNL     1       2.605   3.578  17.132  0.00  0.00    +0.000 OA
ATOM     28  N   UNL     1       4.592   4.284  18.068  0.00  0.00    +0.000 N 
ATOM     29  H   UNL     1       5.129   4.256  18.923  0.00  0.00    +0.000 HD
BRANCH  28  30
ATOM     30  C   UNL     1       5.308   4.440  16.852  0.00  0.00    +0.000 A 
ATOM     31  C   UNL     1       6.700   4.559  16.822  0.00  0.00    +0.000 A 
ATOM     32  C   UNL     1       7.390   4.744  15.626  0.00  0.00    +0.000 A 
ATOM     33  C   UNL     1       6.698   4.791  14.418  0.00  0.00    +0.000 A 
ATOM     34  C   UNL     1       5.305   4.635  14.422  0.00  0.00    +0.000 A 
ATOM     35  C   UNL     1       4.613   4.457  15.636  0.00  0.00    +0.000 A 
BRANCH  33  36
ATOM     36  C   UNL     1       7.519   4.940  13.186  0.00  0.00    +0.000 C 
ATOM     37  O   UNL     1       7.308   4.290  12.176  0.00  0.00    +0.000 OA
BRANCH  36  38
ATOM     38  O   UNL     1       8.532   5.823  13.287  0.00  0.00    +0.000 OA
ATOM     39  H   UNL     1       9.044   5.775  14.113  0.00  0.00    +0.000 HD
ENDBRANCH  36  38
ENDBRANCH  33  36
ENDBRANCH  28  30
ENDBRANCH  24  26
ENDBRANCH  22  24
ENDBRANCH   1  22
TORSDOF 10
ENDMDL
MODEL 4
REMARK VINA RESULT:      -7.7      1.731      2.270
REMARK  Name = 
REMARK  12 active torsions:
REMARK  status: ('A' for Active; 'I' for Inactive)
REMARK    1  A    between atoms: C_1  and  C_2
REMARK    2  A    between atoms: C_2  and  C_3
REMARK    3  A    between atoms: C_2  and  C_4
REMARK    4  A    between atoms: C_2  and  C_23
REMARK    5  A    between atoms: C_4  and  C_5
REMARK    6  A    between atoms: C_8  and  C_9
REMARK    7  A    between atoms: C_9  and  O_11
REMARK    8  A    between atoms: O_11  and  C_12
REMARK    9  A    between atoms: C_15  and  C_16
REMARK   10  A    between atoms: N_25  and  C_26
REMARK   11  A    between atoms: C_29  and  C_30
REMARK   12  A    between atoms: C_30  and  O_32
REMARK                            x       y       z     vdW  Elec       q    Type
REMARK                         _______ _______ _______ _____ _____    ______ ____
ROOT
ATOM      1  C   UNL     1       1.817   7.251  20.622  0.00  0.00    +0.000 A 
ATOM      2  C   UNL     1       0.868   7.870  21.411  0.00  0.00    +0.000 A 
ATOM      3  C   UNL     1       0.335   9.034  20.801  0.00  0.00    +0.000 A 
ATOM      4  C   UNL     1       0.857   9.256  19.537  0.00  0.00    +0.000 A 
ATOM      5  S   UNL     1       1.993   8.054  19.116  0.00  0.00    +0.000 S 
ENDROOT
BRANCH   4   6
ATOM      6  C   UNL     1       0.499  10.294  18.575  0.00  0.00    +0.000 C 
ATOM      7  O   UNL     1       0.949  11.430  18.501  0.00  0.00    +0.000 OA
BRANCH   6   8
ATOM      8  O   UNL     1      -0.441   9.766  17.690  0.00  0.00    +0.000 OA
BRANCH   8   9
ATOM      9  C   UNL     1      -1.689  10.406  17.686  0.00  0.00    +0.000 A 
ATOM     10  C   UNL     1      -2.035  11.137  18.824  0.00  0.00    +0.000 A 
ATOM     11  C   UNL     1      -3.304  11.719  18.907  0.00  0.00    +0.000 A 
ATOM     12  C   UNL     1      -4.222  11.560  17.857  0.00  0.00    +0.000 A 
ATOM     13  C   UNL     1      -3.879  10.796  16.739  0.00  0.00    +0.000 A 
ATOM     14  C   UNL     1      -2.623  10.214  16.667  0.00  0.00    +0.000 A 
ATOM     15  F   UNL     1      -2.344   9.422  15.622  0.00  0.00    +0.000 F 
BRANCH  12  16
ATOM     16  C   UNL     1      -5.565  12.199  17.899  0.00  0.00    +0.000 C 
ATOM     17  N   UNL     1      -5.744  13.455  18.161  0.00  0.00    +0.000 NA
ATOM     18  N   UNL     1      -6.683  11.460  17.649  0.00  0.00    +0.000 N 
ATOM     19  H   UNL     1      -4.867  13.929  18.382  0.00  0.00    +0.000 HD
ATOM     20  H   UNL     1      -6.599  10.732  16.950  0.00  0.00    +0.000 HD
ATOM     21  H   UNL     1      -7.489  12.059  17.495  0.00  0.00    +0.000 HD
ENDBRANCH  12  16
ENDBRANCH   8   9
ENDBRANCH   6   8
ENDBRANCH   4   6
BRANCH   1  22
ATOM     22  C   UNL     1       2.609   6.010  20.927  0.00  0.00    +0.000 C 
BRANCH  22  24
ATOM     23  C   UNL     1       2.340   3.488  21.170  0.00  0.00    +0.000 C 
ATOM     24  C   UNL     1       2.072   4.719  20.269  0.00  0.00    +0.000 C 
ATOM     25  C   UNL     1       0.545   4.845  20.097  0.00  0.00    +0.000 C 
BRANCH  24  26
ATOM     26  C   UNL     1       2.725   4.427  18.911  0.00  0.00    +0.000 C 
ATOM     27  O   UNL     1       2.143   3.707  18.100  0.00  0.00    +0.000 OA
ATOM     28  N   UNL     1       3.977   4.988  18.664  0.00  0.00    +0.000 N 
ATOM     29  H   UNL     1       4.520   5.304  19.455  0.00  0.00    +0.000 HD
BRANCH  28  30
ATOM     30  C   UNL     1       4.637   4.904  17.410  0.00  0.00    +0.000 A 
ATOM     31  C   UNL     1       5.149   3.699  16.922  0.00  0.00    +0.000 A 
ATOM     32  C   UNL     1       5.823   3.633  15.704  0.00  0.00    +0.000 A 
ATOM     33  C   UNL     1       5.982   4.780  14.929  0.00  0.00    +0.000 A 
ATOM     34  C   UNL     1       5.441   5.992  15.382  0.00  0.00    +0.000 A 
ATOM     35  C   UNL     1       4.769   6.052  16.618  0.00  0.00    +0.000 A 
BRANCH  33  36
ATOM     36  C   UNL     1       6.669   4.608  13.621  0.00  0.00    +0.000 C 
ATOM     37  O   UNL     1       6.342   3.750  12.817  0.00  0.00    +0.000 OA
BRANCH  36  38
ATOM     38  O   UNL     1       7.698   5.450  13.409  0.00  0.00    +0.000 OA
ATOM     39  H   UNL     1       8.522   5.032  13.103  0.00  0.00    +0.000 HD
ENDBRANCH  36  38
ENDBRANCH  33  36
ENDBRANCH  28  30
ENDBRANCH  24  26
ENDBRANCH  22  24
ENDBRANCH   1  22
TORSDOF 10
ENDMDL
MODEL 5
REMARK VINA RESULT:      -7.6      2.644      3.072
REMARK  Name = 
REMARK  12 active torsions:
REMARK  status: ('A' for Active; 'I' for Inactive)
REMARK    1  A    between atoms: C_1  and  C_2
REMARK    2  A    between atoms: C_2  and  C_3
REMARK    3  A    between atoms: C_2  and  C_4
REMARK    4  A    between atoms: C_2  and  C_23
REMARK    5  A    between atoms: C_4  and  C_5
REMARK    6  A    between atoms: C_8  and  C_9
REMARK    7  A    between atoms: C_9  and  O_11
REMARK    8  A    between atoms: O_11  and  C_12
REMARK    9  A    between atoms: C_15  and  C_16
REMARK   10  A    between atoms: N_25  and  C_26
REMARK   11  A    between atoms: C_29  and  C_30
REMARK   12  A    between atoms: C_30  and  O_32
REMARK                            x       y       z     vdW  Elec       q    Type
REMARK                         _______ _______ _______ _____ _____    ______ ____
ROOT
ATOM      1  C   UNL     1       2.360   6.543  19.932  0.00  0.00    +0.000 A 
ATOM      2  C   UNL     1       2.611   6.995  18.652  0.00  0.00    +0.000 A 
ATOM      3  C   UNL     1       2.016   8.258  18.399  0.00  0.00    +0.000 A 
ATOM      4  C   UNL     1       1.360   8.765  19.508  0.00  0.00    +0.000 A 
ATOM      5  S   UNL     1       1.466   7.696  20.835  0.00  0.00    +0.000 S 
ENDROOT
BRANCH   4   6
ATOM      6  C   UNL     1       0.703  10.059  19.664  0.00  0.00    +0.000 C 
ATOM      7  O   UNL     1      -0.074  10.600  18.888  0.00  0.00    +0.000 OA
BRANCH   6   8
ATOM      8  O   UNL     1       1.076  10.595  20.896  0.00  0.00    +0.000 OA
BRANCH   8   9
ATOM      9  C   UNL     1       0.069  11.295  21.578  0.00  0.00    +0.000 A 
ATOM     10  C   UNL     1       0.083  12.687  21.482  0.00  0.00    +0.000 A 
ATOM     11  C   UNL     1      -0.845  13.436  22.214  0.00  0.00    +0.000 A 
ATOM     12  C   UNL     1      -1.774  12.789  23.044  0.00  0.00    +0.000 A 
ATOM     13  C   UNL     1      -1.756  11.397  23.161  0.00  0.00    +0.000 A 
ATOM     14  C   UNL     1      -0.828  10.662  22.439  0.00  0.00    +0.000 A 
ATOM     15  F   UNL     1      -0.778   9.335  22.627  0.00  0.00    +0.000 F 
BRANCH  12  16
ATOM     16  C   UNL     1      -2.798  13.555  23.804  0.00  0.00    +0.000 C 
ATOM     17  N   UNL     1      -3.751  12.991  24.475  0.00  0.00    +0.000 NA
ATOM     18  N   UNL     1      -2.760  14.917  23.821  0.00  0.00    +0.000 N 
ATOM     19  H   UNL     1      -3.741  11.975  24.375  0.00  0.00    +0.000 HD
ATOM     20  H   UNL     1      -1.842  15.346  23.827  0.00  0.00    +0.000 HD
ATOM     21  H   UNL     1      -3.370  15.290  24.544  0.00  0.00    +0.000 HD
ENDBRANCH  12  16
ENDBRANCH   8   9
ENDBRANCH   6   8
ENDBRANCH   4   6
BRANCH   1  22
ATOM     22  C   UNL     1       2.807   5.253  20.563  0.00  0.00    +0.000 C 
BRANCH  22  24
ATOM     23  C   UNL     1       2.931   2.710  20.501  0.00  0.00    +0.000 C 
ATOM     24  C   UNL     1       2.492   3.985  19.739  0.00  0.00    +0.000 C 
ATOM     25  C   UNL     1       0.968   3.896  19.524  0.00  0.00    +0.000 C 
BRANCH  24  26
ATOM     26  C   UNL     1       3.210   3.961  18.383  0.00  0.00    +0.000 C 
ATOM     27  O   UNL     1       2.601   3.586  17.380  0.00  0.00    +0.000 OA
ATOM     28  N   UNL     1       4.546   4.356  18.354  0.00  0.00    +0.000 N 
ATOM     29  H   UNL     1       5.059   4.358  19.224  0.00  0.00    +0.000 HD
BRANCH  28  30
ATOM     30  C   UNL     1       5.292   4.501  17.155  0.00  0.00    +0.000 A 
ATOM     31  C   UNL     1       4.698   4.390  15.895  0.00  0.00    +0.000 A 
ATOM     32  C   UNL     1       5.445   4.503  14.724  0.00  0.00    +0.000 A 
ATOM     33  C   UNL     1       6.814   4.756  14.788  0.00  0.00    +0.000 A 
ATOM     34  C   UNL     1       7.423   4.910  16.042  0.00  0.00    +0.000 A 
ATOM     35  C   UNL     1       6.662   4.786  17.221  0.00  0.00    +0.000 A 
BRANCH  33  36
ATOM     36  C   UNL     1       7.523   4.912  13.490  0.00  0.00    +0.000 C 
ATOM     37  O   UNL     1       8.465   5.674  13.345  0.00  0.00    +0.000 OA
BRANCH  36  38
ATOM     38  O   UNL     1       7.022   4.172  12.482  0.00  0.00    +0.000 OA
ATOM     39  H   UNL     1       6.053   4.189  12.396  0.00  0.00    +0.000 HD
ENDBRANCH  36  38
ENDBRANCH  33  36
ENDBRANCH  28  30
ENDBRANCH  24  26
ENDBRANCH  22  24
ENDBRANCH   1  22
TORSDOF 10
ENDMDL
MODEL 6
REMARK VINA RESULT:      -7.6      2.371      3.007
REMARK  Name = 
REMARK  12 active torsions:
REMARK  status: ('A' for Active; 'I' for Inactive)
REMARK    1  A    between atoms: C_1  and  C_2
REMARK    2  A    between atoms: C_2  and  C_3
REMARK    3  A    between atoms: C_2  and  C_4
REMARK    4  A    between atoms: C_2  and  C_23
REMARK    5  A    between atoms: C_4  and  C_5
REMARK    6  A    between atoms: C_8  and  C_9
REMARK    7  A    between atoms: C_9  and  O_11
REMARK    8  A    between atoms: O_11  and  C_12
REMARK    9  A    between atoms: C_15  and  C_16
REMARK   10  A    between atoms: N_25  and  C_26
REMARK   11  A    between atoms: C_29  and  C_30
REMARK   12  A    between atoms: C_30  and  O_32
REMARK                            x       y       z     vdW  Elec       q    Type
REMARK                         _______ _______ _______ _____ _____    ______ ____
ROOT
ATOM      1  C   UNL     1       2.199   6.993  19.939  0.00  0.00    +0.000 A 
ATOM      2  C   UNL     1       2.512   7.370  18.649  0.00  0.00    +0.000 A 
ATOM      3  C   UNL     1       1.943   8.622  18.299  0.00  0.00    +0.000 A 
ATOM      4  C   UNL     1       1.244   9.196  19.347  0.00  0.00    +0.000 A 
ATOM      5  S   UNL     1       1.279   8.202  20.735  0.00  0.00    +0.000 S 
ENDROOT
BRANCH   4   6
ATOM      6  C   UNL     1       0.594  10.503  19.400  0.00  0.00    +0.000 C 
ATOM      7  O   UNL     1       1.066  11.584  19.072  0.00  0.00    +0.000 OA
BRANCH   6   8
ATOM      8  O   UNL     1      -0.709  10.326  19.862  0.00  0.00    +0.000 OA
BRANCH   8   9
ATOM      9  C   UNL     1      -1.166  11.301  20.762  0.00  0.00    +0.000 A 
ATOM     10  C   UNL     1      -0.813  11.147  22.103  0.00  0.00    +0.000 A 
ATOM     11  C   UNL     1      -1.317  12.043  23.053  0.00  0.00    +0.000 A 
ATOM     12  C   UNL     1      -2.177  13.079  22.657  0.00  0.00    +0.000 A 
ATOM     13  C   UNL     1      -2.554  13.202  21.317  0.00  0.00    +0.000 A 
ATOM     14  C   UNL     1      -2.057  12.306  20.382  0.00  0.00    +0.000 A 
ATOM     15  F   UNL     1      -2.493  12.396  19.118  0.00  0.00    +0.000 F 
BRANCH  12  16
ATOM     16  C   UNL     1      -2.698  14.070  23.637  0.00  0.00    +0.000 C 
ATOM     17  N   UNL     1      -3.668  13.814  24.457  0.00  0.00    +0.000 NA
ATOM     18  N   UNL     1      -2.149  15.315  23.708  0.00  0.00    +0.000 N 
ATOM     19  H   UNL     1      -4.057  12.881  24.311  0.00  0.00    +0.000 HD
ATOM     20  H   UNL     1      -1.150  15.380  23.553  0.00  0.00    +0.000 HD
ATOM     21  H   UNL     1      -2.446  15.797  24.552  0.00  0.00    +0.000 HD
ENDBRANCH  12  16
ENDBRANCH   8   9
ENDBRANCH   6   8
ENDBRANCH   4   6
BRANCH   1  22
ATOM     22  C   UNL     1       2.604   5.737  20.661  0.00  0.00    +0.000 C 
BRANCH  22  24
ATOM     23  C   UNL     1       2.729   3.194  20.736  0.00  0.00    +0.000 C 
ATOM     24  C   UNL     1       2.239   4.424  19.933  0.00  0.00    +0.000 C 
ATOM     25  C   UNL     1       0.704   4.325  19.823  0.00  0.00    +0.000 C 
BRANCH  24  26
ATOM     26  C   UNL     1       2.867   4.323  18.536  0.00  0.00    +0.000 C 
ATOM     27  O   UNL     1       2.164   4.007  17.576  0.00  0.00    +0.000 OA
ATOM     28  N   UNL     1       4.231   4.582  18.423  0.00  0.00    +0.000 N 
ATOM     29  H   UNL     1       4.794   4.536  19.260  0.00  0.00    +0.000 HD
BRANCH  28  30
ATOM     30  C   UNL     1       4.914   4.646  17.180  0.00  0.00    +0.000 A 
ATOM     31  C   UNL     1       5.556   3.534  16.629  0.00  0.00    +0.000 A 
ATOM     32  C   UNL     1       6.250   3.616  15.424  0.00  0.00    +0.000 A 
ATOM     33  C   UNL     1       6.298   4.820  14.723  0.00  0.00    +0.000 A 
ATOM     34  C   UNL     1       5.627   5.938  15.239  0.00  0.00    +0.000 A 
ATOM     35  C   UNL     1       4.935   5.849  16.462  0.00  0.00    +0.000 A 
BRANCH  33  36
ATOM     36  C   UNL     1       7.017   4.803  13.421  0.00  0.00    +0.000 C 
ATOM     37  O   UNL     1       6.688   4.074  12.500  0.00  0.00    +0.000 OA
BRANCH  36  38
ATOM     38  O   UNL     1       8.077   5.631  13.352  0.00  0.00    +0.000 OA
ATOM     39  H   UNL     1       8.533   5.794  14.197  0.00  0.00    +0.000 HD
ENDBRANCH  36  38
ENDBRANCH  33  36
ENDBRANCH  28  30
ENDBRANCH  24  26
ENDBRANCH  22  24
ENDBRANCH   1  22
TORSDOF 10
ENDMDL
MODEL 7
REMARK VINA RESULT:      -7.5      2.305      2.858
REMARK  Name = 
REMARK  12 active torsions:
REMARK  status: ('A' for Active; 'I' for Inactive)
REMARK    1  A    between atoms: C_1  and  C_2
REMARK    2  A    between atoms: C_2  and  C_3
REMARK    3  A    between atoms: C_2  and  C_4
REMARK    4  A    between atoms: C_2  and  C_23
REMARK    5  A    between atoms: C_4  and  C_5
REMARK    6  A    between atoms: C_8  and  C_9
REMARK    7  A    between atoms: C_9  and  O_11
REMARK    8  A    between atoms: O_11  and  C_12
REMARK    9  A    between atoms: C_15  and  C_16
REMARK   10  A    between atoms: N_25  and  C_26
REMARK   11  A    between atoms: C_29  and  C_30
REMARK   12  A    between atoms: C_30  and  O_32
REMARK                            x       y       z     vdW  Elec       q    Type
REMARK                         _______ _______ _______ _____ _____    ______ ____
ROOT
ATOM      1  C   UNL     1       2.370   6.610  19.906  0.00  0.00    +0.000 A 
ATOM      2  C   UNL     1       2.711   7.104  18.663  0.00  0.00    +0.000 A 
ATOM      3  C   UNL     1       2.097   8.354  18.392  0.00  0.00    +0.000 A 
ATOM      4  C   UNL     1       1.334   8.809  19.454  0.00  0.00    +0.000 A 
ATOM      5  S   UNL     1       1.365   7.708  20.758  0.00  0.00    +0.000 S 
ENDROOT
BRANCH   4   6
ATOM      6  C   UNL     1       0.623  10.078  19.585  0.00  0.00    +0.000 C 
ATOM      7  O   UNL     1      -0.257  10.519  18.857  0.00  0.00    +0.000 OA
BRANCH   6   8
ATOM      8  O   UNL     1       1.085  10.723  20.732  0.00  0.00    +0.000 OA
BRANCH   8   9
ATOM      9  C   UNL     1       0.113  11.427  21.459  0.00  0.00    +0.000 A 
ATOM     10  C   UNL     1      -0.599  10.717  22.426  0.00  0.00    +0.000 A 
ATOM     11  C   UNL     1      -1.638  11.350  23.116  0.00  0.00    +0.000 A 
ATOM     12  C   UNL     1      -1.966  12.683  22.828  0.00  0.00    +0.000 A 
ATOM     13  C   UNL     1      -1.271  13.374  21.832  0.00  0.00    +0.000 A 
ATOM     14  C   UNL     1      -0.247  12.739  21.146  0.00  0.00    +0.000 A 
ATOM     15  F   UNL     1       0.353  13.394  20.142  0.00  0.00    +0.000 F 
BRANCH  12  16
ATOM     16  C   UNL     1      -3.040  13.395  23.572  0.00  0.00    +0.000 C 
ATOM     17  N   UNL     1      -2.806  14.187  24.569  0.00  0.00    +0.000 NA
ATOM     18  N   UNL     1      -4.344  13.234  23.210  0.00  0.00    +0.000 N 
ATOM     19  H   UNL     1      -1.814  14.219  24.809  0.00  0.00    +0.000 HD
ATOM     20  H   UNL     1      -4.532  13.133  22.220  0.00  0.00    +0.000 HD
ATOM     21  H   UNL     1      -4.934  13.936  23.650  0.00  0.00    +0.000 HD
ENDBRANCH  12  16
ENDBRANCH   8   9
ENDBRANCH   6   8
ENDBRANCH   4   6
BRANCH   1  22
ATOM     22  C   UNL     1       2.806   5.318  20.540  0.00  0.00    +0.000 C 
BRANCH  22  24
ATOM     23  C   UNL     1       3.112   2.794  20.386  0.00  0.00    +0.000 C 
ATOM     24  C   UNL     1       2.556   4.057  19.683  0.00  0.00    +0.000 C 
ATOM     25  C   UNL     1       1.035   3.863  19.514  0.00  0.00    +0.000 C 
BRANCH  24  26
ATOM     26  C   UNL     1       3.226   4.131  18.305  0.00  0.00    +0.000 C 
ATOM     27  O   UNL     1       2.535   4.056  17.288  0.00  0.00    +0.000 OA
ATOM     28  N   UNL     1       4.613   4.264  18.269  0.00  0.00    +0.000 N 
ATOM     29  H   UNL     1       5.135   4.018  19.099  0.00  0.00    +0.000 HD
BRANCH  28  30
ATOM     30  C   UNL     1       5.348   4.468  17.072  0.00  0.00    +0.000 A 
ATOM     31  C   UNL     1       5.307   3.557  16.013  0.00  0.00    +0.000 A 
ATOM     32  C   UNL     1       6.057   3.752  14.855  0.00  0.00    +0.000 A 
ATOM     33  C   UNL     1       6.855   4.886  14.719  0.00  0.00    +0.000 A 
ATOM     34  C   UNL     1       6.880   5.832  15.754  0.00  0.00    +0.000 A 
ATOM     35  C   UNL     1       6.126   5.624  16.924  0.00  0.00    +0.000 A 
BRANCH  33  36
ATOM     36  C   UNL     1       7.581   5.037  13.429  0.00  0.00    +0.000 C 
ATOM     37  O   UNL     1       8.512   5.813  13.289  0.00  0.00    +0.000 OA
BRANCH  36  38
ATOM     38  O   UNL     1       7.108   4.276  12.424  0.00  0.00    +0.000 OA
ATOM     39  H   UNL     1       7.022   3.328  12.626  0.00  0.00    +0.000 HD
ENDBRANCH  36  38
ENDBRANCH  33  36
ENDBRANCH  28  30
ENDBRANCH  24  26
ENDBRANCH  22  24
ENDBRANCH   1  22
TORSDOF 10
ENDMDL
MODEL 8
REMARK VINA RESULT:      -7.5      4.009     11.603
REMARK  Name = 
REMARK  12 active torsions:
REMARK  status: ('A' for Active; 'I' for Inactive)
REMARK    1  A    between atoms: C_1  and  C_2
REMARK    2  A    between atoms: C_2  and  C_3
REMARK    3  A    between atoms: C_2  and  C_4
REMARK    4  A    between atoms: C_2  and  C_23
REMARK    5  A    between atoms: C_4  and  C_5
REMARK    6  A    between atoms: C_8  and  C_9
REMARK    7  A    between atoms: C_9  and  O_11
REMARK    8  A    between atoms: O_11  and  C_12
REMARK    9  A    between atoms: C_15  and  C_16
REMARK   10  A    between atoms: N_25  and  C_26
REMARK   11  A    between atoms: C_29  and  C_30
REMARK   12  A    between atoms: C_30  and  O_32
REMARK                            x       y       z     vdW  Elec       q    Type
REMARK                         _______ _______ _______ _____ _____    ______ ____
ROOT
ATOM      1  C   UNL     1       0.639   9.890  20.444  0.00  0.00    +0.000 A 
ATOM      2  C   UNL     1       0.178   9.081  21.463  0.00  0.00    +0.000 A 
ATOM      3  C   UNL     1       0.654   7.750  21.353  0.00  0.00    +0.000 A 
ATOM      4  C   UNL     1       1.506   7.580  20.275  0.00  0.00    +0.000 A 
ATOM      5  S   UNL     1       1.706   9.036  19.407  0.00  0.00    +0.000 S 
ENDROOT
BRANCH   4   6
ATOM      6  C   UNL     1       2.253   6.388  19.884  0.00  0.00    +0.000 C 
ATOM      7  O   UNL     1       2.906   5.647  20.606  0.00  0.00    +0.000 OA
BRANCH   6   8
ATOM      8  O   UNL     1       2.073   6.187  18.516  0.00  0.00    +0.000 OA
BRANCH   8   9
ATOM      9  C   UNL     1       3.188   5.684  17.830  0.00  0.00    +0.000 A 
ATOM     10  C   UNL     1       4.178   6.597  17.465  0.00  0.00    +0.000 A 
ATOM     11  C   UNL     1       5.267   6.161  16.702  0.00  0.00    +0.000 A 
ATOM     12  C   UNL     1       5.354   4.819  16.301  0.00  0.00    +0.000 A 
ATOM     13  C   UNL     1       4.339   3.920  16.641  0.00  0.00    +0.000 A 
ATOM     14  C   UNL     1       3.259   4.361  17.390  0.00  0.00    +0.000 A 
ATOM     15  F   UNL     1       2.260   3.502  17.637  0.00  0.00    +0.000 F 
BRANCH  12  16
ATOM     16  C   UNL     1       6.519   4.317  15.523  0.00  0.00    +0.000 C 
ATOM     17  N   UNL     1       7.748   4.545  15.861  0.00  0.00    +0.000 NA
ATOM     18  N   UNL     1       6.321   3.573  14.398  0.00  0.00    +0.000 N 
ATOM     19  H   UNL     1       7.814   5.146  16.684  0.00  0.00    +0.000 HD
ATOM     20  H   UNL     1       5.532   2.939  14.406  0.00  0.00    +0.000 HD
ATOM     21  H   UNL     1       7.182   3.122  14.103  0.00  0.00    +0.000 HD
ENDBRANCH  12  16
ENDBRANCH   8   9
ENDBRANCH   6   8
ENDBRANCH   4   6
BRANCH   1  22
ATOM     22  C   UNL     1       0.345  11.347  20.213  0.00  0.00    +0.000 C 
BRANCH  22  24
ATOM     23  C   UNL     1      -0.324  12.843  18.263  0.00  0.00    +0.000 C 
ATOM     24  C   UNL     1      -0.728  11.630  19.138  0.00  0.00    +0.000 C 
ATOM     25  C   UNL     1      -0.839  10.404  18.209  0.00  0.00    +0.000 C 
BRANCH  24  26
ATOM     26  C   UNL     1      -2.102  11.953  19.738  0.00  0.00    +0.000 C 
ATOM     27  O   UNL     1      -3.115  11.807  19.052  0.00  0.00    +0.000 OA
ATOM     28  N   UNL     1      -2.139  12.420  21.051  0.00  0.00    +0.000 N 
ATOM     29  H   UNL     1      -1.288  12.797  21.444  0.00  0.00    +0.000 HD
BRANCH  28  30
ATOM     30  C   UNL     1      -3.343  12.637  21.770  0.00  0.00    +0.000 A 
ATOM     31  C   UNL     1      -3.417  12.482  23.157  0.00  0.00    +0.000 A 
ATOM     32  C   UNL     1      -4.611  12.667  23.849  0.00  0.00    +0.000 A 
ATOM     33  C   UNL     1      -5.767  13.038  23.165  0.00  0.00    +0.000 A 
ATOM     34  C   UNL     1      -5.706  13.237  21.778  0.00  0.00    +0.000 A 
ATOM     35  C   UNL     1      -4.497  13.040  21.085  0.00  0.00    +0.000 A 
BRANCH  33  36
ATOM     36  C   UNL     1      -6.984  13.263  23.990  0.00  0.00    +0.000 C 
ATOM     37  O   UNL     1      -7.829  12.400  24.160  0.00  0.00    +0.000 OA
BRANCH  36  38
ATOM     38  O   UNL     1      -7.095  14.503  24.505  0.00  0.00    +0.000 OA
ATOM     39  H   UNL     1      -6.320  14.816  25.004  0.00  0.00    +0.000 HD
ENDBRANCH  36  38
ENDBRANCH  33  36
ENDBRANCH  28  30
ENDBRANCH  24  26
ENDBRANCH  22  24
ENDBRANCH   1  22
TORSDOF 10
ENDMDL
MODEL 9
REMARK VINA RESULT:      -7.5      3.261      3.861
REMARK  Name = 
REMARK  12 active torsions:
REMARK  status: ('A' for Active; 'I' for Inactive)
REMARK    1  A    between atoms: C_1  and  C_2
REMARK    2  A    between atoms: C_2  and  C_3
REMARK    3  A    between atoms: C_2  and  C_4
REMARK    4  A    between atoms: C_2  and  C_23
REMARK    5  A    between atoms: C_4  and  C_5
REMARK    6  A    between atoms: C_8  and  C_9
REMARK    7  A    between atoms: C_9  and  O_11
REMARK    8  A    between atoms: O_11  and  C_12
REMARK    9  A    between atoms: C_15  and  C_16
REMARK   10  A    between atoms: N_25  and  C_26
REMARK   11  A    between atoms: C_29  and  C_30
REMARK   12  A    between atoms: C_30  and  O_32
REMARK                            x       y       z     vdW  Elec       q    Type
REMARK                         _______ _______ _______ _____ _____    ______ ____
ROOT
ATOM      1  C   UNL     1       1.893   7.575  20.169  0.00  0.00    +0.000 A 
ATOM      2  C   UNL     1       2.095   7.969  18.862  0.00  0.00    +0.000 A 
ATOM      3  C   UNL     1       1.380   9.150  18.537  0.00  0.00    +0.000 A 
ATOM      4  C   UNL     1       0.681   9.659  19.619  0.00  0.00    +0.000 A 
ATOM      5  S   UNL     1       0.895   8.689  21.008  0.00  0.00    +0.000 S 
ENDROOT
BRANCH   4   6
ATOM      6  C   UNL     1      -0.099  10.891  19.701  0.00  0.00    +0.000 C 
ATOM      7  O   UNL     1      -0.753  11.298  20.652  0.00  0.00    +0.000 OA
BRANCH   6   8
ATOM      8  O   UNL     1       0.049  11.584  18.500  0.00  0.00    +0.000 OA
BRANCH   8   9
ATOM      9  C   UNL     1       0.676  12.834  18.600  0.00  0.00    +0.000 A 
ATOM     10  C   UNL     1      -0.141  13.942  18.828  0.00  0.00    +0.000 A 
ATOM     11  C   UNL     1       0.426  15.221  18.847  0.00  0.00    +0.000 A 
ATOM     12  C   UNL     1       1.802  15.386  18.628  0.00  0.00    +0.000 A 
ATOM     13  C   UNL     1       2.605  14.273  18.364  0.00  0.00    +0.000 A 
ATOM     14  C   UNL     1       2.036  13.009  18.338  0.00  0.00    +0.000 A 
ATOM     15  F   UNL     1       2.811  11.967  18.005  0.00  0.00    +0.000 F 
BRANCH  12  16
ATOM     16  C   UNL     1       2.440  16.729  18.681  0.00  0.00    +0.000 C 
ATOM     17  N   UNL     1       3.012  17.282  17.660  0.00  0.00    +0.000 NA
ATOM     18  N   UNL     1       2.436  17.443  19.842  0.00  0.00    +0.000 N 
ATOM     19  H   UNL     1       3.016  16.669  16.843  0.00  0.00    +0.000 HD
ATOM     20  H   UNL     1       1.610  17.360  20.423  0.00  0.00    +0.000 HD
ATOM     21  H   UNL     1       2.702  18.410  19.677  0.00  0.00    +0.000 HD
ENDBRANCH  12  16
ENDBRANCH   8   9
ENDBRANCH   6   8
ENDBRANCH   4   6
BRANCH   1  22
ATOM     22  C   UNL     1       2.466   6.376  20.873  0.00  0.00    +0.000 C 
BRANCH  22  24
ATOM     23  C   UNL     1       2.471   3.852  21.217  0.00  0.00    +0.000 C 
ATOM     24  C   UNL     1       2.035   5.013  20.288  0.00  0.00    +0.000 C 
ATOM     25  C   UNL     1       0.496   4.976  20.191  0.00  0.00    +0.000 C 
BRANCH  24  26
ATOM     26  C   UNL     1       2.650   4.734  18.910  0.00  0.00    +0.000 C 
ATOM     27  O   UNL     1       1.928   4.351  17.989  0.00  0.00    +0.000 OA
ATOM     28  N   UNL     1       4.024   4.916  18.769  0.00  0.00    +0.000 N 
ATOM     29  H   UNL     1       4.589   4.934  19.606  0.00  0.00    +0.000 HD
BRANCH  28  30
ATOM     30  C   UNL     1       4.702   4.817  17.525  0.00  0.00    +0.000 A 
ATOM     31  C   UNL     1       4.979   5.940  16.741  0.00  0.00    +0.000 A 
ATOM     32  C   UNL     1       5.616   5.828  15.507  0.00  0.00    +0.000 A 
ATOM     33  C   UNL     1       6.016   4.580  15.036  0.00  0.00    +0.000 A 
ATOM     34  C   UNL     1       5.783   3.444  15.825  0.00  0.00    +0.000 A 
ATOM     35  C   UNL     1       5.130   3.565  17.067  0.00  0.00    +0.000 A 
BRANCH  33  36
ATOM     36  C   UNL     1       6.735   4.559  13.733  0.00  0.00    +0.000 C 
ATOM     37  O   UNL     1       7.500   5.447  13.393  0.00  0.00    +0.000 OA
BRANCH  36  38
ATOM     38  O   UNL     1       6.449   3.503  12.948  0.00  0.00    +0.000 OA
ATOM     39  H   UNL     1       6.947   3.459  12.113  0.00  0.00    +0.000 HD
ENDBRANCH  36  38
ENDBRANCH  33  36
ENDBRANCH  28  30
ENDBRANCH  24  26
ENDBRANCH  22  24
ENDBRANCH   1  22
TORSDOF 10
ENDMDL
