MODEL 1
REMARK VINA RESULT:      -8.1      0.000      0.000
REMARK  Name = 
REMARK  9 active torsions:
REMARK  status: ('A' for Active; 'I' for Inactive)
REMARK    1  A    between atoms: C_1  and  C_2
REMARK    2  A    between atoms: C_5  and  O_6
REMARK    3  A    between atoms: O_6  and  C_7
REMARK    4  A    between atoms: C_7  and  C_8
REMARK    5  A    between atoms: C_8  and  O_9
REMARK    6  A    between atoms: C_8  and  C_10
REMARK    7  A    between atoms: C_10  and  N_11
REMARK    8  A    between atoms: N_19  and  C_20
REMARK    9  A    between atoms: N_23  and  C_24
REMARK                            x       y       z     vdW  Elec       q    Type
REMARK                         _______ _______ _______ _____ _____    ______ ____
ROOT
ATOM      1  N   UNL     1       4.001   3.223  18.844  0.00  0.00    +0.000 N 
ATOM      2  C   UNL     1       3.358   2.607  17.780  0.00  0.00    +0.000 A 
ATOM      3  N   UNL     1       2.356   1.735  17.905  0.00  0.00    +0.000 N 
ATOM      4  N   UNL     1       3.863   2.984  16.631  0.00  0.00    +0.000 NA
ATOM      5  C   UNL     1       4.836   3.875  16.946  0.00  0.00    +0.000 A 
ATOM      6  C   UNL     1       4.923   4.084  18.292  0.00  0.00    +0.000 A 
ATOM      7  C   UNL     1       5.841   5.040  18.835  0.00  0.00    +0.000 A 
ATOM      8  O   UNL     1       5.815   5.395  20.008  0.00  0.00    +0.000 OA
ATOM      9  N   UNL     1       6.754   5.527  17.886  0.00  0.00    +0.000 N 
ATOM     10  C   UNL     1       7.819   6.413  18.321  0.00  0.00    +0.000 C 
ATOM     11  C   UNL     1       6.656   5.348  16.488  0.00  0.00    +0.000 A 
ATOM     12  O   UNL     1       7.425   5.914  15.716  0.00  0.00    +0.000 OA
ATOM     13  N   UNL     1       5.637   4.512  16.036  0.00  0.00    +0.000 N 
ATOM     14  C   UNL     1       5.431   4.296  14.616  0.00  0.00    +0.000 C 
ATOM     15  H   UNL     1       1.879   1.473  18.757  0.00  0.00    +0.000 HD
ATOM     16  H   UNL     1       1.928   1.395  17.046  0.00  0.00    +0.000 HD
ENDROOT
BRANCH   1  17
ATOM     17  C   UNL     1       3.691   3.009  20.242  0.00  0.00    +0.000 C 
BRANCH  17  18
ATOM     18  C   UNL     1       2.396   3.660  20.761  0.00  0.00    +0.000 C 
BRANCH  18  19
ATOM     19  O   UNL     1       1.415   2.612  20.890  0.00  0.00    +0.000 OA
ATOM     20  H   UNL     1       0.991   2.692  21.763  0.00  0.00    +0.000 HD
ENDBRANCH  18  19
BRANCH  18  21
ATOM     21  C   UNL     1       1.843   4.806  19.891  0.00  0.00    +0.000 C 
BRANCH  21  22
ATOM     22  O   UNL     1       2.657   5.963  20.137  0.00  0.00    +0.000 OA
BRANCH  22  27
ATOM     23  C   UNL     1       0.675  11.080  18.663  0.00  0.00    +0.000 C 
ATOM     24  C   UNL     1       1.191   9.721  19.038  0.00  0.00    +0.000 A 
ATOM     25  C   UNL     1       0.989   9.191  20.314  0.00  0.00    +0.000 A 
ATOM     26  C   UNL     1       1.494   7.927  20.640  0.00  0.00    +0.000 A 
ATOM     27  C   UNL     1       2.190   7.168  19.694  0.00  0.00    +0.000 A 
ATOM     28  C   UNL     1       2.407   7.698  18.425  0.00  0.00    +0.000 A 
ATOM     29  C   UNL     1       1.911   8.967  18.100  0.00  0.00    +0.000 A 
ENDBRANCH  22  27
ENDBRANCH  21  22
ENDBRANCH  18  21
ENDBRANCH  17  18
ENDBRANCH   1  17
TORSDOF 6
ENDMDL
MODEL 2
REMARK VINA RESULT:      -7.5      0.621      1.128
REMARK  Name = 
REMARK  9 active torsions:
REMARK  status: ('A' for Active; 'I' for Inactive)
REMARK    1  A    between atoms: C_1  and  C_2
REMARK    2  A    between atoms: C_5  and  O_6
REMARK    3  A    between atoms: O_6  and  C_7
REMARK    4  A    between atoms: C_7  and  C_8
REMARK    5  A    between atoms: C_8  and  O_9
REMARK    6  A    between atoms: C_8  and  C_10
REMARK    7  A    between atoms: C_10  and  N_11
REMARK    8  A    between atoms: N_19  and  C_20
REMARK    9  A    between atoms: N_23  and  C_24
REMARK                            x       y       z     vdW  Elec       q    Type
REMARK                         _______ _______ _______ _____ _____    ______ ____
ROOT
ATOM      1  N   UNL     1       3.901   3.377  18.591  0.00  0.00    +0.000 N 
ATOM      2  C   UNL     1       3.378   2.669  17.519  0.00  0.00    +0.000 A 
ATOM      3  N   UNL     1       2.368   1.802  17.606  0.00  0.00    +0.000 N 
ATOM      4  N   UNL     1       4.006   2.953  16.404  0.00  0.00    +0.000 NA
ATOM      5  C   UNL     1       4.940   3.876  16.748  0.00  0.00    +0.000 A 
ATOM      6  C   UNL     1       4.879   4.197  18.073  0.00  0.00    +0.000 A 
ATOM      7  C   UNL     1       5.733   5.203  18.630  0.00  0.00    +0.000 A 
ATOM      8  O   UNL     1       5.578   5.654  19.759  0.00  0.00    +0.000 OA
ATOM      9  N   UNL     1       6.745   5.616  17.749  0.00  0.00    +0.000 N 
ATOM     10  C   UNL     1       7.756   6.545  18.222  0.00  0.00    +0.000 C 
ATOM     11  C   UNL     1       6.799   5.320  16.369  0.00  0.00    +0.000 A 
ATOM     12  O   UNL     1       7.649   5.826  15.640  0.00  0.00    +0.000 OA
ATOM     13  N   UNL     1       5.836   4.440  15.880  0.00  0.00    +0.000 N 
ATOM     14  C   UNL     1       5.787   4.104  14.469  0.00  0.00    +0.000 C 
ATOM     15  H   UNL     1       1.800   1.608  18.420  0.00  0.00    +0.000 HD
ATOM     16  H   UNL     1       2.037   1.388  16.737  0.00  0.00    +0.000 HD
ENDROOT
BRANCH   1  17
ATOM     17  C   UNL     1       3.439   3.278  19.960  0.00  0.00    +0.000 C 
BRANCH  17  18
ATOM     18  C   UNL     1       2.127   4.011  20.292  0.00  0.00    +0.000 C 
BRANCH  18  19
ATOM     19  O   UNL     1       1.322   4.005  19.096  0.00  0.00    +0.000 OA
ATOM     20  H   UNL     1       1.837   3.594  18.379  0.00  0.00    +0.000 HD
ENDBRANCH  18  19
BRANCH  18  21
ATOM     21  C   UNL     1       2.295   5.452  20.815  0.00  0.00    +0.000 C 
BRANCH  21  22
ATOM     22  O   UNL     1       2.665   6.274  19.697  0.00  0.00    +0.000 OA
BRANCH  22  27
ATOM     23  C   UNL     1       0.210  11.336  18.899  0.00  0.00    +0.000 C 
ATOM     24  C   UNL     1       0.868  10.005  19.123  0.00  0.00    +0.000 A 
ATOM     25  C   UNL     1       1.523   9.332  18.090  0.00  0.00    +0.000 A 
ATOM     26  C   UNL     1       2.114   8.085  18.326  0.00  0.00    +0.000 A 
ATOM     27  C   UNL     1       2.077   7.503  19.596  0.00  0.00    +0.000 A 
ATOM     28  C   UNL     1       1.413   8.164  20.626  0.00  0.00    +0.000 A 
ATOM     29  C   UNL     1       0.811   9.407  20.390  0.00  0.00    +0.000 A 
ENDBRANCH  22  27
ENDBRANCH  21  22
ENDBRANCH  18  21
ENDBRANCH  17  18
ENDBRANCH   1  17
TORSDOF 6
ENDMDL
MODEL 3
REMARK VINA RESULT:      -7.4      2.322      6.965
REMARK  Name = 
REMARK  9 active torsions:
REMARK  status: ('A' for Active; 'I' for Inactive)
REMARK    1  A    between atoms: C_1  and  C_2
REMARK    2  A    between atoms: C_5  and  O_6
REMARK    3  A    between atoms: O_6  and  C_7
REMARK    4  A    between atoms: C_7  and  C_8
REMARK    5  A    between atoms: C_8  and  O_9
REMARK    6  A    between atoms: C_8  and  C_10
REMARK    7  A    between atoms: C_10  and  N_11
REMARK    8  A    between atoms: N_19  and  C_20
REMARK    9  A    between atoms: N_23  and  C_24
REMARK                            x       y       z     vdW  Elec       q    Type
REMARK                         _______ _______ _______ _____ _____    ______ ____
ROOT
ATOM      1  N   UNL     1       3.917   6.209  17.569  0.00  0.00    +0.000 N 
ATOM      2  C   UNL     1       3.057   7.141  18.131  0.00  0.00    +0.000 A 
ATOM      3  N   UNL     1       3.096   8.451  17.882  0.00  0.00    +0.000 N 
ATOM      4  N   UNL     1       2.201   6.576  18.946  0.00  0.00    +0.000 NA
ATOM      5  C   UNL     1       2.490   5.251  18.901  0.00  0.00    +0.000 A 
ATOM      6  C   UNL     1       3.508   4.978  18.033  0.00  0.00    +0.000 A 
ATOM      7  C   UNL     1       3.926   3.631  17.783  0.00  0.00    +0.000 A 
ATOM      8  O   UNL     1       4.695   3.332  16.877  0.00  0.00    +0.000 OA
ATOM      9  N   UNL     1       3.359   2.705  18.672  0.00  0.00    +0.000 N 
ATOM     10  C   UNL     1       3.785   1.318  18.613  0.00  0.00    +0.000 C 
ATOM     11  C   UNL     1       2.282   2.965  19.549  0.00  0.00    +0.000 A 
ATOM     12  O   UNL     1       1.758   2.066  20.202  0.00  0.00    +0.000 OA
ATOM     13  N   UNL     1       1.841   4.285  19.621  0.00  0.00    +0.000 N 
ATOM     14  C   UNL     1       0.716   4.645  20.465  0.00  0.00    +0.000 C 
ATOM     15  H   UNL     1       3.680   8.927  17.206  0.00  0.00    +0.000 HD
ATOM     16  H   UNL     1       2.375   9.027  18.312  0.00  0.00    +0.000 HD
ENDROOT
BRANCH   1  17
ATOM     17  C   UNL     1       4.984   6.513  16.640  0.00  0.00    +0.000 C 
BRANCH  17  18
ATOM     18  C   UNL     1       6.420   6.355  17.173  0.00  0.00    +0.000 C 
BRANCH  18  19
ATOM     19  O   UNL     1       7.045   7.652  17.102  0.00  0.00    +0.000 OA
ATOM     20  H   UNL     1       7.662   7.657  16.348  0.00  0.00    +0.000 HD
ENDBRANCH  18  19
BRANCH  18  21
ATOM     21  C   UNL     1       7.280   5.307  16.440  0.00  0.00    +0.000 C 
BRANCH  21  22
ATOM     22  O   UNL     1       7.443   5.757  15.085  0.00  0.00    +0.000 OA
BRANCH  22  27
ATOM     23  C   UNL     1       5.283   2.348  11.086  0.00  0.00    +0.000 C 
ATOM     24  C   UNL     1       5.869   3.239  12.143  0.00  0.00    +0.000 A 
ATOM     25  C   UNL     1       5.189   3.502  13.334  0.00  0.00    +0.000 A 
ATOM     26  C   UNL     1       5.754   4.349  14.295  0.00  0.00    +0.000 A 
ATOM     27  C   UNL     1       7.009   4.929  14.090  0.00  0.00    +0.000 A 
ATOM     28  C   UNL     1       7.684   4.683  12.897  0.00  0.00    +0.000 A 
ATOM     29  C   UNL     1       7.116   3.843  11.930  0.00  0.00    +0.000 A 
ENDBRANCH  22  27
ENDBRANCH  21  22
ENDBRANCH  18  21
ENDBRANCH  17  18
ENDBRANCH   1  17
TORSDOF 6
ENDMDL
MODEL 4
REMARK VINA RESULT:      -7.2      5.309      8.798
REMARK  Name = 
REMARK  9 active torsions:
REMARK  status: ('A' for Active; 'I' for Inactive)
REMARK    1  A    between atoms: C_1  and  C_2
REMARK    2  A    between atoms: C_5  and  O_6
REMARK    3  A    between atoms: O_6  and  C_7
REMARK    4  A    between atoms: C_7  and  C_8
REMARK    5  A    between atoms: C_8  and  O_9
REMARK    6  A    between atoms: C_8  and  C_10
REMARK    7  A    between atoms: C_10  and  N_11
REMARK    8  A    between atoms: N_19  and  C_20
REMARK    9  A    between atoms: N_23  and  C_24
REMARK                            x       y       z     vdW  Elec       q    Type
REMARK                         _______ _______ _______ _____ _____    ______ ____
ROOT
ATOM      1  N   UNL     1      -0.656  10.694  18.688  0.00  0.00    +0.000 N 
ATOM      2  C   UNL     1      -1.429  11.739  18.204  0.00  0.00    +0.000 A 
ATOM      3  N   UNL     1      -1.583  12.030  16.911  0.00  0.00    +0.000 N 
ATOM      4  N   UNL     1      -1.986  12.416  19.178  0.00  0.00    +0.000 NA
ATOM      5  C   UNL     1      -1.590  11.792  20.316  0.00  0.00    +0.000 A 
ATOM      6  C   UNL     1      -0.809  10.702  20.057  0.00  0.00    +0.000 A 
ATOM      7  C   UNL     1      -0.340   9.859  21.116  0.00  0.00    +0.000 A 
ATOM      8  O   UNL     1       0.194   8.775  20.915  0.00  0.00    +0.000 OA
ATOM      9  N   UNL     1      -0.565  10.401  22.391  0.00  0.00    +0.000 N 
ATOM     10  C   UNL     1      -0.036   9.712  23.555  0.00  0.00    +0.000 C 
ATOM     11  C   UNL     1      -1.399  11.506  22.676  0.00  0.00    +0.000 A 
ATOM     12  O   UNL     1      -1.646  11.838  23.833  0.00  0.00    +0.000 OA
ATOM     13  N   UNL     1      -1.934  12.183  21.582  0.00  0.00    +0.000 N 
ATOM     14  C   UNL     1      -2.832  13.307  21.773  0.00  0.00    +0.000 C 
ATOM     15  H   UNL     1      -1.244  11.496  16.122  0.00  0.00    +0.000 HD
ATOM     16  H   UNL     1      -2.222  12.788  16.679  0.00  0.00    +0.000 HD
ENDROOT
BRANCH   1  17
ATOM     17  C   UNL     1       0.100   9.769  17.871  0.00  0.00    +0.000 C 
BRANCH  17  18
ATOM     18  C   UNL     1       1.621   9.737  18.105  0.00  0.00    +0.000 C 
BRANCH  18  19
ATOM     19  O   UNL     1       2.181  10.872  17.414  0.00  0.00    +0.000 OA
ATOM     20  H   UNL     1       3.013  10.596  16.990  0.00  0.00    +0.000 HD
ENDBRANCH  18  19
BRANCH  18  21
ATOM     21  C   UNL     1       2.327   8.441  17.661  0.00  0.00    +0.000 C 
BRANCH  21  22
ATOM     22  O   UNL     1       2.713   7.733  18.850  0.00  0.00    +0.000 OA
BRANCH  22  27
ATOM     23  C   UNL     1       1.000   2.322  19.104  0.00  0.00    +0.000 C 
ATOM     24  C   UNL     1       1.438   3.757  19.046  0.00  0.00    +0.000 A 
ATOM     25  C   UNL     1       1.778   4.367  17.837  0.00  0.00    +0.000 A 
ATOM     26  C   UNL     1       2.197   5.703  17.816  0.00  0.00    +0.000 A 
ATOM     27  C   UNL     1       2.265   6.451  18.994  0.00  0.00    +0.000 A 
ATOM     28  C   UNL     1       1.942   5.843  20.204  0.00  0.00    +0.000 A 
ATOM     29  C   UNL     1       1.532   4.503  20.229  0.00  0.00    +0.000 A 
ENDBRANCH  22  27
ENDBRANCH  21  22
ENDBRANCH  18  21
ENDBRANCH  17  18
ENDBRANCH   1  17
TORSDOF 6
ENDMDL
MODEL 5
REMARK VINA RESULT:      -7.0      3.541      6.481
REMARK  Name = 
REMARK  9 active torsions:
REMARK  status: ('A' for Active; 'I' for Inactive)
REMARK    1  A    between atoms: C_1  and  C_2
REMARK    2  A    between atoms: C_5  and  O_6
REMARK    3  A    between atoms: O_6  and  C_7
REMARK    4  A    between atoms: C_7  and  C_8
REMARK    5  A    between atoms: C_8  and  O_9
REMARK    6  A    between atoms: C_8  and  C_10
REMARK    7  A    between atoms: C_10  and  N_11
REMARK    8  A    between atoms: N_19  and  C_20
REMARK    9  A    between atoms: N_23  and  C_24
REMARK                            x       y       z     vdW  Elec       q    Type
REMARK                         _______ _______ _______ _____ _____    ______ ____
ROOT
ATOM      1  N   UNL     1       5.599   5.672  17.208  0.00  0.00    +0.000 N 
ATOM      2  C   UNL     1       6.136   4.602  16.508  0.00  0.00    +0.000 A 
ATOM      3  N   UNL     1       7.152   4.695  15.649  0.00  0.00    +0.000 N 
ATOM      4  N   UNL     1       5.515   3.483  16.790  0.00  0.00    +0.000 NA
ATOM      5  C   UNL     1       4.571   3.822  17.704  0.00  0.00    +0.000 A 
ATOM      6  C   UNL     1       4.619   5.149  18.022  0.00  0.00    +0.000 A 
ATOM      7  C   UNL     1       3.753   5.702  19.019  0.00  0.00    +0.000 A 
ATOM      8  O   UNL     1       3.894   6.834  19.468  0.00  0.00    +0.000 OA
ATOM      9  N   UNL     1       2.745   4.814  19.427  0.00  0.00    +0.000 N 
ATOM     10  C   UNL     1       1.722   5.281  20.346  0.00  0.00    +0.000 C 
ATOM     11  C   UNL     1       2.704   3.432  19.135  0.00  0.00    +0.000 A 
ATOM     12  O   UNL     1       1.856   2.698  19.637  0.00  0.00    +0.000 OA
ATOM     13  N   UNL     1       3.678   2.949  18.265  0.00  0.00    +0.000 N 
ATOM     14  C   UNL     1       3.742   1.537  17.934  0.00  0.00    +0.000 C 
ATOM     15  H   UNL     1       7.716   5.513  15.456  0.00  0.00    +0.000 HD
ATOM     16  H   UNL     1       7.494   3.827  15.240  0.00  0.00    +0.000 HD
ENDROOT
BRANCH   1  17
ATOM     17  C   UNL     1       6.050   7.044  17.109  0.00  0.00    +0.000 C 
BRANCH  17  18
ATOM     18  C   UNL     1       7.507   7.316  17.524  0.00  0.00    +0.000 C 
BRANCH  18  19
ATOM     19  O   UNL     1       7.742   6.591  18.749  0.00  0.00    +0.000 OA
ATOM     20  H   UNL     1       6.887   6.452  19.193  0.00  0.00    +0.000 HD
ENDBRANCH  18  19
BRANCH  18  21
ATOM     21  C   UNL     1       7.872   8.802  17.704  0.00  0.00    +0.000 C 
BRANCH  21  22
ATOM     22  O   UNL     1       8.713   8.899  18.865  0.00  0.00    +0.000 OA
BRANCH  22  27
ATOM     23  C   UNL     1      10.978  14.055  19.621  0.00  0.00    +0.000 C 
ATOM     24  C   UNL     1      10.392  12.685  19.432  0.00  0.00    +0.000 A 
ATOM     25  C   UNL     1      10.163  12.160  18.159  0.00  0.00    +0.000 A 
ATOM     26  C   UNL     1       9.601  10.886  18.014  0.00  0.00    +0.000 A 
ATOM     27  C   UNL     1       9.279  10.113  19.133  0.00  0.00    +0.000 A 
ATOM     28  C   UNL     1       9.493  10.638  20.405  0.00  0.00    +0.000 A 
ATOM     29  C   UNL     1      10.045  11.917  20.553  0.00  0.00    +0.000 A 
ENDBRANCH  22  27
ENDBRANCH  21  22
ENDBRANCH  18  21
ENDBRANCH  17  18
ENDBRANCH   1  17
TORSDOF 6
ENDMDL
MODEL 6
REMARK VINA RESULT:      -7.0      5.938      9.373
REMARK  Name = 
REMARK  9 active torsions:
REMARK  status: ('A' for Active; 'I' for Inactive)
REMARK    1  A    between atoms: C_1  and  C_2
REMARK    2  A    between atoms: C_5  and  O_6
REMARK    3  A    between atoms: O_6  and  C_7
REMARK    4  A    between atoms: C_7  and  C_8
REMARK    5  A    between atoms: C_8  and  O_9
REMARK    6  A    between atoms: C_8  and  C_10
REMARK    7  A    between atoms: C_10  and  N_11
REMARK    8  A    between atoms: N_19  and  C_20
REMARK    9  A    between atoms: N_23  and  C_24
REMARK                            x       y       z     vdW  Elec       q    Type
REMARK                         _______ _______ _______ _____ _____    ______ ____
ROOT
ATOM      1  N   UNL     1      -0.701  11.245  19.142  0.00  0.00    +0.000 N 
ATOM      2  C   UNL     1      -1.697  11.079  18.190  0.00  0.00    +0.000 A 
ATOM      3  N   UNL     1      -1.538  10.432  17.035  0.00  0.00    +0.000 N 
ATOM      4  N   UNL     1      -2.818  11.645  18.564  0.00  0.00    +0.000 NA
ATOM      5  C   UNL     1      -2.559  12.171  19.788  0.00  0.00    +0.000 A 
ATOM      6  C   UNL     1      -1.283  11.909  20.199  0.00  0.00    +0.000 A 
ATOM      7  C   UNL     1      -0.824  12.316  21.493  0.00  0.00    +0.000 A 
ATOM      8  O   UNL     1       0.238  11.935  21.971  0.00  0.00    +0.000 OA
ATOM      9  N   UNL     1      -1.717  13.179  22.147  0.00  0.00    +0.000 N 
ATOM     10  C   UNL     1      -1.328  13.766  23.417  0.00  0.00    +0.000 C 
ATOM     11  C   UNL     1      -3.050  13.430  21.753  0.00  0.00    +0.000 A 
ATOM     12  O   UNL     1      -3.808  14.099  22.452  0.00  0.00    +0.000 OA
ATOM     13  N   UNL     1      -3.460  12.871  20.544  0.00  0.00    +0.000 N 
ATOM     14  C   UNL     1      -4.822  13.042  20.073  0.00  0.00    +0.000 C 
ATOM     15  H   UNL     1      -0.724   9.911  16.734  0.00  0.00    +0.000 HD
ATOM     16  H   UNL     1      -2.361  10.328  16.444  0.00  0.00    +0.000 HD
ENDROOT
BRANCH   1  17
ATOM     17  C   UNL     1       0.655  10.752  19.023  0.00  0.00    +0.000 C 
BRANCH  17  18
ATOM     18  C   UNL     1       0.900   9.308  19.496  0.00  0.00    +0.000 C 
BRANCH  18  19
ATOM     19  O   UNL     1       1.198   9.366  20.905  0.00  0.00    +0.000 OA
ATOM     20  H   UNL     1       0.658   8.697  21.363  0.00  0.00    +0.000 HD
ENDBRANCH  18  19
BRANCH  18  21
ATOM     21  C   UNL     1       2.014   8.552  18.745  0.00  0.00    +0.000 C 
BRANCH  21  22
ATOM     22  O   UNL     1       2.520   7.541  19.633  0.00  0.00    +0.000 OA
BRANCH  22  27
ATOM     23  C   UNL     1       0.872   2.156  18.879  0.00  0.00    +0.000 C 
ATOM     24  C   UNL     1       1.324   3.575  19.071  0.00  0.00    +0.000 A 
ATOM     25  C   UNL     1       1.249   4.202  20.317  0.00  0.00    +0.000 A 
ATOM     26  C   UNL     1       1.664   5.531  20.462  0.00  0.00    +0.000 A 
ATOM     27  C   UNL     1       2.174   6.246  19.374  0.00  0.00    +0.000 A 
ATOM     28  C   UNL     1       2.236   5.630  18.126  0.00  0.00    +0.000 A 
ATOM     29  C   UNL     1       1.812   4.303  17.977  0.00  0.00    +0.000 A 
ENDBRANCH  22  27
ENDBRANCH  21  22
ENDBRANCH  18  21
ENDBRANCH  17  18
ENDBRANCH   1  17
TORSDOF 6
ENDMDL
MODEL 7
REMARK VINA RESULT:      -6.7      2.909      6.473
REMARK  Name = 
REMARK  9 active torsions:
REMARK  status: ('A' for Active; 'I' for Inactive)
REMARK    1  A    between atoms: C_1  and  C_2
REMARK    2  A    between atoms: C_5  and  O_6
REMARK    3  A    between atoms: O_6  and  C_7
REMARK    4  A    between atoms: C_7  and  C_8
REMARK    5  A    between atoms: C_8  and  O_9
REMARK    6  A    between atoms: C_8  and  C_10
REMARK    7  A    between atoms: C_10  and  N_11
REMARK    8  A    between atoms: N_19  and  C_20
REMARK    9  A    between atoms: N_23  and  C_24
REMARK                            x       y       z     vdW  Elec       q    Type
REMARK                         _______ _______ _______ _____ _____    ______ ____
ROOT
ATOM      1  N   UNL     1       5.205   5.448  18.750  0.00  0.00    +0.000 N 
ATOM      2  C   UNL     1       4.711   6.298  17.771  0.00  0.00    +0.000 A 
ATOM      3  N   UNL     1       5.376   7.339  17.268  0.00  0.00    +0.000 N 
ATOM      4  N   UNL     1       3.500   5.955  17.405  0.00  0.00    +0.000 NA
ATOM      5  C   UNL     1       3.206   4.852  18.138  0.00  0.00    +0.000 A 
ATOM      6  C   UNL     1       4.243   4.481  18.944  0.00  0.00    +0.000 A 
ATOM      7  C   UNL     1       4.167   3.301  19.753  0.00  0.00    +0.000 A 
ATOM      8  O   UNL     1       5.137   2.832  20.335  0.00  0.00    +0.000 OA
ATOM      9  N   UNL     1       2.879   2.745  19.795  0.00  0.00    +0.000 N 
ATOM     10  C   UNL     1       2.626   1.615  20.671  0.00  0.00    +0.000 C 
ATOM     11  C   UNL     1       1.807   3.096  18.943  0.00  0.00    +0.000 A 
ATOM     12  O   UNL     1       0.749   2.472  18.958  0.00  0.00    +0.000 OA
ATOM     13  N   UNL     1       2.021   4.169  18.081  0.00  0.00    +0.000 N 
ATOM     14  C   UNL     1       0.994   4.580  17.141  0.00  0.00    +0.000 C 
ATOM     15  H   UNL     1       6.336   7.598  17.456  0.00  0.00    +0.000 HD
ATOM     16  H   UNL     1       4.928   7.854  16.513  0.00  0.00    +0.000 HD
ENDROOT
BRANCH   1  17
ATOM     17  C   UNL     1       6.505   5.564  19.375  0.00  0.00    +0.000 C 
BRANCH  17  18
ATOM     18  C   UNL     1       7.725   5.448  18.443  0.00  0.00    +0.000 C 
BRANCH  18  19
ATOM     19  O   UNL     1       8.053   6.782  18.005  0.00  0.00    +0.000 OA
ATOM     20  H   UNL     1       8.996   6.943  18.189  0.00  0.00    +0.000 HD
ENDBRANCH  18  19
BRANCH  18  21
ATOM     21  C   UNL     1       7.535   4.519  17.228  0.00  0.00    +0.000 C 
BRANCH  21  22
ATOM     22  O   UNL     1       7.463   5.351  16.059  0.00  0.00    +0.000 OA
BRANCH  22  27
ATOM     23  C   UNL     1       4.993   3.061  11.483  0.00  0.00    +0.000 C 
ATOM     24  C   UNL     1       5.660   3.656  12.690  0.00  0.00    +0.000 A 
ATOM     25  C   UNL     1       5.026   3.683  13.934  0.00  0.00    +0.000 A 
ATOM     26  C   UNL     1       5.668   4.257  15.038  0.00  0.00    +0.000 A 
ATOM     27  C   UNL     1       6.953   4.795  14.920  0.00  0.00    +0.000 A 
ATOM     28  C   UNL     1       7.582   4.784  13.678  0.00  0.00    +0.000 A 
ATOM     29  C   UNL     1       6.938   4.218  12.570  0.00  0.00    +0.000 A 
ENDBRANCH  22  27
ENDBRANCH  21  22
ENDBRANCH  18  21
ENDBRANCH  17  18
ENDBRANCH   1  17
TORSDOF 6
ENDMDL
MODEL 8
REMARK VINA RESULT:      -6.6      3.727      5.640
REMARK  Name = 
REMARK  9 active torsions:
REMARK  status: ('A' for Active; 'I' for Inactive)
REMARK    1  A    between atoms: C_1  and  C_2
REMARK    2  A    between atoms: C_5  and  O_6
REMARK    3  A    between atoms: O_6  and  C_7
REMARK    4  A    between atoms: C_7  and  C_8
REMARK    5  A    between atoms: C_8  and  O_9
REMARK    6  A    between atoms: C_8  and  C_10
REMARK    7  A    between atoms: C_10  and  N_11
REMARK    8  A    between atoms: N_19  and  C_20
REMARK    9  A    between atoms: N_23  and  C_24
REMARK                            x       y       z     vdW  Elec       q    Type
REMARK                         _______ _______ _______ _____ _____    ______ ____
ROOT
ATOM      1  N   UNL     1       2.099   7.730  19.677  0.00  0.00    +0.000 N 
ATOM      2  C   UNL     1       1.320   7.246  20.718  0.00  0.00    +0.000 A 
ATOM      3  N   UNL     1       0.515   7.996  21.472  0.00  0.00    +0.000 N 
ATOM      4  N   UNL     1       1.479   5.955  20.877  0.00  0.00    +0.000 NA
ATOM      5  C   UNL     1       2.359   5.584  19.911  0.00  0.00    +0.000 A 
ATOM      6  C   UNL     1       2.729   6.637  19.125  0.00  0.00    +0.000 A 
ATOM      7  C   UNL     1       3.599   6.452  18.002  0.00  0.00    +0.000 A 
ATOM      8  O   UNL     1       3.798   7.325  17.165  0.00  0.00    +0.000 OA
ATOM      9  N   UNL     1       4.181   5.175  17.962  0.00  0.00    +0.000 N 
ATOM     10  C   UNL     1       5.177   4.885  16.945  0.00  0.00    +0.000 C 
ATOM     11  C   UNL     1       3.783   4.069  18.745  0.00  0.00    +0.000 A 
ATOM     12  O   UNL     1       4.257   2.951  18.559  0.00  0.00    +0.000 OA
ATOM     13  N   UNL     1       2.820   4.310  19.722  0.00  0.00    +0.000 N 
ATOM     14  C   UNL     1       2.319   3.229  20.552  0.00  0.00    +0.000 C 
ATOM     15  H   UNL     1       0.295   8.975  21.342  0.00  0.00    +0.000 HD
ATOM     16  H   UNL     1      -0.049   7.514  22.169  0.00  0.00    +0.000 HD
ENDROOT
BRANCH   1  17
ATOM     17  C   UNL     1       2.161   9.114  19.257  0.00  0.00    +0.000 C 
BRANCH  17  18
ATOM     18  C   UNL     1       1.313   9.495  18.031  0.00  0.00    +0.000 C 
BRANCH  18  19
ATOM     19  O   UNL     1       2.077  10.448  17.265  0.00  0.00    +0.000 OA
ATOM     20  H   UNL     1       2.190  10.099  16.363  0.00  0.00    +0.000 HD
ENDBRANCH  18  19
BRANCH  18  21
ATOM     21  C   UNL     1      -0.084  10.064  18.351  0.00  0.00    +0.000 C 
BRANCH  21  22
ATOM     22  O   UNL     1      -0.981   9.594  17.332  0.00  0.00    +0.000 OA
BRANCH  22  27
ATOM     23  C   UNL     1      -5.898  12.436  17.147  0.00  0.00    +0.000 C 
ATOM     24  C   UNL     1      -4.607  11.670  17.190  0.00  0.00    +0.000 A 
ATOM     25  C   UNL     1      -3.825  11.624  18.346  0.00  0.00    +0.000 A 
ATOM     26  C   UNL     1      -2.619  10.914  18.351  0.00  0.00    +0.000 A 
ATOM     27  C   UNL     1      -2.186  10.227  17.213  0.00  0.00    +0.000 A 
ATOM     28  C   UNL     1      -2.955  10.283  16.054  0.00  0.00    +0.000 A 
ATOM     29  C   UNL     1      -4.158  11.001  16.043  0.00  0.00    +0.000 A 
ENDBRANCH  22  27
ENDBRANCH  21  22
ENDBRANCH  18  21
ENDBRANCH  17  18
ENDBRANCH   1  17
TORSDOF 6
ENDMDL
MODEL 9
REMARK VINA RESULT:      -6.6      5.948      9.121
REMARK  Name = 
REMARK  9 active torsions:
REMARK  status: ('A' for Active; 'I' for Inactive)
REMARK    1  A    between atoms: C_1  and  C_2
REMARK    2  A    between atoms: C_5  and  O_6
REMARK    3  A    between atoms: O_6  and  C_7
REMARK    4  A    between atoms: C_7  and  C_8
REMARK    5  A    between atoms: C_8  and  O_9
REMARK    6  A    between atoms: C_8  and  C_10
REMARK    7  A    between atoms: C_10  and  N_11
REMARK    8  A    between atoms: N_19  and  C_20
REMARK    9  A    between atoms: N_23  and  C_24
REMARK                            x       y       z     vdW  Elec       q    Type
REMARK                         _______ _______ _______ _____ _____    ______ ____
ROOT
ATOM      1  N   UNL     1      -0.930  11.468  20.955  0.00  0.00    +0.000 N 
ATOM      2  C   UNL     1      -1.663  12.268  21.821  0.00  0.00    +0.000 A 
ATOM      3  N   UNL     1      -1.260  12.628  23.040  0.00  0.00    +0.000 N 
ATOM      4  N   UNL     1      -2.809  12.622  21.294  0.00  0.00    +0.000 NA
ATOM      5  C   UNL     1      -2.818  12.064  20.057  0.00  0.00    +0.000 A 
ATOM      6  C   UNL     1      -1.664  11.385  19.793  0.00  0.00    +0.000 A 
ATOM      7  C   UNL     1      -1.438  10.777  18.515  0.00  0.00    +0.000 A 
ATOM      8  O   UNL     1      -0.349  10.331  18.175  0.00  0.00    +0.000 OA
ATOM      9  N   UNL     1      -2.584  10.759  17.705  0.00  0.00    +0.000 N 
ATOM     10  C   UNL     1      -2.535  10.068  16.429  0.00  0.00    +0.000 C 
ATOM     11  C   UNL     1      -3.771  11.485  17.949  0.00  0.00    +0.000 A 
ATOM     12  O   UNL     1      -4.682  11.517  17.125  0.00  0.00    +0.000 OA
ATOM     13  N   UNL     1      -3.847  12.170  19.160  0.00  0.00    +0.000 N 
ATOM     14  C   UNL     1      -5.010  12.975  19.485  0.00  0.00    +0.000 C 
ATOM     15  H   UNL     1      -0.357  12.451  23.462  0.00  0.00    +0.000 HD
ATOM     16  H   UNL     1      -1.862  13.265  23.558  0.00  0.00    +0.000 HD
ENDROOT
BRANCH   1  17
ATOM     17  C   UNL     1       0.370  10.902  21.244  0.00  0.00    +0.000 C 
BRANCH  17  18
ATOM     18  C   UNL     1       0.380   9.583  22.036  0.00  0.00    +0.000 C 
BRANCH  18  19
ATOM     19  O   UNL     1       0.309   9.927  23.435  0.00  0.00    +0.000 OA
ATOM     20  H   UNL     1       0.111  10.877  23.509  0.00  0.00    +0.000 HD
ENDBRANCH  18  19
BRANCH  18  21
ATOM     21  C   UNL     1       1.592   8.668  21.773  0.00  0.00    +0.000 C 
BRANCH  21  22
ATOM     22  O   UNL     1       1.156   7.621  20.891  0.00  0.00    +0.000 OA
BRANCH  22  27
ATOM     23  C   UNL     1       4.721   6.399  16.639  0.00  0.00    +0.000 C 
ATOM     24  C   UNL     1       3.771   6.706  17.760  0.00  0.00    +0.000 A 
ATOM     25  C   UNL     1       3.024   7.886  17.780  0.00  0.00    +0.000 A 
ATOM     26  C   UNL     1       2.157   8.151  18.847  0.00  0.00    +0.000 A 
ATOM     27  C   UNL     1       2.010   7.239  19.895  0.00  0.00    +0.000 A 
ATOM     28  C   UNL     1       2.764   6.068  19.887  0.00  0.00    +0.000 A 
ATOM     29  C   UNL     1       3.639   5.805  18.826  0.00  0.00    +0.000 A 
ENDBRANCH  22  27
ENDBRANCH  21  22
ENDBRANCH  18  21
ENDBRANCH  17  18
ENDBRANCH   1  17
TORSDOF 6
ENDMDL
