MODEL 1
REMARK VINA RESULT:      -8.5      0.000      0.000
REMARK  Name = 
REMARK  4 active torsions:
REMARK  status: ('A' for Active; 'I' for Inactive)
REMARK    1  A    between atoms: C_2  and  C_10
REMARK    2  A    between atoms: N_3  and  C_4
REMARK    3  A    between atoms: C_4  and  C_5
REMARK    4  A    between atoms: C_13  and  N_14
REMARK                            x       y       z     vdW  Elec       q    Type
REMARK                         _______ _______ _______ _____ _____    ______ ____
ROOT
ATOM      1  C   UNL     1       5.004   5.276  16.370  0.00  0.00    +0.000 A 
ATOM      2  C   UNL     1       5.143   6.660  16.501  0.00  0.00    +0.000 A 
ATOM      3  C   UNL     1       4.291   7.381  17.349  0.00  0.00    +0.000 A 
ATOM      4  C   UNL     1       3.288   6.739  18.085  0.00  0.00    +0.000 A 
ATOM      5  C   UNL     1       3.196   5.346  18.008  0.00  0.00    +0.000 A 
ATOM      6  C   UNL     1       4.043   4.621  17.153  0.00  0.00    +0.000 A 
ENDROOT
BRANCH   4   7
ATOM      7  N   UNL     1       2.372   7.440  18.909  0.00  0.00    +0.000 N 
ATOM      8  C   UNL     1       1.811   8.662  18.600  0.00  0.00    +0.000 C 
ATOM      9  O   UNL     1       1.976   9.255  17.535  0.00  0.00    +0.000 OA
ATOM     10  N   UNL     1       0.993   9.202  19.564  0.00  0.00    +0.000 N 
ATOM     11  C   UNL     1       0.285  10.447  19.269  0.00  0.00    +0.000 C 
ATOM     12  C   UNL     1      -0.369  10.809  20.555  0.00  0.00    +0.000 A 
ATOM     13  C   UNL     1      -1.198  11.872  20.857  0.00  0.00    +0.000 A 
ATOM     14  C   UNL     1      -1.651  11.984  22.169  0.00  0.00    +0.000 A 
ATOM     15  C   UNL     1      -1.251  11.024  23.103  0.00  0.00    +0.000 A 
ATOM     16  N   UNL     1      -0.439   9.971  22.830  0.00  0.00    +0.000 NA
ATOM     17  C   UNL     1      -0.025   9.900  21.551  0.00  0.00    +0.000 A 
ATOM     18  C   UNL     1       0.888   8.840  20.983  0.00  0.00    +0.000 C 
ATOM     19  H   UNL     1       1.879   6.893  19.598  0.00  0.00    +0.000 HD
ENDBRANCH   4   7
BRANCH   1  21
ATOM     20  O   UNL     1       6.021   3.273  15.644  0.00  0.00    +0.000 OA
ATOM     21  C   UNL     1       5.853   4.469  15.437  0.00  0.00    +0.000 C 
ATOM     22  N   UNL     1       6.384   5.131  14.344  0.00  0.00    +0.000 N 
ATOM     23  H   UNL     1       6.154   6.100  14.180  0.00  0.00    +0.000 HD
BRANCH  22  24
ATOM     24  C   UNL     1       7.198   4.433  13.364  0.00  0.00    +0.000 C 
BRANCH  24  25
ATOM     25  C   UNL     1       6.416   3.807  12.204  0.00  0.00    +0.000 C 
ATOM     26  C   UNL     1       6.630   2.307  12.019  0.00  0.00    +0.000 C 
ATOM     27  C   UNL     1       5.493   1.889  11.093  0.00  0.00    +0.000 C 
ATOM     28  C   UNL     1       4.349   2.866  11.359  0.00  0.00    +0.000 C 
ATOM     29  C   UNL     1       4.896   3.927  12.312  0.00  0.00    +0.000 C 
ENDBRANCH  24  25
ENDBRANCH  22  24
ENDBRANCH   1  21
TORSDOF 4
ENDMDL
MODEL 2
REMARK VINA RESULT:      -8.3      6.310      8.732
REMARK  Name = 
REMARK  4 active torsions:
REMARK  status: ('A' for Active; 'I' for Inactive)
REMARK    1  A    between atoms: C_2  and  C_10
REMARK    2  A    between atoms: N_3  and  C_4
REMARK    3  A    between atoms: C_4  and  C_5
REMARK    4  A    between atoms: C_13  and  N_14
REMARK                            x       y       z     vdW  Elec       q    Type
REMARK                         _______ _______ _______ _____ _____    ______ ____
ROOT
ATOM      1  C   UNL     1       6.377   5.983  18.122  0.00  0.00    +0.000 A 
ATOM      2  C   UNL     1       5.985   7.039  17.295  0.00  0.00    +0.000 A 
ATOM      3  C   UNL     1       6.769   8.198  17.207  0.00  0.00    +0.000 A 
ATOM      4  C   UNL     1       7.957   8.326  17.934  0.00  0.00    +0.000 A 
ATOM      5  C   UNL     1       8.384   7.241  18.707  0.00  0.00    +0.000 A 
ATOM      6  C   UNL     1       7.597   6.081  18.804  0.00  0.00    +0.000 A 
ENDROOT
BRANCH   4   7
ATOM      7  N   UNL     1       8.747   9.504  17.914  0.00  0.00    +0.000 N 
ATOM      8  C   UNL     1       9.119  10.221  19.032  0.00  0.00    +0.000 C 
ATOM      9  O   UNL     1       8.878   9.882  20.189  0.00  0.00    +0.000 OA
ATOM     10  N   UNL     1       9.834  11.370  18.790  0.00  0.00    +0.000 N 
ATOM     11  C   UNL     1      10.348  12.131  19.928  0.00  0.00    +0.000 C 
ATOM     12  C   UNL     1      10.925  13.359  19.317  0.00  0.00    +0.000 A 
ATOM     13  C   UNL     1      11.579  14.420  19.912  0.00  0.00    +0.000 A 
ATOM     14  C   UNL     1      11.994  15.464  19.090  0.00  0.00    +0.000 A 
ATOM     15  C   UNL     1      11.735  15.385  17.719  0.00  0.00    +0.000 A 
ATOM     16  N   UNL     1      11.096  14.353  17.112  0.00  0.00    +0.000 NA
ATOM     17  C   UNL     1      10.712  13.366  17.942  0.00  0.00    +0.000 A 
ATOM     18  C   UNL     1       9.977  12.111  17.531  0.00  0.00    +0.000 C 
ATOM     19  H   UNL     1       9.310   9.652  17.090  0.00  0.00    +0.000 HD
ENDBRANCH   4   7
BRANCH   1  21
ATOM     20  O   UNL     1       5.867   3.908  19.125  0.00  0.00    +0.000 OA
ATOM     21  C   UNL     1       5.547   4.748  18.293  0.00  0.00    +0.000 C 
ATOM     22  N   UNL     1       4.415   4.641  17.505  0.00  0.00    +0.000 N 
ATOM     23  H   UNL     1       4.156   5.396  16.888  0.00  0.00    +0.000 HD
BRANCH  22  24
ATOM     24  C   UNL     1       3.528   3.495  17.613  0.00  0.00    +0.000 C 
BRANCH  24  25
ATOM     25  C   UNL     1       2.328   3.695  18.546  0.00  0.00    +0.000 C 
ATOM     26  C   UNL     1       2.234   2.697  19.697  0.00  0.00    +0.000 C 
ATOM     27  C   UNL     1       1.223   3.330  20.647  0.00  0.00    +0.000 C 
ATOM     28  C   UNL     1       1.331   4.839  20.436  0.00  0.00    +0.000 C 
ATOM     29  C   UNL     1       2.283   5.046  19.259  0.00  0.00    +0.000 C 
ENDBRANCH  24  25
ENDBRANCH  22  24
ENDBRANCH   1  21
TORSDOF 4
ENDMDL
MODEL 3
REMARK VINA RESULT:      -8.1      0.853      1.489
REMARK  Name = 
REMARK  4 active torsions:
REMARK  status: ('A' for Active; 'I' for Inactive)
REMARK    1  A    between atoms: C_2  and  C_10
REMARK    2  A    between atoms: N_3  and  C_4
REMARK    3  A    between atoms: C_4  and  C_5
REMARK    4  A    between atoms: C_13  and  N_14
REMARK                            x       y       z     vdW  Elec       q    Type
REMARK                         _______ _______ _______ _____ _____    ______ ____
ROOT
ATOM      1  C   UNL     1       4.486   5.670  16.921  0.00  0.00    +0.000 A 
ATOM      2  C   UNL     1       3.416   5.060  17.580  0.00  0.00    +0.000 A 
ATOM      3  C   UNL     1       2.529   5.825  18.350  0.00  0.00    +0.000 A 
ATOM      4  C   UNL     1       2.688   7.209  18.477  0.00  0.00    +0.000 A 
ATOM      5  C   UNL     1       3.717   7.829  17.761  0.00  0.00    +0.000 A 
ATOM      6  C   UNL     1       4.613   7.065  16.993  0.00  0.00    +0.000 A 
ENDROOT
BRANCH   4   7
ATOM      7  N   UNL     1       1.846   8.007  19.293  0.00  0.00    +0.000 N 
ATOM      8  C   UNL     1       1.071   9.054  18.837  0.00  0.00    +0.000 C 
ATOM      9  O   UNL     1       0.955   9.371  17.654  0.00  0.00    +0.000 OA
ATOM     10  N   UNL     1       0.373   9.741  19.801  0.00  0.00    +0.000 N 
ATOM     11  C   UNL     1      -0.545  10.800  19.384  0.00  0.00    +0.000 C 
ATOM     12  C   UNL     1      -1.000  11.413  20.662  0.00  0.00    +0.000 A 
ATOM     13  C   UNL     1      -1.903  12.436  20.880  0.00  0.00    +0.000 A 
ATOM     14  C   UNL     1      -2.122  12.832  22.197  0.00  0.00    +0.000 A 
ATOM     15  C   UNL     1      -1.428  12.180  23.220  0.00  0.00    +0.000 A 
ATOM     16  N   UNL     1      -0.539  11.173  23.030  0.00  0.00    +0.000 NA
ATOM     17  C   UNL     1      -0.357  10.820  21.744  0.00  0.00    +0.000 A 
ATOM     18  C   UNL     1       0.579   9.741  21.255  0.00  0.00    +0.000 C 
ATOM     19  H   UNL     1       1.568   7.608  20.176  0.00  0.00    +0.000 HD
ENDBRANCH   4   7
BRANCH   1  21
ATOM     20  O   UNL     1       5.928   3.834  16.570  0.00  0.00    +0.000 OA
ATOM     21  C   UNL     1       5.491   4.891  16.130  0.00  0.00    +0.000 C 
ATOM     22  N   UNL     1       5.851   5.405  14.897  0.00  0.00    +0.000 N 
ATOM     23  H   UNL     1       5.405   6.240  14.548  0.00  0.00    +0.000 HD
BRANCH  22  24
ATOM     24  C   UNL     1       6.797   4.711  14.039  0.00  0.00    +0.000 C 
BRANCH  24  25
ATOM     25  C   UNL     1       6.198   3.570  13.209  0.00  0.00    +0.000 C 
ATOM     26  C   UNL     1       4.862   3.890  12.544  0.00  0.00    +0.000 C 
ATOM     27  C   UNL     1       4.691   2.777  11.515  0.00  0.00    +0.000 C 
ATOM     28  C   UNL     1       6.103   2.347  11.119  0.00  0.00    +0.000 C 
ATOM     29  C   UNL     1       7.062   3.101  12.039  0.00  0.00    +0.000 C 
ENDBRANCH  24  25
ENDBRANCH  22  24
ENDBRANCH   1  21
TORSDOF 4
ENDMDL
MODEL 4
REMARK VINA RESULT:      -8.1      6.663      9.018
REMARK  Name = 
REMARK  4 active torsions:
REMARK  status: ('A' for Active; 'I' for Inactive)
REMARK    1  A    between atoms: C_2  and  C_10
REMARK    2  A    between atoms: N_3  and  C_4
REMARK    3  A    between atoms: C_4  and  C_5
REMARK    4  A    between atoms: C_13  and  N_14
REMARK                            x       y       z     vdW  Elec       q    Type
REMARK                         _______ _______ _______ _____ _____    ______ ____
ROOT
ATOM      1  C   UNL     1       6.804   6.286  18.086  0.00  0.00    +0.000 A 
ATOM      2  C   UNL     1       7.924   6.433  18.909  0.00  0.00    +0.000 A 
ATOM      3  C   UNL     1       8.647   7.633  18.912  0.00  0.00    +0.000 A 
ATOM      4  C   UNL     1       8.270   8.710  18.102  0.00  0.00    +0.000 A 
ATOM      5  C   UNL     1       7.109   8.586  17.331  0.00  0.00    +0.000 A 
ATOM      6  C   UNL     1       6.385   7.382  17.320  0.00  0.00    +0.000 A 
ENDROOT
BRANCH   4   7
ATOM      7  N   UNL     1       9.009   9.918  18.036  0.00  0.00    +0.000 N 
ATOM      8  C   UNL     1       9.363  10.685  19.126  0.00  0.00    +0.000 C 
ATOM      9  O   UNL     1       9.150  10.372  20.297  0.00  0.00    +0.000 OA
ATOM     10  N   UNL     1      10.027  11.854  18.841  0.00  0.00    +0.000 N 
ATOM     11  C   UNL     1      10.520  12.670  19.949  0.00  0.00    +0.000 C 
ATOM     12  C   UNL     1      11.039  13.902  19.293  0.00  0.00    +0.000 A 
ATOM     13  C   UNL     1      11.654  15.007  19.848  0.00  0.00    +0.000 A 
ATOM     14  C   UNL     1      12.017  16.041  18.989  0.00  0.00    +0.000 A 
ATOM     15  C   UNL     1      11.745  15.909  17.625  0.00  0.00    +0.000 A 
ATOM     16  N   UNL     1      11.144  14.833  17.057  0.00  0.00    +0.000 NA
ATOM     17  C   UNL     1      10.811  13.857  17.921  0.00  0.00    +0.000 A 
ATOM     18  C   UNL     1      10.125  12.561  17.559  0.00  0.00    +0.000 C 
ATOM     19  H   UNL     1       9.557  10.064  17.201  0.00  0.00    +0.000 HD
ENDBRANCH   4   7
BRANCH   1  21
ATOM     20  O   UNL     1       6.280   4.195  17.123  0.00  0.00    +0.000 OA
ATOM     21  C   UNL     1       6.030   5.007  18.007  0.00  0.00    +0.000 C 
ATOM     22  N   UNL     1       5.074   4.792  18.984  0.00  0.00    +0.000 N 
ATOM     23  H   UNL     1       4.959   5.458  19.733  0.00  0.00    +0.000 HD
BRANCH  22  24
ATOM     24  C   UNL     1       4.288   3.570  19.013  0.00  0.00    +0.000 C 
BRANCH  24  25
ATOM     25  C   UNL     1       2.969   3.671  19.786  0.00  0.00    +0.000 C 
ATOM     26  C   UNL     1       1.722   3.310  18.981  0.00  0.00    +0.000 C 
ATOM     27  C   UNL     1       0.644   3.125  20.043  0.00  0.00    +0.000 C 
ATOM     28  C   UNL     1       1.369   2.673  21.309  0.00  0.00    +0.000 C 
ATOM     29  C   UNL     1       2.864   2.758  21.007  0.00  0.00    +0.000 C 
ENDBRANCH  24  25
ENDBRANCH  22  24
ENDBRANCH   1  21
TORSDOF 4
ENDMDL
MODEL 5
REMARK VINA RESULT:      -8.1      6.037      8.391
REMARK  Name = 
REMARK  4 active torsions:
REMARK  status: ('A' for Active; 'I' for Inactive)
REMARK    1  A    between atoms: C_2  and  C_10
REMARK    2  A    between atoms: N_3  and  C_4
REMARK    3  A    between atoms: C_4  and  C_5
REMARK    4  A    between atoms: C_13  and  N_14
REMARK                            x       y       z     vdW  Elec       q    Type
REMARK                         _______ _______ _______ _____ _____    ______ ____
ROOT
ATOM      1  C   UNL     1       6.054   5.631  17.841  0.00  0.00    +0.000 A 
ATOM      2  C   UNL     1       5.474   6.722  17.188  0.00  0.00    +0.000 A 
ATOM      3  C   UNL     1       6.145   7.952  17.134  0.00  0.00    +0.000 A 
ATOM      4  C   UNL     1       7.403   8.119  17.723  0.00  0.00    +0.000 A 
ATOM      5  C   UNL     1       8.012   7.007  18.315  0.00  0.00    +0.000 A 
ATOM      6  C   UNL     1       7.341   5.774  18.378  0.00  0.00    +0.000 A 
ENDROOT
BRANCH   4   7
ATOM      7  N   UNL     1       8.086   9.361  17.737  0.00  0.00    +0.000 N 
ATOM      8  C   UNL     1       8.893   9.804  18.765  0.00  0.00    +0.000 C 
ATOM      9  O   UNL     1       9.181   9.140  19.760  0.00  0.00    +0.000 OA
ATOM     10  N   UNL     1       9.414  11.066  18.610  0.00  0.00    +0.000 N 
ATOM     11  C   UNL     1      10.356  11.566  19.611  0.00  0.00    +0.000 C 
ATOM     12  C   UNL     1      10.591  12.982  19.218  0.00  0.00    +0.000 A 
ATOM     13  C   UNL     1      11.420  13.931  19.783  0.00  0.00    +0.000 A 
ATOM     14  C   UNL     1      11.421  15.203  19.218  0.00  0.00    +0.000 A 
ATOM     15  C   UNL     1      10.596  15.453  18.118  0.00  0.00    +0.000 A 
ATOM     16  N   UNL     1       9.775  14.537  17.545  0.00  0.00    +0.000 NA
ATOM     17  C   UNL     1       9.804  13.321  18.121  0.00  0.00    +0.000 A 
ATOM     18  C   UNL     1       8.986  12.126  17.690  0.00  0.00    +0.000 C 
ATOM     19  H   UNL     1       8.235   9.801  16.842  0.00  0.00    +0.000 HD
ENDBRANCH   4   7
BRANCH   1  21
ATOM     20  O   UNL     1       4.955   3.730  16.973  0.00  0.00    +0.000 OA
ATOM     21  C   UNL     1       5.356   4.313  17.973  0.00  0.00    +0.000 C 
ATOM     22  N   UNL     1       5.231   3.796  19.251  0.00  0.00    +0.000 N 
ATOM     23  H   UNL     1       5.645   4.281  20.034  0.00  0.00    +0.000 HD
BRANCH  22  24
ATOM     24  C   UNL     1       4.595   2.511  19.485  0.00  0.00    +0.000 C 
BRANCH  24  25
ATOM     25  C   UNL     1       3.128   2.587  19.921  0.00  0.00    +0.000 C 
ATOM     26  C   UNL     1       2.667   3.964  20.394  0.00  0.00    +0.000 C 
ATOM     27  C   UNL     1       1.146   3.859  20.396  0.00  0.00    +0.000 C 
ATOM     28  C   UNL     1       0.791   2.829  19.324  0.00  0.00    +0.000 C 
ATOM     29  C   UNL     1       2.113   2.241  18.833  0.00  0.00    +0.000 C 
ENDBRANCH  24  25
ENDBRANCH  22  24
ENDBRANCH   1  21
TORSDOF 4
ENDMDL
MODEL 6
REMARK VINA RESULT:      -8.0      3.356      5.409
REMARK  Name = 
REMARK  4 active torsions:
REMARK  status: ('A' for Active; 'I' for Inactive)
REMARK    1  A    between atoms: C_2  and  C_10
REMARK    2  A    between atoms: N_3  and  C_4
REMARK    3  A    between atoms: C_4  and  C_5
REMARK    4  A    between atoms: C_13  and  N_14
REMARK                            x       y       z     vdW  Elec       q    Type
REMARK                         _______ _______ _______ _____ _____    ______ ____
ROOT
ATOM      1  C   UNL     1       2.115   7.858  18.820  0.00  0.00    +0.000 A 
ATOM      2  C   UNL     1       1.644   8.973  18.121  0.00  0.00    +0.000 A 
ATOM      3  C   UNL     1       0.859   9.935  18.770  0.00  0.00    +0.000 A 
ATOM      4  C   UNL     1       0.530   9.810  20.124  0.00  0.00    +0.000 A 
ATOM      5  C   UNL     1       1.059   8.731  20.839  0.00  0.00    +0.000 A 
ATOM      6  C   UNL     1       1.841   7.760  20.191  0.00  0.00    +0.000 A 
ENDROOT
BRANCH   4   7
ATOM      7  N   UNL     1      -0.308  10.733  20.799  0.00  0.00    +0.000 N 
ATOM      8  C   UNL     1       0.119  11.916  21.365  0.00  0.00    +0.000 C 
ATOM      9  O   UNL     1       1.266  12.354  21.283  0.00  0.00    +0.000 OA
ATOM     10  N   UNL     1      -0.843  12.639  22.029  0.00  0.00    +0.000 N 
ATOM     11  C   UNL     1      -0.488  13.951  22.570  0.00  0.00    +0.000 C 
ATOM     12  C   UNL     1      -1.695  14.370  23.333  0.00  0.00    +0.000 A 
ATOM     13  C   UNL     1      -1.942  15.540  24.025  0.00  0.00    +0.000 A 
ATOM     14  C   UNL     1      -3.165  15.655  24.680  0.00  0.00    +0.000 A 
ATOM     15  C   UNL     1      -4.072  14.595  24.604  0.00  0.00    +0.000 A 
ATOM     16  N   UNL     1      -3.853  13.437  23.930  0.00  0.00    +0.000 NA
ATOM     17  C   UNL     1      -2.660  13.367  23.311  0.00  0.00    +0.000 A 
ATOM     18  C   UNL     1      -2.159  12.194  22.503  0.00  0.00    +0.000 C 
ATOM     19  H   UNL     1      -1.295  10.675  20.596  0.00  0.00    +0.000 HD
ENDBRANCH   4   7
BRANCH   1  21
ATOM     20  O   UNL     1       2.530   5.613  18.220  0.00  0.00    +0.000 OA
ATOM     21  C   UNL     1       2.911   6.775  18.160  0.00  0.00    +0.000 C 
ATOM     22  N   UNL     1       4.045   7.165  17.469  0.00  0.00    +0.000 N 
ATOM     23  H   UNL     1       4.275   8.145  17.387  0.00  0.00    +0.000 HD
BRANCH  22  24
ATOM     24  C   UNL     1       4.872   6.196  16.771  0.00  0.00    +0.000 C 
BRANCH  24  25
ATOM     25  C   UNL     1       6.287   6.030  17.335  0.00  0.00    +0.000 C 
ATOM     26  C   UNL     1       7.049   7.334  17.558  0.00  0.00    +0.000 C 
ATOM     27  C   UNL     1       8.219   6.925  18.447  0.00  0.00    +0.000 C 
ATOM     28  C   UNL     1       7.738   5.718  19.251  0.00  0.00    +0.000 C 
ATOM     29  C   UNL     1       6.361   5.351  18.702  0.00  0.00    +0.000 C 
ENDBRANCH  24  25
ENDBRANCH  22  24
ENDBRANCH   1  21
TORSDOF 4
ENDMDL
MODEL 7
REMARK VINA RESULT:      -8.0      1.410      2.279
REMARK  Name = 
REMARK  4 active torsions:
REMARK  status: ('A' for Active; 'I' for Inactive)
REMARK    1  A    between atoms: C_2  and  C_10
REMARK    2  A    between atoms: N_3  and  C_4
REMARK    3  A    between atoms: C_4  and  C_5
REMARK    4  A    between atoms: C_13  and  N_14
REMARK                            x       y       z     vdW  Elec       q    Type
REMARK                         _______ _______ _______ _____ _____    ______ ____
ROOT
ATOM      1  C   UNL     1       3.907   5.974  17.723  0.00  0.00    +0.000 A 
ATOM      2  C   UNL     1       3.071   5.492  18.733  0.00  0.00    +0.000 A 
ATOM      3  C   UNL     1       2.228   6.367  19.433  0.00  0.00    +0.000 A 
ATOM      4  C   UNL     1       2.199   7.735  19.139  0.00  0.00    +0.000 A 
ATOM      5  C   UNL     1       2.984   8.205  18.081  0.00  0.00    +0.000 A 
ATOM      6  C   UNL     1       3.835   7.332  17.382  0.00  0.00    +0.000 A 
ENDROOT
BRANCH   4   7
ATOM      7  N   UNL     1       1.403   8.659  19.863  0.00  0.00    +0.000 N 
ATOM      8  C   UNL     1       0.547   9.577  19.291  0.00  0.00    +0.000 C 
ATOM      9  O   UNL     1       0.309   9.651  18.086  0.00  0.00    +0.000 OA
ATOM     10  N   UNL     1      -0.088  10.425  20.167  0.00  0.00    +0.000 N 
ATOM     11  C   UNL     1      -1.084  11.359  19.644  0.00  0.00    +0.000 C 
ATOM     12  C   UNL     1      -1.445  12.202  20.817  0.00  0.00    +0.000 A 
ATOM     13  C   UNL     1      -2.365  13.227  20.919  0.00  0.00    +0.000 A 
ATOM     14  C   UNL     1      -2.478  13.870  22.149  0.00  0.00    +0.000 A 
ATOM     15  C   UNL     1      -1.667  13.450  23.206  0.00  0.00    +0.000 A 
ATOM     16  N   UNL     1      -0.757  12.446  23.129  0.00  0.00    +0.000 NA
ATOM     17  C   UNL     1      -0.680  11.850  21.925  0.00  0.00    +0.000 A 
ATOM     18  C   UNL     1       0.251  10.717  21.565  0.00  0.00    +0.000 C 
ATOM     19  H   UNL     1       1.225   8.436  20.830  0.00  0.00    +0.000 HD
ENDBRANCH   4   7
BRANCH   1  21
ATOM     20  O   UNL     1       4.661   3.883  16.928  0.00  0.00    +0.000 OA
ATOM     21  C   UNL     1       4.863   5.090  16.983  0.00  0.00    +0.000 C 
ATOM     22  N   UNL     1       5.930   5.709  16.356  0.00  0.00    +0.000 N 
ATOM     23  H   UNL     1       6.009   6.715  16.369  0.00  0.00    +0.000 HD
BRANCH  22  24
ATOM     24  C   UNL     1       6.898   4.945  15.589  0.00  0.00    +0.000 C 
BRANCH  24  25
ATOM     25  C   UNL     1       6.597   4.842  14.089  0.00  0.00    +0.000 C 
ATOM     26  C   UNL     1       7.810   5.004  13.176  0.00  0.00    +0.000 C 
ATOM     27  C   UNL     1       7.319   4.494  11.825  0.00  0.00    +0.000 C 
ATOM     28  C   UNL     1       6.236   3.461  12.131  0.00  0.00    +0.000 C 
ATOM     29  C   UNL     1       6.005   3.507  13.640  0.00  0.00    +0.000 C 
ENDBRANCH  24  25
ENDBRANCH  22  24
ENDBRANCH   1  21
TORSDOF 4
ENDMDL
MODEL 8
REMARK VINA RESULT:      -8.0      3.155      5.027
REMARK  Name = 
REMARK  4 active torsions:
REMARK  status: ('A' for Active; 'I' for Inactive)
REMARK    1  A    between atoms: C_2  and  C_10
REMARK    2  A    between atoms: N_3  and  C_4
REMARK    3  A    between atoms: C_4  and  C_5
REMARK    4  A    between atoms: C_13  and  N_14
REMARK                            x       y       z     vdW  Elec       q    Type
REMARK                         _______ _______ _______ _____ _____    ______ ____
ROOT
ATOM      1  C   UNL     1       2.384   7.747  18.508  0.00  0.00    +0.000 A 
ATOM      2  C   UNL     1       1.880   8.889  17.879  0.00  0.00    +0.000 A 
ATOM      3  C   UNL     1       1.080   9.794  18.590  0.00  0.00    +0.000 A 
ATOM      4  C   UNL     1       0.771   9.585  19.939  0.00  0.00    +0.000 A 
ATOM      5  C   UNL     1       1.334   8.480  20.586  0.00  0.00    +0.000 A 
ATOM      6  C   UNL     1       2.130   7.566  19.875  0.00  0.00    +0.000 A 
ENDROOT
BRANCH   4   7
ATOM      7  N   UNL     1      -0.080  10.448  20.675  0.00  0.00    +0.000 N 
ATOM      8  C   UNL     1       0.311  11.645  21.238  0.00  0.00    +0.000 C 
ATOM      9  O   UNL     1       1.425  12.149  21.102  0.00  0.00    +0.000 OA
ATOM     10  N   UNL     1      -0.653  12.303  21.965  0.00  0.00    +0.000 N 
ATOM     11  C   UNL     1      -0.343  13.624  22.510  0.00  0.00    +0.000 C 
ATOM     12  C   UNL     1      -1.528  13.962  23.345  0.00  0.00    +0.000 A 
ATOM     13  C   UNL     1      -1.802  15.106  24.069  0.00  0.00    +0.000 A 
ATOM     14  C   UNL     1      -2.992  15.141  24.791  0.00  0.00    +0.000 A 
ATOM     15  C   UNL     1      -3.841  14.031  24.745  0.00  0.00    +0.000 A 
ATOM     16  N   UNL     1      -3.594  12.899  24.039  0.00  0.00    +0.000 NA
ATOM     17  C   UNL     1      -2.435  12.906  23.356  0.00  0.00    +0.000 A 
ATOM     18  C   UNL     1      -1.913  11.775  22.501  0.00  0.00    +0.000 C 
ATOM     19  H   UNL     1      -1.071  10.337  20.524  0.00  0.00    +0.000 HD
ENDBRANCH   4   7
BRANCH   1  21
ATOM     20  O   UNL     1       3.910   7.062  16.842  0.00  0.00    +0.000 OA
ATOM     21  C   UNL     1       3.197   6.723  17.779  0.00  0.00    +0.000 C 
ATOM     22  N   UNL     1       3.122   5.421  18.241  0.00  0.00    +0.000 N 
ATOM     23  H   UNL     1       2.578   5.207  19.064  0.00  0.00    +0.000 HD
BRANCH  22  24
ATOM     24  C   UNL     1       3.893   4.357  17.622  0.00  0.00    +0.000 C 
BRANCH  24  25
ATOM     25  C   UNL     1       5.352   4.264  18.084  0.00  0.00    +0.000 C 
ATOM     26  C   UNL     1       6.390   4.540  16.999  0.00  0.00    +0.000 C 
ATOM     27  C   UNL     1       7.683   4.756  17.779  0.00  0.00    +0.000 C 
ATOM     28  C   UNL     1       7.268   5.304  19.143  0.00  0.00    +0.000 C 
ATOM     29  C   UNL     1       5.742   5.244  19.190  0.00  0.00    +0.000 C 
ENDBRANCH  24  25
ENDBRANCH  22  24
ENDBRANCH   1  21
TORSDOF 4
ENDMDL
MODEL 9
REMARK VINA RESULT:      -7.8      2.452      4.496
REMARK  Name = 
REMARK  4 active torsions:
REMARK  status: ('A' for Active; 'I' for Inactive)
REMARK    1  A    between atoms: C_2  and  C_10
REMARK    2  A    between atoms: N_3  and  C_4
REMARK    3  A    between atoms: C_4  and  C_5
REMARK    4  A    between atoms: C_13  and  N_14
REMARK                            x       y       z     vdW  Elec       q    Type
REMARK                         _______ _______ _______ _____ _____    ______ ____
ROOT
ATOM      1  C   UNL     1       2.244   7.116  19.274  0.00  0.00    +0.000 A 
ATOM      2  C   UNL     1       1.959   8.268  18.536  0.00  0.00    +0.000 A 
ATOM      3  C   UNL     1       1.220   9.311  19.110  0.00  0.00    +0.000 A 
ATOM      4  C   UNL     1       0.755   9.231  20.428  0.00  0.00    +0.000 A 
ATOM      5  C   UNL     1       1.100   8.109  21.187  0.00  0.00    +0.000 A 
ATOM      6  C   UNL     1       1.835   7.057  20.613  0.00  0.00    +0.000 A 
ENDROOT
BRANCH   4   7
ATOM      7  N   UNL     1      -0.043  10.241  21.023  0.00  0.00    +0.000 N 
ATOM      8  C   UNL     1       0.404  11.503  21.355  0.00  0.00    +0.000 C 
ATOM      9  O   UNL     1       1.527  11.934  21.100  0.00  0.00    +0.000 OA
ATOM     10  N   UNL     1      -0.514  12.313  21.982  0.00  0.00    +0.000 N 
ATOM     11  C   UNL     1      -0.145  13.697  22.275  0.00  0.00    +0.000 C 
ATOM     12  C   UNL     1      -1.289  14.219  23.070  0.00  0.00    +0.000 A 
ATOM     13  C   UNL     1      -1.502  15.482  23.589  0.00  0.00    +0.000 A 
ATOM     14  C   UNL     1      -2.665  15.687  24.327  0.00  0.00    +0.000 A 
ATOM     15  C   UNL     1      -3.549  14.618  24.502  0.00  0.00    +0.000 A 
ATOM     16  N   UNL     1      -3.362  13.371  24.001  0.00  0.00    +0.000 NA
ATOM     17  C   UNL     1      -2.227  13.216  23.294  0.00  0.00    +0.000 A 
ATOM     18  C   UNL     1      -1.771  11.934  22.638  0.00  0.00    +0.000 C 
ATOM     19  H   UNL     1      -1.041  10.141  20.922  0.00  0.00    +0.000 HD
ENDBRANCH   4   7
BRANCH   1  21
ATOM     20  O   UNL     1       2.366   5.066  18.109  0.00  0.00    +0.000 OA
ATOM     21  C   UNL     1       2.983   5.952  18.689  0.00  0.00    +0.000 C 
ATOM     22  N   UNL     1       4.361   5.961  18.809  0.00  0.00    +0.000 N 
ATOM     23  H   UNL     1       4.826   6.752  19.230  0.00  0.00    +0.000 HD
BRANCH  22  24
ATOM     24  C   UNL     1       5.173   4.893  18.252  0.00  0.00    +0.000 C 
BRANCH  24  25
ATOM     25  C   UNL     1       5.624   5.115  16.804  0.00  0.00    +0.000 C 
ATOM     26  C   UNL     1       7.072   4.726  16.514  0.00  0.00    +0.000 C 
ATOM     27  C   UNL     1       7.140   4.682  14.991  0.00  0.00    +0.000 C 
ATOM     28  C   UNL     1       5.733   4.325  14.515  0.00  0.00    +0.000 C 
ATOM     29  C   UNL     1       4.841   4.326  15.755  0.00  0.00    +0.000 C 
ENDBRANCH  24  25
ENDBRANCH  22  24
ENDBRANCH   1  21
TORSDOF 4
ENDMDL
