MODEL 1
REMARK VINA RESULT:      -7.6      0.000      0.000
REMARK  Name = 
REMARK  4 active torsions:
REMARK  status: ('A' for Active; 'I' for Inactive)
REMARK    1  A    between atoms: N_1  and  C_2
REMARK    2  A    between atoms: C_2  and  C_3
REMARK    3  A    between atoms: C_5  and  C_6
REMARK    4  A    between atoms: C_15  and  O_16
REMARK                            x       y       z     vdW  Elec       q    Type
REMARK                         _______ _______ _______ _____ _____    ______ ____
ROOT
ATOM      1  C   UNL     1       5.765   4.233  16.375  0.00  0.00    +0.000 A 
ATOM      2  C   UNL     1       4.417   4.296  16.776  0.00  0.00    +0.000 A 
ATOM      3  C   UNL     1       4.047   4.881  17.990  0.00  0.00    +0.000 A 
ATOM      4  C   UNL     1       5.062   5.204  18.910  0.00  0.00    +0.000 A 
ATOM      5  C   UNL     1       6.405   5.063  18.559  0.00  0.00    +0.000 A 
ATOM      6 CL   UNL     1       7.623   5.576  19.669  0.00  0.00    +0.000 Cl
ATOM      7  C   UNL     1       6.753   4.616  17.282  0.00  0.00    +0.000 A 
ENDROOT
BRANCH   3   8
ATOM      8  C   UNL     1       2.652   5.456  18.224  0.00  0.00    +0.000 C 
ATOM      9  C   UNL     1       1.631   4.387  17.776  0.00  0.00    +0.000 C 
ATOM     10  C   UNL     1       1.474   3.270  18.805  0.00  0.00    +0.000 C 
ATOM     11  C   UNL     1       0.943   3.842  20.110  0.00  0.00    +0.000 C 
ATOM     12  C   UNL     1       1.815   4.965  20.664  0.00  0.00    +0.000 C 
ATOM     13  C   UNL     1       2.293   5.990  19.626  0.00  0.00    +0.000 C 
ENDBRANCH   3   8
BRANCH   7  14
ATOM     14  O   UNL     1       8.064   4.605  16.879  0.00  0.00    +0.000 OA
ATOM     15  H   UNL     1       8.089   4.174  16.004  0.00  0.00    +0.000 HD
ENDBRANCH   7  14
BRANCH   1  16
ATOM     16  C   UNL     1       6.069   3.905  14.933  0.00  0.00    +0.000 C 
BRANCH  16  17
ATOM     17  N   UNL     1       6.815   5.006  14.313  0.00  0.00    +0.000 NA
ATOM     18  H   UNL     1       7.325   4.648  13.505  0.00  0.00    +0.000 HD
ATOM     19  H   UNL     1       7.521   5.328  14.981  0.00  0.00    +0.000 HD
ENDBRANCH  16  17
ENDBRANCH   1  16
TORSDOF 4
ENDMDL
MODEL 2
REMARK VINA RESULT:      -7.3      2.433      3.309
REMARK  Name = 
REMARK  4 active torsions:
REMARK  status: ('A' for Active; 'I' for Inactive)
REMARK    1  A    between atoms: N_1  and  C_2
REMARK    2  A    between atoms: C_2  and  C_3
REMARK    3  A    between atoms: C_5  and  C_6
REMARK    4  A    between atoms: C_15  and  O_16
REMARK                            x       y       z     vdW  Elec       q    Type
REMARK                         _______ _______ _______ _____ _____    ______ ____
ROOT
ATOM      1  C   UNL     1       6.556   5.373  18.209  0.00  0.00    +0.000 A 
ATOM      2  C   UNL     1       5.562   4.736  18.975  0.00  0.00    +0.000 A 
ATOM      3  C   UNL     1       4.625   3.882  18.384  0.00  0.00    +0.000 A 
ATOM      4  C   UNL     1       4.551   3.845  16.979  0.00  0.00    +0.000 A 
ATOM      5  C   UNL     1       5.476   4.544  16.204  0.00  0.00    +0.000 A 
ATOM      6 CL   UNL     1       5.426   4.385  14.486  0.00  0.00    +0.000 Cl
ATOM      7  C   UNL     1       6.498   5.273  16.818  0.00  0.00    +0.000 A 
ENDROOT
BRANCH   3   8
ATOM      8  C   UNL     1       3.915   2.785  19.173  0.00  0.00    +0.000 C 
ATOM      9  C   UNL     1       3.369   3.427  20.468  0.00  0.00    +0.000 C 
ATOM     10  C   UNL     1       2.099   4.238  20.220  0.00  0.00    +0.000 C 
ATOM     11  C   UNL     1       0.998   3.326  19.703  0.00  0.00    +0.000 C 
ATOM     12  C   UNL     1       1.401   2.563  18.445  0.00  0.00    +0.000 C 
ATOM     13  C   UNL     1       2.813   1.961  18.474  0.00  0.00    +0.000 C 
ENDBRANCH   3   8
BRANCH   7  14
ATOM     14  O   UNL     1       7.493   5.849  16.069  0.00  0.00    +0.000 OA
ATOM     15  H   UNL     1       7.727   6.689  16.507  0.00  0.00    +0.000 HD
ENDBRANCH   7  14
BRANCH   1  16
ATOM     16  C   UNL     1       7.723   6.001  18.930  0.00  0.00    +0.000 C 
BRANCH  16  17
ATOM     17  N   UNL     1       7.848   5.431  20.276  0.00  0.00    +0.000 NA
ATOM     18  H   UNL     1       7.018   4.872  20.479  0.00  0.00    +0.000 HD
ATOM     19  H   UNL     1       7.849   6.202  20.950  0.00  0.00    +0.000 HD
ENDBRANCH  16  17
ENDBRANCH   1  16
TORSDOF 4
ENDMDL
MODEL 3
REMARK VINA RESULT:      -7.1      2.082      2.558
REMARK  Name = 
REMARK  4 active torsions:
REMARK  status: ('A' for Active; 'I' for Inactive)
REMARK    1  A    between atoms: N_1  and  C_2
REMARK    2  A    between atoms: C_2  and  C_3
REMARK    3  A    between atoms: C_5  and  C_6
REMARK    4  A    between atoms: C_15  and  O_16
REMARK                            x       y       z     vdW  Elec       q    Type
REMARK                         _______ _______ _______ _____ _____    ______ ____
ROOT
ATOM      1  C   UNL     1       5.205   4.606  16.347  0.00  0.00    +0.000 A 
ATOM      2  C   UNL     1       4.552   3.616  17.104  0.00  0.00    +0.000 A 
ATOM      3  C   UNL     1       3.438   3.921  17.893  0.00  0.00    +0.000 A 
ATOM      4  C   UNL     1       3.117   5.276  18.095  0.00  0.00    +0.000 A 
ATOM      5  C   UNL     1       3.814   6.276  17.419  0.00  0.00    +0.000 A 
ATOM      6 CL   UNL     1       3.320   7.919  17.603  0.00  0.00    +0.000 Cl
ATOM      7  C   UNL     1       4.829   5.939  16.518  0.00  0.00    +0.000 A 
ENDROOT
BRANCH   3   8
ATOM      8  C   UNL     1       2.400   2.868  18.275  0.00  0.00    +0.000 C 
ATOM      9  C   UNL     1       3.038   1.960  19.349  0.00  0.00    +0.000 C 
ATOM     10  C   UNL     1       3.054   2.618  20.727  0.00  0.00    +0.000 C 
ATOM     11  C   UNL     1       1.629   2.884  21.188  0.00  0.00    +0.000 C 
ATOM     12  C   UNL     1       0.833   3.729  20.199  0.00  0.00    +0.000 C 
ATOM     13  C   UNL     1       0.999   3.334  18.725  0.00  0.00    +0.000 C 
ENDBRANCH   3   8
BRANCH   7  14
ATOM     14  O   UNL     1       5.426   6.902  15.746  0.00  0.00    +0.000 OA
ATOM     15  H   UNL     1       6.022   6.440  15.126  0.00  0.00    +0.000 HD
ENDBRANCH   7  14
BRANCH   1  16
ATOM     16  C   UNL     1       6.169   4.167  15.273  0.00  0.00    +0.000 C 
BRANCH  16  17
ATOM     17  N   UNL     1       7.476   4.803  15.479  0.00  0.00    +0.000 NA
ATOM     18  H   UNL     1       8.016   4.739  14.615  0.00  0.00    +0.000 HD
ATOM     19  H   UNL     1       7.987   4.259  16.180  0.00  0.00    +0.000 HD
ENDBRANCH  16  17
ENDBRANCH   1  16
TORSDOF 4
ENDMDL
MODEL 4
REMARK VINA RESULT:      -7.0      2.331      3.167
REMARK  Name = 
REMARK  4 active torsions:
REMARK  status: ('A' for Active; 'I' for Inactive)
REMARK    1  A    between atoms: N_1  and  C_2
REMARK    2  A    between atoms: C_2  and  C_3
REMARK    3  A    between atoms: C_5  and  C_6
REMARK    4  A    between atoms: C_15  and  O_16
REMARK                            x       y       z     vdW  Elec       q    Type
REMARK                         _______ _______ _______ _____ _____    ______ ____
ROOT
ATOM      1  C   UNL     1       6.638   5.893  17.515  0.00  0.00    +0.000 A 
ATOM      2  C   UNL     1       5.653   5.359  18.367  0.00  0.00    +0.000 A 
ATOM      3  C   UNL     1       4.872   4.266  17.979  0.00  0.00    +0.000 A 
ATOM      4  C   UNL     1       4.931   3.849  16.637  0.00  0.00    +0.000 A 
ATOM      5  C   UNL     1       5.842   4.430  15.755  0.00  0.00    +0.000 A 
ATOM      6 CL   UNL     1       5.966   3.817  14.147  0.00  0.00    +0.000 Cl
ATOM      7  C   UNL     1       6.718   5.422  16.205  0.00  0.00    +0.000 A 
ENDROOT
BRANCH   3   8
ATOM      8  C   UNL     1       4.215   3.335  18.996  0.00  0.00    +0.000 C 
ATOM      9  C   UNL     1       3.246   4.188  19.845  0.00  0.00    +0.000 C 
ATOM     10  C   UNL     1       1.946   4.494  19.104  0.00  0.00    +0.000 C 
ATOM     11  C   UNL     1       1.211   3.199  18.796  0.00  0.00    +0.000 C 
ATOM     12  C   UNL     1       2.060   2.209  18.004  0.00  0.00    +0.000 C 
ATOM     13  C   UNL     1       3.509   2.060  18.490  0.00  0.00    +0.000 C 
ENDBRANCH   3   8
BRANCH   7  14
ATOM     14  O   UNL     1       7.709   5.901  15.386  0.00  0.00    +0.000 OA
ATOM     15  H   UNL     1       7.307   6.049  14.509  0.00  0.00    +0.000 HD
ENDBRANCH   7  14
BRANCH   1  16
ATOM     16  C   UNL     1       7.660   6.834  18.104  0.00  0.00    +0.000 C 
BRANCH  16  17
ATOM     17  N   UNL     1       7.750   8.052  17.290  0.00  0.00    +0.000 NA
ATOM     18  H   UNL     1       8.009   7.795  16.336  0.00  0.00    +0.000 HD
ATOM     19  H   UNL     1       8.519   8.622  17.654  0.00  0.00    +0.000 HD
ENDBRANCH  16  17
ENDBRANCH   1  16
TORSDOF 4
ENDMDL
MODEL 5
REMARK VINA RESULT:      -7.0      2.079      2.692
REMARK  Name = 
REMARK  4 active torsions:
REMARK  status: ('A' for Active; 'I' for Inactive)
REMARK    1  A    between atoms: N_1  and  C_2
REMARK    2  A    between atoms: C_2  and  C_3
REMARK    3  A    between atoms: C_5  and  C_6
REMARK    4  A    between atoms: C_15  and  O_16
REMARK                            x       y       z     vdW  Elec       q    Type
REMARK                         _______ _______ _______ _____ _____    ______ ____
ROOT
ATOM      1  C   UNL     1       6.261   5.273  18.423  0.00  0.00    +0.000 A 
ATOM      2  C   UNL     1       4.896   5.521  18.659  0.00  0.00    +0.000 A 
ATOM      3  C   UNL     1       3.912   5.074  17.771  0.00  0.00    +0.000 A 
ATOM      4  C   UNL     1       4.322   4.569  16.524  0.00  0.00    +0.000 A 
ATOM      5  C   UNL     1       5.677   4.400  16.240  0.00  0.00    +0.000 A 
ATOM      6 CL   UNL     1       6.139   3.673  14.744  0.00  0.00    +0.000 Cl
ATOM      7  C   UNL     1       6.640   4.715  17.202  0.00  0.00    +0.000 A 
ENDROOT
BRANCH   3   8
ATOM      8  C   UNL     1       2.471   4.827  18.212  0.00  0.00    +0.000 C 
ATOM      9  C   UNL     1       2.141   3.350  17.908  0.00  0.00    +0.000 C 
ATOM     10  C   UNL     1       2.746   2.398  18.938  0.00  0.00    +0.000 C 
ATOM     11  C   UNL     1       2.163   2.688  20.312  0.00  0.00    +0.000 C 
ATOM     12  C   UNL     1       2.354   4.138  20.744  0.00  0.00    +0.000 C 
ATOM     13  C   UNL     1       2.065   5.184  19.658  0.00  0.00    +0.000 C 
ENDBRANCH   3   8
BRANCH   7  14
ATOM     14  O   UNL     1       7.963   4.424  16.987  0.00  0.00    +0.000 OA
ATOM     15  H   UNL     1       8.009   3.901  16.164  0.00  0.00    +0.000 HD
ENDBRANCH   7  14
BRANCH   1  16
ATOM     16  C   UNL     1       7.233   5.475  19.560  0.00  0.00    +0.000 C 
BRANCH  16  17
ATOM     17  N   UNL     1       8.245   6.470  19.186  0.00  0.00    +0.000 NA
ATOM     18  H   UNL     1       8.475   7.034  20.005  0.00  0.00    +0.000 HD
ATOM     19  H   UNL     1       7.826   7.109  18.504  0.00  0.00    +0.000 HD
ENDBRANCH  16  17
ENDBRANCH   1  16
TORSDOF 4
ENDMDL
MODEL 6
REMARK VINA RESULT:      -7.0      2.612      3.571
REMARK  Name = 
REMARK  4 active torsions:
REMARK  status: ('A' for Active; 'I' for Inactive)
REMARK    1  A    between atoms: N_1  and  C_2
REMARK    2  A    between atoms: C_2  and  C_3
REMARK    3  A    between atoms: C_5  and  C_6
REMARK    4  A    between atoms: C_15  and  O_16
REMARK                            x       y       z     vdW  Elec       q    Type
REMARK                         _______ _______ _______ _____ _____    ______ ____
ROOT
ATOM      1  C   UNL     1       3.050   6.321  17.853  0.00  0.00    +0.000 A 
ATOM      2  C   UNL     1       2.203   5.208  18.017  0.00  0.00    +0.000 A 
ATOM      3  C   UNL     1       2.640   3.913  17.720  0.00  0.00    +0.000 A 
ATOM      4  C   UNL     1       3.863   3.762  17.042  0.00  0.00    +0.000 A 
ATOM      5  C   UNL     1       4.675   4.869  16.792  0.00  0.00    +0.000 A 
ATOM      6 CL   UNL     1       6.219   4.633  16.060  0.00  0.00    +0.000 Cl
ATOM      7  C   UNL     1       4.286   6.137  17.231  0.00  0.00    +0.000 A 
ENDROOT
BRANCH   3   8
ATOM      8  C   UNL     1       2.013   2.677  18.362  0.00  0.00    +0.000 C 
ATOM      9  C   UNL     1       3.131   1.940  19.132  0.00  0.00    +0.000 C 
ATOM     10  C   UNL     1       3.458   2.613  20.463  0.00  0.00    +0.000 C 
ATOM     11  C   UNL     1       2.235   2.591  21.366  0.00  0.00    +0.000 C 
ATOM     12  C   UNL     1       1.011   3.236  20.725  0.00  0.00    +0.000 C 
ATOM     13  C   UNL     1       0.769   2.855  19.257  0.00  0.00    +0.000 C 
ENDBRANCH   3   8
BRANCH   7  14
ATOM     14  O   UNL     1       5.136   7.208  17.116  0.00  0.00    +0.000 OA
ATOM     15  H   UNL     1       4.986   7.775  17.896  0.00  0.00    +0.000 HD
ENDBRANCH   7  14
BRANCH   1  16
ATOM     16  C   UNL     1       2.650   7.626  18.496  0.00  0.00    +0.000 C 
BRANCH  16  17
ATOM     17  N   UNL     1       2.396   8.638  17.464  0.00  0.00    +0.000 NA
ATOM     18  H   UNL     1       1.668   8.297  16.836  0.00  0.00    +0.000 HD
ATOM     19  H   UNL     1       3.244   8.734  16.898  0.00  0.00    +0.000 HD
ENDBRANCH  16  17
ENDBRANCH   1  16
TORSDOF 4
ENDMDL
MODEL 7
REMARK VINA RESULT:      -6.9      2.580      3.290
REMARK  Name = 
REMARK  4 active torsions:
REMARK  status: ('A' for Active; 'I' for Inactive)
REMARK    1  A    between atoms: N_1  and  C_2
REMARK    2  A    between atoms: C_2  and  C_3
REMARK    3  A    between atoms: C_5  and  C_6
REMARK    4  A    between atoms: C_15  and  O_16
REMARK                            x       y       z     vdW  Elec       q    Type
REMARK                         _______ _______ _______ _____ _____    ______ ____
ROOT
ATOM      1  C   UNL     1       6.735   5.704  18.532  0.00  0.00    +0.000 A 
ATOM      2  C   UNL     1       5.755   4.849  19.070  0.00  0.00    +0.000 A 
ATOM      3  C   UNL     1       4.600   4.525  18.350  0.00  0.00    +0.000 A 
ATOM      4  C   UNL     1       4.325   5.245  17.174  0.00  0.00    +0.000 A 
ATOM      5  C   UNL     1       5.248   6.164  16.675  0.00  0.00    +0.000 A 
ATOM      6 CL   UNL     1       4.929   6.946  15.169  0.00  0.00    +0.000 Cl
ATOM      7  C   UNL     1       6.465   6.363  17.332  0.00  0.00    +0.000 A 
ENDROOT
BRANCH   3   8
ATOM      8  C   UNL     1       3.811   3.244  18.614  0.00  0.00    +0.000 C 
ATOM      9  C   UNL     1       3.522   3.184  20.130  0.00  0.00    +0.000 C 
ATOM     10  C   UNL     1       2.380   4.113  20.538  0.00  0.00    +0.000 C 
ATOM     11  C   UNL     1       1.096   3.688  19.844  0.00  0.00    +0.000 C 
ATOM     12  C   UNL     1       1.231   3.638  18.325  0.00  0.00    +0.000 C 
ATOM     13  C   UNL     1       2.521   2.987  17.808  0.00  0.00    +0.000 C 
ENDBRANCH   3   8
BRANCH   7  14
ATOM     14  O   UNL     1       7.437   7.157  16.778  0.00  0.00    +0.000 OA
ATOM     15  H   UNL     1       6.992   7.960  16.446  0.00  0.00    +0.000 HD
ENDBRANCH   7  14
BRANCH   1  16
ATOM     16  C   UNL     1       8.089   5.748  19.196  0.00  0.00    +0.000 C 
BRANCH  16  17
ATOM     17  N   UNL     1       7.966   5.389  20.614  0.00  0.00    +0.000 NA
ATOM     18  H   UNL     1       7.312   6.031  21.063  0.00  0.00    +0.000 HD
ATOM     19  H   UNL     1       8.874   5.542  21.061  0.00  0.00    +0.000 HD
ENDBRANCH  16  17
ENDBRANCH   1  16
TORSDOF 4
ENDMDL
MODEL 8
REMARK VINA RESULT:      -6.7      1.201      1.760
REMARK  Name = 
REMARK  4 active torsions:
REMARK  status: ('A' for Active; 'I' for Inactive)
REMARK    1  A    between atoms: N_1  and  C_2
REMARK    2  A    between atoms: C_2  and  C_3
REMARK    3  A    between atoms: C_5  and  C_6
REMARK    4  A    between atoms: C_15  and  O_16
REMARK                            x       y       z     vdW  Elec       q    Type
REMARK                         _______ _______ _______ _____ _____    ______ ____
ROOT
ATOM      1  C   UNL     1       5.684   4.582  16.351  0.00  0.00    +0.000 A 
ATOM      2  C   UNL     1       4.839   4.005  17.317  0.00  0.00    +0.000 A 
ATOM      3  C   UNL     1       4.896   4.396  18.658  0.00  0.00    +0.000 A 
ATOM      4  C   UNL     1       5.965   5.213  19.068  0.00  0.00    +0.000 A 
ATOM      5  C   UNL     1       6.866   5.722  18.133  0.00  0.00    +0.000 A 
ATOM      6 CL   UNL     1       8.098   6.811  18.656  0.00  0.00    +0.000 Cl
ATOM      7  C   UNL     1       6.702   5.438  16.774  0.00  0.00    +0.000 A 
ENDROOT
BRANCH   3   8
ATOM      8  C   UNL     1       3.706   4.236  19.602  0.00  0.00    +0.000 C 
ATOM      9  C   UNL     1       2.567   5.130  19.066  0.00  0.00    +0.000 C 
ATOM     10  C   UNL     1       1.855   4.503  17.869  0.00  0.00    +0.000 C 
ATOM     11  C   UNL     1       1.205   3.192  18.283  0.00  0.00    +0.000 C 
ATOM     12  C   UNL     1       2.196   2.207  18.895  0.00  0.00    +0.000 C 
ATOM     13  C   UNL     1       3.182   2.816  19.902  0.00  0.00    +0.000 C 
ENDBRANCH   3   8
BRANCH   7  14
ATOM     14  O   UNL     1       7.495   6.043  15.833  0.00  0.00    +0.000 OA
ATOM     15  H   UNL     1       6.902   6.377  15.134  0.00  0.00    +0.000 HD
ENDBRANCH   7  14
BRANCH   1  16
ATOM     16  C   UNL     1       5.354   4.373  14.893  0.00  0.00    +0.000 C 
BRANCH  16  17
ATOM     17  N   UNL     1       6.430   3.623  14.235  0.00  0.00    +0.000 NA
ATOM     18  H   UNL     1       6.190   3.491  13.252  0.00  0.00    +0.000 HD
ATOM     19  H   UNL     1       6.467   2.689  14.652  0.00  0.00    +0.000 HD
ENDBRANCH  16  17
ENDBRANCH   1  16
TORSDOF 4
ENDMDL
MODEL 9
REMARK VINA RESULT:      -6.6      1.234      1.234
REMARK  Name = 
REMARK  4 active torsions:
REMARK  status: ('A' for Active; 'I' for Inactive)
REMARK    1  A    between atoms: N_1  and  C_2
REMARK    2  A    between atoms: C_2  and  C_3
REMARK    3  A    between atoms: C_5  and  C_6
REMARK    4  A    between atoms: C_15  and  O_16
REMARK                            x       y       z     vdW  Elec       q    Type
REMARK                         _______ _______ _______ _____ _____    ______ ____
ROOT
ATOM      1  C   UNL     1       5.640   4.410  15.980  0.00  0.00    +0.000 A 
ATOM      2  C   UNL     1       4.435   4.341  16.704  0.00  0.00    +0.000 A 
ATOM      3  C   UNL     1       4.040   5.375  17.558  0.00  0.00    +0.000 A 
ATOM      4  C   UNL     1       4.973   6.385  17.856  0.00  0.00    +0.000 A 
ATOM      5  C   UNL     1       6.210   6.418  17.212  0.00  0.00    +0.000 A 
ATOM      6 CL   UNL     1       7.284   7.733  17.518  0.00  0.00    +0.000 Cl
ATOM      7  C   UNL     1       6.525   5.455  16.249  0.00  0.00    +0.000 A 
ENDROOT
BRANCH   3   8
ATOM      8  C   UNL     1       2.576   5.615  17.921  0.00  0.00    +0.000 C 
ATOM      9  C   UNL     1       1.830   4.275  17.738  0.00  0.00    +0.000 C 
ATOM     10  C   UNL     1       2.083   3.310  18.894  0.00  0.00    +0.000 C 
ATOM     11  C   UNL     1       1.564   3.911  20.191  0.00  0.00    +0.000 C 
ATOM     12  C   UNL     1       2.165   5.280  20.493  0.00  0.00    +0.000 C 
ATOM     13  C   UNL     1       2.243   6.235  19.293  0.00  0.00    +0.000 C 
ENDBRANCH   3   8
BRANCH   7  14
ATOM     14  O   UNL     1       7.677   5.556  15.511  0.00  0.00    +0.000 OA
ATOM     15  H   UNL     1       7.474   5.213  14.620  0.00  0.00    +0.000 HD
ENDBRANCH   7  14
BRANCH   1  16
ATOM     16  C   UNL     1       5.848   3.444  14.840  0.00  0.00    +0.000 C 
BRANCH  16  17
ATOM     17  N   UNL     1       6.082   4.180  13.592  0.00  0.00    +0.000 NA
ATOM     18  H   UNL     1       6.564   3.569  12.932  0.00  0.00    +0.000 HD
ATOM     19  H   UNL     1       6.726   4.951  13.794  0.00  0.00    +0.000 HD
ENDBRANCH  16  17
ENDBRANCH   1  16
TORSDOF 4
ENDMDL
