MODEL 1
REMARK VINA RESULT:      -7.4      0.000      0.000
REMARK  Name = 
REMARK  8 active torsions:
REMARK  status: ('A' for Active; 'I' for Inactive)
REMARK    1  A    between atoms: C_1  and  C_2
REMARK    2  A    between atoms: N_4  and  C_5
REMARK    3  A    between atoms: C_5  and  C_6
REMARK    4  A    between atoms: C_5  and  C_7
REMARK    5  A    between atoms: N_11  and  C_12
REMARK    6  A    between atoms: C_12  and  C_13
REMARK    7  A    between atoms: C_16  and  C_17
REMARK    8  A    between atoms: C_17  and  O_19
REMARK                            x       y       z     vdW  Elec       q    Type
REMARK                         _______ _______ _______ _____ _____    ______ ____
ROOT
ATOM      1  C   UNL     1       6.360   4.247  15.742  0.00  0.00    +0.000 C 
ATOM      2  C   UNL     1       7.237   4.528  16.725  0.00  0.00    +0.000 C 
ATOM      3  C   UNL     1       6.794   4.711  18.144  0.00  0.00    +0.000 C 
ATOM      4  C   UNL     1       5.288   4.994  18.254  0.00  0.00    +0.000 C 
ATOM      5  N   UNL     1       4.499   4.031  17.469  0.00  0.00    +0.000 NA
ATOM      6  C   UNL     1       4.880   4.078  16.037  0.00  0.00    +0.000 C 
ENDROOT
BRANCH   1   7
ATOM      7  C   UNL     1       6.812   4.140  14.292  0.00  0.00    +0.000 C 
ATOM      8  C   UNL     1       7.616   5.369  13.859  0.00  0.00    +0.000 C 
BRANCH   7  12
ATOM      9  C   UNL     1       4.363   3.158  11.579  0.00  0.00    +0.000 C 
ATOM     10  C   UNL     1       5.707   3.310  12.240  0.00  0.00    +0.000 C 
ATOM     11  O   UNL     1       6.742   2.909  11.724  0.00  0.00    +0.000 OA
ATOM     12  N   UNL     1       5.636   3.930  13.467  0.00  0.00    +0.000 N 
ATOM     13  H   UNL     1       4.731   3.955  13.919  0.00  0.00    +0.000 HD
ENDBRANCH   7  12
ENDBRANCH   1   7
BRANCH   5  14
ATOM     14  C   UNL     1       3.052   4.310  17.567  0.00  0.00    +0.000 C 
BRANCH  14  15
ATOM     15  C   UNL     1       2.670   5.434  18.510  0.00  0.00    +0.000 A 
ATOM     16  C   UNL     1       2.675   6.762  18.060  0.00  0.00    +0.000 A 
ATOM     17  C   UNL     1       2.241   7.797  18.888  0.00  0.00    +0.000 A 
ATOM     18  C   UNL     1       1.789   7.521  20.185  0.00  0.00    +0.000 A 
ATOM     19  C   UNL     1       1.787   6.198  20.646  0.00  0.00    +0.000 A 
ATOM     20  C   UNL     1       2.237   5.164  19.815  0.00  0.00    +0.000 A 
BRANCH  18  21
ATOM     21  C   UNL     1       1.268   8.663  20.988  0.00  0.00    +0.000 C 
ATOM     22  O   UNL     1       0.475   9.473  20.537  0.00  0.00    +0.000 OA
BRANCH  21  23
ATOM     23  O   UNL     1       1.760   8.745  22.241  0.00  0.00    +0.000 OA
ATOM     24  H   UNL     1       1.536   8.003  22.828  0.00  0.00    +0.000 HD
ENDBRANCH  21  23
ENDBRANCH  18  21
ENDBRANCH  14  15
ENDBRANCH   5  14
TORSDOF 6
ENDMDL
MODEL 2
REMARK VINA RESULT:      -7.3      2.817      4.302
REMARK  Name = 
REMARK  8 active torsions:
REMARK  status: ('A' for Active; 'I' for Inactive)
REMARK    1  A    between atoms: C_1  and  C_2
REMARK    2  A    between atoms: N_4  and  C_5
REMARK    3  A    between atoms: C_5  and  C_6
REMARK    4  A    between atoms: C_5  and  C_7
REMARK    5  A    between atoms: N_11  and  C_12
REMARK    6  A    between atoms: C_12  and  C_13
REMARK    7  A    between atoms: C_16  and  C_17
REMARK    8  A    between atoms: C_17  and  O_19
REMARK                            x       y       z     vdW  Elec       q    Type
REMARK                         _______ _______ _______ _____ _____    ______ ____
ROOT
ATOM      1  C   UNL     1       4.231   4.838  17.167  0.00  0.00    +0.000 C 
ATOM      2  C   UNL     1       3.482   3.736  16.968  0.00  0.00    +0.000 C 
ATOM      3  C   UNL     1       2.194   3.519  17.700  0.00  0.00    +0.000 C 
ATOM      4  C   UNL     1       2.081   4.398  18.956  0.00  0.00    +0.000 C 
ATOM      5  N   UNL     1       2.407   5.802  18.663  0.00  0.00    +0.000 NA
ATOM      6  C   UNL     1       3.785   5.924  18.130  0.00  0.00    +0.000 C 
ENDROOT
BRANCH   1   7
ATOM      7  C   UNL     1       5.575   5.010  16.475  0.00  0.00    +0.000 C 
ATOM      8  C   UNL     1       5.955   3.770  15.661  0.00  0.00    +0.000 C 
BRANCH   7  12
ATOM      9  C   UNL     1       8.149   6.687  18.686  0.00  0.00    +0.000 C 
ATOM     10  C   UNL     1       7.194   6.556  17.529  0.00  0.00    +0.000 C 
ATOM     11  O   UNL     1       7.007   7.461  16.726  0.00  0.00    +0.000 OA
ATOM     12  N   UNL     1       6.566   5.332  17.486  0.00  0.00    +0.000 N 
ATOM     13  H   UNL     1       6.569   4.782  18.336  0.00  0.00    +0.000 HD
ENDBRANCH   7  12
ENDBRANCH   1   7
BRANCH   5  14
ATOM     14  C   UNL     1       2.308   6.644  19.873  0.00  0.00    +0.000 C 
BRANCH  14  15
ATOM     15  C   UNL     1       1.762   8.041  19.650  0.00  0.00    +0.000 A 
ATOM     16  C   UNL     1       1.861   8.640  18.385  0.00  0.00    +0.000 A 
ATOM     17  C   UNL     1       1.285   9.887  18.142  0.00  0.00    +0.000 A 
ATOM     18  C   UNL     1       0.597  10.558  19.161  0.00  0.00    +0.000 A 
ATOM     19  C   UNL     1       0.501   9.970  20.428  0.00  0.00    +0.000 A 
ATOM     20  C   UNL     1       1.091   8.724  20.672  0.00  0.00    +0.000 A 
BRANCH  18  21
ATOM     21  C   UNL     1      -0.059  11.849  18.811  0.00  0.00    +0.000 C 
ATOM     22  O   UNL     1      -1.200  12.118  19.147  0.00  0.00    +0.000 OA
BRANCH  21  23
ATOM     23  O   UNL     1       0.698  12.687  18.073  0.00  0.00    +0.000 OA
ATOM     24  H   UNL     1       0.912  12.378  17.176  0.00  0.00    +0.000 HD
ENDBRANCH  21  23
ENDBRANCH  18  21
ENDBRANCH  14  15
ENDBRANCH   5  14
TORSDOF 6
ENDMDL
MODEL 3
REMARK VINA RESULT:      -7.2      3.674      5.055
REMARK  Name = 
REMARK  8 active torsions:
REMARK  status: ('A' for Active; 'I' for Inactive)
REMARK    1  A    between atoms: C_1  and  C_2
REMARK    2  A    between atoms: N_4  and  C_5
REMARK    3  A    between atoms: C_5  and  C_6
REMARK    4  A    between atoms: C_5  and  C_7
REMARK    5  A    between atoms: N_11  and  C_12
REMARK    6  A    between atoms: C_12  and  C_13
REMARK    7  A    between atoms: C_16  and  C_17
REMARK    8  A    between atoms: C_17  and  O_19
REMARK                            x       y       z     vdW  Elec       q    Type
REMARK                         _______ _______ _______ _____ _____    ______ ____
ROOT
ATOM      1  C   UNL     1       4.113   4.439  18.345  0.00  0.00    +0.000 C 
ATOM      2  C   UNL     1       5.322   4.725  17.824  0.00  0.00    +0.000 C 
ATOM      3  C   UNL     1       5.669   6.104  17.353  0.00  0.00    +0.000 C 
ATOM      4  C   UNL     1       4.422   6.969  17.109  0.00  0.00    +0.000 C 
ATOM      5  N   UNL     1       3.492   6.909  18.248  0.00  0.00    +0.000 NA
ATOM      6  C   UNL     1       3.053   5.516  18.500  0.00  0.00    +0.000 C 
ENDROOT
BRANCH   1   7
ATOM      7  C   UNL     1       3.747   3.019  18.748  0.00  0.00    +0.000 C 
ATOM      8  C   UNL     1       3.501   2.130  17.525  0.00  0.00    +0.000 C 
BRANCH   7  12
ATOM      9  C   UNL     1       1.353   2.876  21.676  0.00  0.00    +0.000 C 
ATOM     10  C   UNL     1       2.653   2.682  20.941  0.00  0.00    +0.000 C 
ATOM     11  O   UNL     1       3.651   2.221  21.481  0.00  0.00    +0.000 OA
ATOM     12  N   UNL     1       2.592   3.081  19.625  0.00  0.00    +0.000 N 
ATOM     13  H   UNL     1       1.835   3.701  19.367  0.00  0.00    +0.000 HD
ENDBRANCH   7  12
ENDBRANCH   1   7
BRANCH   5  14
ATOM     14  C   UNL     1       2.290   7.732  18.007  0.00  0.00    +0.000 C 
BRANCH  14  15
ATOM     15  C   UNL     1       1.720   8.424  19.230  0.00  0.00    +0.000 A 
ATOM     16  C   UNL     1       1.129   9.690  19.110  0.00  0.00    +0.000 A 
ATOM     17  C   UNL     1       0.522  10.300  20.208  0.00  0.00    +0.000 A 
ATOM     18  C   UNL     1       0.492   9.650  21.449  0.00  0.00    +0.000 A 
ATOM     19  C   UNL     1       1.087   8.389  21.580  0.00  0.00    +0.000 A 
ATOM     20  C   UNL     1       1.707   7.787  20.478  0.00  0.00    +0.000 A 
BRANCH  18  21
ATOM     21  C   UNL     1      -0.239  10.324  22.559  0.00  0.00    +0.000 C 
ATOM     22  O   UNL     1      -0.258  11.536  22.691  0.00  0.00    +0.000 OA
BRANCH  21  23
ATOM     23  O   UNL     1      -0.857   9.488  23.419  0.00  0.00    +0.000 OA
ATOM     24  H   UNL     1      -0.385   9.320  24.251  0.00  0.00    +0.000 HD
ENDBRANCH  21  23
ENDBRANCH  18  21
ENDBRANCH  14  15
ENDBRANCH   5  14
TORSDOF 6
ENDMDL
MODEL 4
REMARK VINA RESULT:      -7.2      2.776      4.413
REMARK  Name = 
REMARK  8 active torsions:
REMARK  status: ('A' for Active; 'I' for Inactive)
REMARK    1  A    between atoms: C_1  and  C_2
REMARK    2  A    between atoms: N_4  and  C_5
REMARK    3  A    between atoms: C_5  and  C_6
REMARK    4  A    between atoms: C_5  and  C_7
REMARK    5  A    between atoms: N_11  and  C_12
REMARK    6  A    between atoms: C_12  and  C_13
REMARK    7  A    between atoms: C_16  and  C_17
REMARK    8  A    between atoms: C_17  and  O_19
REMARK                            x       y       z     vdW  Elec       q    Type
REMARK                         _______ _______ _______ _____ _____    ______ ____
ROOT
ATOM      1  C   UNL     1       4.218   4.835  17.140  0.00  0.00    +0.000 C 
ATOM      2  C   UNL     1       3.473   3.728  16.956  0.00  0.00    +0.000 C 
ATOM      3  C   UNL     1       2.182   3.520  17.687  0.00  0.00    +0.000 C 
ATOM      4  C   UNL     1       2.062   4.419  18.928  0.00  0.00    +0.000 C 
ATOM      5  N   UNL     1       2.386   5.819  18.613  0.00  0.00    +0.000 NA
ATOM      6  C   UNL     1       3.766   5.936  18.084  0.00  0.00    +0.000 C 
ENDROOT
BRANCH   1   7
ATOM      7  C   UNL     1       5.565   4.999  16.451  0.00  0.00    +0.000 C 
ATOM      8  C   UNL     1       5.930   3.765  15.623  0.00  0.00    +0.000 C 
BRANCH   7  12
ATOM      9  C   UNL     1       8.136   6.627  18.702  0.00  0.00    +0.000 C 
ATOM     10  C   UNL     1       7.175   6.525  17.548  0.00  0.00    +0.000 C 
ATOM     11  O   UNL     1       6.973   7.454  16.776  0.00  0.00    +0.000 OA
ATOM     12  N   UNL     1       6.559   5.297  17.467  0.00  0.00    +0.000 N 
ATOM     13  H   UNL     1       6.574   4.719  18.297  0.00  0.00    +0.000 HD
ENDBRANCH   7  12
ENDBRANCH   1   7
BRANCH   5  14
ATOM     14  C   UNL     1       2.280   6.680  19.809  0.00  0.00    +0.000 C 
BRANCH  14  15
ATOM     15  C   UNL     1       1.738   8.074  19.560  0.00  0.00    +0.000 A 
ATOM     16  C   UNL     1       1.145   8.794  20.607  0.00  0.00    +0.000 A 
ATOM     17  C   UNL     1       0.722  10.110  20.416  0.00  0.00    +0.000 A 
ATOM     18  C   UNL     1       0.890  10.731  19.172  0.00  0.00    +0.000 A 
ATOM     19  C   UNL     1       1.475  10.017  18.119  0.00  0.00    +0.000 A 
ATOM     20  C   UNL     1       1.885   8.692  18.312  0.00  0.00    +0.000 A 
BRANCH  18  21
ATOM     21  C   UNL     1       0.487  12.162  19.060  0.00  0.00    +0.000 C 
ATOM     22  O   UNL     1       0.716  12.978  19.937  0.00  0.00    +0.000 OA
BRANCH  21  23
ATOM     23  O   UNL     1      -0.171  12.477  17.926  0.00  0.00    +0.000 OA
ATOM     24  H   UNL     1      -1.123  12.284  17.926  0.00  0.00    +0.000 HD
ENDBRANCH  21  23
ENDBRANCH  18  21
ENDBRANCH  14  15
ENDBRANCH   5  14
TORSDOF 6
ENDMDL
MODEL 5
REMARK VINA RESULT:      -7.2      3.702      5.125
REMARK  Name = 
REMARK  8 active torsions:
REMARK  status: ('A' for Active; 'I' for Inactive)
REMARK    1  A    between atoms: C_1  and  C_2
REMARK    2  A    between atoms: N_4  and  C_5
REMARK    3  A    between atoms: C_5  and  C_6
REMARK    4  A    between atoms: C_5  and  C_7
REMARK    5  A    between atoms: N_11  and  C_12
REMARK    6  A    between atoms: C_12  and  C_13
REMARK    7  A    between atoms: C_16  and  C_17
REMARK    8  A    between atoms: C_17  and  O_19
REMARK                            x       y       z     vdW  Elec       q    Type
REMARK                         _______ _______ _______ _____ _____    ______ ____
ROOT
ATOM      1  C   UNL     1       4.234   4.545  18.438  0.00  0.00    +0.000 C 
ATOM      2  C   UNL     1       5.481   4.830  18.016  0.00  0.00    +0.000 C 
ATOM      3  C   UNL     1       5.858   6.203  17.551  0.00  0.00    +0.000 C 
ATOM      4  C   UNL     1       4.631   7.054  17.187  0.00  0.00    +0.000 C 
ATOM      5  N   UNL     1       3.609   7.008  18.245  0.00  0.00    +0.000 NA
ATOM      6  C   UNL     1       3.158   5.616  18.484  0.00  0.00    +0.000 C 
ENDROOT
BRANCH   1   7
ATOM      7  C   UNL     1       3.843   3.128  18.834  0.00  0.00    +0.000 C 
ATOM      8  C   UNL     1       3.614   2.242  17.606  0.00  0.00    +0.000 C 
BRANCH   7  12
ATOM      9  C   UNL     1       1.367   2.945  21.691  0.00  0.00    +0.000 C 
ATOM     10  C   UNL     1       2.672   2.721  20.975  0.00  0.00    +0.000 C 
ATOM     11  O   UNL     1       3.627   2.167  21.506  0.00  0.00    +0.000 OA
ATOM     12  N   UNL     1       2.670   3.205  19.686  0.00  0.00    +0.000 N 
ATOM     13  H   UNL     1       1.958   3.884  19.451  0.00  0.00    +0.000 HD
ENDBRANCH   7  12
ENDBRANCH   1   7
BRANCH   5  14
ATOM     14  C   UNL     1       2.426   7.818  17.889  0.00  0.00    +0.000 C 
BRANCH  14  15
ATOM     15  C   UNL     1       1.658   8.396  19.061  0.00  0.00    +0.000 A 
ATOM     16  C   UNL     1       1.805   7.840  20.340  0.00  0.00    +0.000 A 
ATOM     17  C   UNL     1       1.174   8.415  21.443  0.00  0.00    +0.000 A 
ATOM     18  C   UNL     1       0.385   9.562  21.287  0.00  0.00    +0.000 A 
ATOM     19  C   UNL     1       0.227  10.120  20.012  0.00  0.00    +0.000 A 
ATOM     20  C   UNL     1       0.852   9.531  18.905  0.00  0.00    +0.000 A 
BRANCH  18  21
ATOM     21  C   UNL     1      -0.196  10.169  22.518  0.00  0.00    +0.000 C 
ATOM     22  O   UNL     1      -0.161  11.368  22.737  0.00  0.00    +0.000 OA
BRANCH  21  23
ATOM     23  O   UNL     1      -0.739   9.287  23.381  0.00  0.00    +0.000 OA
ATOM     24  H   UNL     1      -0.982   8.425  23.003  0.00  0.00    +0.000 HD
ENDBRANCH  21  23
ENDBRANCH  18  21
ENDBRANCH  14  15
ENDBRANCH   5  14
TORSDOF 6
ENDMDL
MODEL 6
REMARK VINA RESULT:      -7.1      2.920      8.932
REMARK  Name = 
REMARK  8 active torsions:
REMARK  status: ('A' for Active; 'I' for Inactive)
REMARK    1  A    between atoms: C_1  and  C_2
REMARK    2  A    between atoms: N_4  and  C_5
REMARK    3  A    between atoms: C_5  and  C_6
REMARK    4  A    between atoms: C_5  and  C_7
REMARK    5  A    between atoms: N_11  and  C_12
REMARK    6  A    between atoms: C_12  and  C_13
REMARK    7  A    between atoms: C_16  and  C_17
REMARK    8  A    between atoms: C_17  and  O_19
REMARK                            x       y       z     vdW  Elec       q    Type
REMARK                         _______ _______ _______ _____ _____    ______ ____
ROOT
ATOM      1  C   UNL     1       1.111   8.914  20.005  0.00  0.00    +0.000 C 
ATOM      2  C   UNL     1       1.066   9.585  18.838  0.00  0.00    +0.000 C 
ATOM      3  C   UNL     1       1.807   9.106  17.628  0.00  0.00    +0.000 C 
ATOM      4  C   UNL     1       2.920   8.106  17.982  0.00  0.00    +0.000 C 
ATOM      5  N   UNL     1       2.429   7.047  18.877  0.00  0.00    +0.000 NA
ATOM      6  C   UNL     1       1.900   7.623  20.136  0.00  0.00    +0.000 C 
ENDROOT
BRANCH   1   7
ATOM      7  C   UNL     1       0.417   9.452  21.248  0.00  0.00    +0.000 C 
ATOM      8  C   UNL     1      -0.398   8.366  21.955  0.00  0.00    +0.000 C 
BRANCH   7  12
ATOM      9  C   UNL     1      -1.513  12.704  21.097  0.00  0.00    +0.000 C 
ATOM     10  C   UNL     1      -0.693  11.611  21.728  0.00  0.00    +0.000 C 
ATOM     11  O   UNL     1      -0.331  11.652  22.897  0.00  0.00    +0.000 OA
ATOM     12  N   UNL     1      -0.399  10.587  20.856  0.00  0.00    +0.000 N 
ATOM     13  H   UNL     1      -0.490  10.784  19.867  0.00  0.00    +0.000 HD
ENDBRANCH   7  12
ENDBRANCH   1   7
BRANCH   5  14
ATOM     14  C   UNL     1       3.502   6.093  19.225  0.00  0.00    +0.000 C 
BRANCH  14  15
ATOM     15  C   UNL     1       4.399   5.678  18.075  0.00  0.00    +0.000 A 
ATOM     16  C   UNL     1       4.000   4.651  17.207  0.00  0.00    +0.000 A 
ATOM     17  C   UNL     1       4.773   4.319  16.095  0.00  0.00    +0.000 A 
ATOM     18  C   UNL     1       5.961   5.011  15.828  0.00  0.00    +0.000 A 
ATOM     19  C   UNL     1       6.371   6.033  16.694  0.00  0.00    +0.000 A 
ATOM     20  C   UNL     1       5.598   6.355  17.817  0.00  0.00    +0.000 A 
BRANCH  18  21
ATOM     21  C   UNL     1       6.696   4.657  14.582  0.00  0.00    +0.000 C 
ATOM     22  O   UNL     1       6.348   3.745  13.851  0.00  0.00    +0.000 OA
BRANCH  21  23
ATOM     23  O   UNL     1       7.791   5.407  14.338  0.00  0.00    +0.000 OA
ATOM     24  H   UNL     1       8.445   5.011  13.738  0.00  0.00    +0.000 HD
ENDBRANCH  21  23
ENDBRANCH  18  21
ENDBRANCH  14  15
ENDBRANCH   5  14
TORSDOF 6
ENDMDL
MODEL 7
REMARK VINA RESULT:      -7.1      2.905      4.896
REMARK  Name = 
REMARK  8 active torsions:
REMARK  status: ('A' for Active; 'I' for Inactive)
REMARK    1  A    between atoms: C_1  and  C_2
REMARK    2  A    between atoms: N_4  and  C_5
REMARK    3  A    between atoms: C_5  and  C_6
REMARK    4  A    between atoms: C_5  and  C_7
REMARK    5  A    between atoms: N_11  and  C_12
REMARK    6  A    between atoms: C_12  and  C_13
REMARK    7  A    between atoms: C_16  and  C_17
REMARK    8  A    between atoms: C_17  and  O_19
REMARK                            x       y       z     vdW  Elec       q    Type
REMARK                         _______ _______ _______ _____ _____    ______ ____
ROOT
ATOM      1  C   UNL     1       2.890   3.960  18.742  0.00  0.00    +0.000 C 
ATOM      2  C   UNL     1       2.086   3.330  19.620  0.00  0.00    +0.000 C 
ATOM      3  C   UNL     1       1.237   4.090  20.592  0.00  0.00    +0.000 C 
ATOM      4  C   UNL     1       1.716   5.538  20.779  0.00  0.00    +0.000 C 
ATOM      5  N   UNL     1       1.939   6.204  19.486  0.00  0.00    +0.000 NA
ATOM      6  C   UNL     1       2.951   5.477  18.685  0.00  0.00    +0.000 C 
ENDROOT
BRANCH   1   7
ATOM      7  C   UNL     1       3.806   3.177  17.813  0.00  0.00    +0.000 C 
ATOM      8  C   UNL     1       3.677   1.667  18.034  0.00  0.00    +0.000 C 
BRANCH   7  12
ATOM      9  C   UNL     1       7.259   4.679  17.431  0.00  0.00    +0.000 C 
ATOM     10  C   UNL     1       5.894   4.218  16.992  0.00  0.00    +0.000 C 
ATOM     11  O   UNL     1       5.495   4.351  15.842  0.00  0.00    +0.000 OA
ATOM     12  N   UNL     1       5.164   3.651  18.011  0.00  0.00    +0.000 N 
ATOM     13  H   UNL     1       5.461   3.850  18.957  0.00  0.00    +0.000 HD
ENDBRANCH   7  12
ENDBRANCH   1   7
BRANCH   5  14
ATOM     14  C   UNL     1       2.410   7.593  19.668  0.00  0.00    +0.000 C 
BRANCH  14  15
ATOM     15  C   UNL     1       1.383   8.670  19.378  0.00  0.00    +0.000 A 
ATOM     16  C   UNL     1       0.665   9.258  20.430  0.00  0.00    +0.000 A 
ATOM     17  C   UNL     1      -0.217  10.311  20.189  0.00  0.00    +0.000 A 
ATOM     18  C   UNL     1      -0.395  10.799  18.888  0.00  0.00    +0.000 A 
ATOM     19  C   UNL     1       0.312  10.213  17.831  0.00  0.00    +0.000 A 
ATOM     20  C   UNL     1       1.187   9.147  18.076  0.00  0.00    +0.000 A 
BRANCH  18  21
ATOM     21  C   UNL     1      -1.294  11.975  18.713  0.00  0.00    +0.000 C 
ATOM     22  O   UNL     1      -2.025  12.380  19.602  0.00  0.00    +0.000 OA
BRANCH  21  23
ATOM     23  O   UNL     1      -1.254  12.540  17.490  0.00  0.00    +0.000 OA
ATOM     24  H   UNL     1      -1.615  12.001  16.767  0.00  0.00    +0.000 HD
ENDBRANCH  21  23
ENDBRANCH  18  21
ENDBRANCH  14  15
ENDBRANCH   5  14
TORSDOF 6
ENDMDL
MODEL 8
REMARK VINA RESULT:      -7.0      2.201      3.610
REMARK  Name = 
REMARK  8 active torsions:
REMARK  status: ('A' for Active; 'I' for Inactive)
REMARK    1  A    between atoms: C_1  and  C_2
REMARK    2  A    between atoms: N_4  and  C_5
REMARK    3  A    between atoms: C_5  and  C_6
REMARK    4  A    between atoms: C_5  and  C_7
REMARK    5  A    between atoms: N_11  and  C_12
REMARK    6  A    between atoms: C_12  and  C_13
REMARK    7  A    between atoms: C_16  and  C_17
REMARK    8  A    between atoms: C_17  and  O_19
REMARK                            x       y       z     vdW  Elec       q    Type
REMARK                         _______ _______ _______ _____ _____    ______ ____
ROOT
ATOM      1  C   UNL     1       4.510   4.476  17.773  0.00  0.00    +0.000 C 
ATOM      2  C   UNL     1       3.634   3.586  17.269  0.00  0.00    +0.000 C 
ATOM      3  C   UNL     1       2.173   3.652  17.592  0.00  0.00    +0.000 C 
ATOM      4  C   UNL     1       1.889   4.494  18.846  0.00  0.00    +0.000 C 
ATOM      5  N   UNL     1       2.580   5.792  18.791  0.00  0.00    +0.000 NA
ATOM      6  C   UNL     1       4.046   5.606  18.675  0.00  0.00    +0.000 C 
ENDROOT
BRANCH   1   7
ATOM      7  C   UNL     1       6.002   4.352  17.501  0.00  0.00    +0.000 C 
ATOM      8  C   UNL     1       6.736   5.669  17.766  0.00  0.00    +0.000 C 
BRANCH   7  12
ATOM      9  C   UNL     1       6.325   4.055  13.741  0.00  0.00    +0.000 C 
ATOM     10  C   UNL     1       6.062   4.737  15.057  0.00  0.00    +0.000 C 
ATOM     11  O   UNL     1       5.783   5.927  15.137  0.00  0.00    +0.000 OA
ATOM     12  N   UNL     1       6.175   3.889  16.135  0.00  0.00    +0.000 N 
ATOM     13  H   UNL     1       6.682   3.025  15.990  0.00  0.00    +0.000 HD
ENDBRANCH   7  12
ENDBRANCH   1   7
BRANCH   5  14
ATOM     14  C   UNL     1       2.314   6.596  20.002  0.00  0.00    +0.000 C 
BRANCH  14  15
ATOM     15  C   UNL     1       1.777   7.991  19.751  0.00  0.00    +0.000 A 
ATOM     16  C   UNL     1       1.846   8.550  18.466  0.00  0.00    +0.000 A 
ATOM     17  C   UNL     1       1.276   9.795  18.200  0.00  0.00    +0.000 A 
ATOM     18  C   UNL     1       0.624  10.505  19.216  0.00  0.00    +0.000 A 
ATOM     19  C   UNL     1       0.557   9.958  20.504  0.00  0.00    +0.000 A 
ATOM     20  C   UNL     1       1.142   8.713  20.770  0.00  0.00    +0.000 A 
BRANCH  18  21
ATOM     21  C   UNL     1      -0.028  11.792  18.845  0.00  0.00    +0.000 C 
ATOM     22  O   UNL     1       0.003  12.775  19.566  0.00  0.00    +0.000 OA
BRANCH  21  23
ATOM     23  O   UNL     1      -0.677  11.777  17.662  0.00  0.00    +0.000 OA
ATOM     24  H   UNL     1      -0.427  11.060  17.056  0.00  0.00    +0.000 HD
ENDBRANCH  21  23
ENDBRANCH  18  21
ENDBRANCH  14  15
ENDBRANCH   5  14
TORSDOF 6
ENDMDL
MODEL 9
REMARK VINA RESULT:      -7.0      1.938      2.896
REMARK  Name = 
REMARK  8 active torsions:
REMARK  status: ('A' for Active; 'I' for Inactive)
REMARK    1  A    between atoms: C_1  and  C_2
REMARK    2  A    between atoms: N_4  and  C_5
REMARK    3  A    between atoms: C_5  and  C_6
REMARK    4  A    between atoms: C_5  and  C_7
REMARK    5  A    between atoms: N_11  and  C_12
REMARK    6  A    between atoms: C_12  and  C_13
REMARK    7  A    between atoms: C_16  and  C_17
REMARK    8  A    between atoms: C_17  and  O_19
REMARK                            x       y       z     vdW  Elec       q    Type
REMARK                         _______ _______ _______ _____ _____    ______ ____
ROOT
ATOM      1  C   UNL     1       4.507   4.625  16.920  0.00  0.00    +0.000 C 
ATOM      2  C   UNL     1       4.201   3.313  16.927  0.00  0.00    +0.000 C 
ATOM      3  C   UNL     1       3.274   2.728  17.948  0.00  0.00    +0.000 C 
ATOM      4  C   UNL     1       3.110   3.637  19.176  0.00  0.00    +0.000 C 
ATOM      5  N   UNL     1       2.818   5.025  18.786  0.00  0.00    +0.000 NA
ATOM      6  C   UNL     1       3.903   5.575  17.939  0.00  0.00    +0.000 C 
ENDROOT
BRANCH   1   7
ATOM      7  C   UNL     1       5.510   5.193  15.927  0.00  0.00    +0.000 C 
ATOM      8  C   UNL     1       5.249   6.675  15.646  0.00  0.00    +0.000 C 
BRANCH   7  12
ATOM      9  C   UNL     1       6.220   3.477  12.628  0.00  0.00    +0.000 C 
ATOM     10  C   UNL     1       6.455   4.429  13.771  0.00  0.00    +0.000 C 
ATOM     11  O   UNL     1       7.440   5.154  13.831  0.00  0.00    +0.000 OA
ATOM     12  N   UNL     1       5.460   4.385  14.721  0.00  0.00    +0.000 N 
ATOM     13  H   UNL     1       4.862   3.568  14.725  0.00  0.00    +0.000 HD
ENDBRANCH   7  12
ENDBRANCH   1   7
BRANCH   5  14
ATOM     14  C   UNL     1       2.670   5.899  19.968  0.00  0.00    +0.000 C 
BRANCH  14  15
ATOM     15  C   UNL     1       2.152   7.295  19.683  0.00  0.00    +0.000 A 
ATOM     16  C   UNL     1       2.284   7.845  18.400  0.00  0.00    +0.000 A 
ATOM     17  C   UNL     1       1.734   9.091  18.099  0.00  0.00    +0.000 A 
ATOM     18  C   UNL     1       1.038   9.810  19.079  0.00  0.00    +0.000 A 
ATOM     19  C   UNL     1       0.907   9.271  20.365  0.00  0.00    +0.000 A 
ATOM     20  C   UNL     1       1.473   8.026  20.666  0.00  0.00    +0.000 A 
BRANCH  18  21
ATOM     21  C   UNL     1       0.410  11.098  18.669  0.00  0.00    +0.000 C 
ATOM     22  O   UNL     1       0.815  12.180  19.062  0.00  0.00    +0.000 OA
BRANCH  21  23
ATOM     23  O   UNL     1      -0.656  10.973  17.852  0.00  0.00    +0.000 OA
ATOM     24  H   UNL     1      -0.863  11.754  17.312  0.00  0.00    +0.000 HD
ENDBRANCH  21  23
ENDBRANCH  18  21
ENDBRANCH  14  15
ENDBRANCH   5  14
TORSDOF 6
ENDMDL
