MODEL 1
REMARK VINA RESULT:      -7.2      0.000      0.000
REMARK  Name = 
REMARK  5 active torsions:
REMARK  status: ('A' for Active; 'I' for Inactive)
REMARK    1  A    between atoms: C_1  and  C_2
REMARK    2  A    between atoms: C_2  and  C_3
REMARK    3  A    between atoms: C_2  and  C_4
REMARK    4  A    between atoms: C_2  and  O_5
REMARK    5  A    between atoms: O_5  and  C_6
REMARK                            x       y       z     vdW  Elec       q    Type
REMARK                         _______ _______ _______ _____ _____    ______ ____
ROOT
ATOM      1  C   UNL     1       4.203   5.517  18.439  0.00  0.00    +0.000 A 
ATOM      2  C   UNL     1       3.648   6.782  18.226  0.00  0.00    +0.000 A 
ATOM      3  C   UNL     1       2.565   7.234  18.972  0.00  0.00    +0.000 A 
ATOM      4  C   UNL     1       2.003   6.403  19.914  0.00  0.00    +0.000 A 
ATOM      5  C   UNL     1       2.487   5.128  20.142  0.00  0.00    +0.000 A 
ATOM      6  N   UNL     1       1.811   4.412  21.030  0.00  0.00    +0.000 NA
ATOM      7  C   UNL     1       2.224   3.168  21.260  0.00  0.00    +0.000 A 
ATOM      8  N   UNL     1       1.477   2.423  22.141  0.00  0.00    +0.000 N 
ATOM      9  N   UNL     1       3.312   2.621  20.727  0.00  0.00    +0.000 NA
ATOM     10  C   UNL     1       3.991   3.362  19.836  0.00  0.00    +0.000 A 
ATOM     11  N   UNL     1       5.174   2.767  19.387  0.00  0.00    +0.000 N 
ATOM     12  C   UNL     1       3.608   4.665  19.437  0.00  0.00    +0.000 A 
ATOM     13  H   UNL     1       0.947   3.045  22.747  0.00  0.00    +0.000 HD
ATOM     14  H   UNL     1       2.036   1.713  22.580  0.00  0.00    +0.000 HD
ATOM     15  H   UNL     1       5.184   1.801  19.702  0.00  0.00    +0.000 HD
ATOM     16  H   UNL     1       5.304   2.887  18.388  0.00  0.00    +0.000 HD
ENDROOT
BRANCH   1  17
ATOM     17  O   UNL     1       5.267   5.019  17.711  0.00  0.00    +0.000 OA
BRANCH  17  19
ATOM     18  C   UNL     1       7.074   5.657  19.295  0.00  0.00    +0.000 C 
ATOM     19  C   UNL     1       6.610   5.553  17.829  0.00  0.00    +0.000 C 
ATOM     20  C   UNL     1       6.783   6.829  16.982  0.00  0.00    +0.000 C 
ATOM     21  C   UNL     1       7.561   4.510  17.190  0.00  0.00    +0.000 C 
ENDBRANCH  17  19
ENDBRANCH   1  17
TORSDOF 2
ENDMDL
MODEL 2
REMARK VINA RESULT:      -7.2      2.296      4.940
REMARK  Name = 
REMARK  5 active torsions:
REMARK  status: ('A' for Active; 'I' for Inactive)
REMARK    1  A    between atoms: C_1  and  C_2
REMARK    2  A    between atoms: C_2  and  C_3
REMARK    3  A    between atoms: C_2  and  C_4
REMARK    4  A    between atoms: C_2  and  O_5
REMARK    5  A    between atoms: O_5  and  C_6
REMARK                            x       y       z     vdW  Elec       q    Type
REMARK                         _______ _______ _______ _____ _____    ______ ____
ROOT
ATOM      1  C   UNL     1       3.351   5.447  19.331  0.00  0.00    +0.000 A 
ATOM      2  C   UNL     1       2.436   6.501  19.277  0.00  0.00    +0.000 A 
ATOM      3  C   UNL     1       2.545   7.509  18.325  0.00  0.00    +0.000 A 
ATOM      4  C   UNL     1       3.600   7.488  17.442  0.00  0.00    +0.000 A 
ATOM      5  C   UNL     1       4.556   6.490  17.472  0.00  0.00    +0.000 A 
ATOM      6  N   UNL     1       5.552   6.627  16.608  0.00  0.00    +0.000 NA
ATOM      7  C   UNL     1       6.511   5.705  16.622  0.00  0.00    +0.000 A 
ATOM      8  N   UNL     1       7.563   5.896  15.758  0.00  0.00    +0.000 N 
ATOM      9  N   UNL     1       6.499   4.613  17.380  0.00  0.00    +0.000 NA
ATOM     10  C   UNL     1       5.479   4.483  18.244  0.00  0.00    +0.000 A 
ATOM     11  N   UNL     1       5.475   3.270  18.940  0.00  0.00    +0.000 N 
ATOM     12  C   UNL     1       4.443   5.436  18.391  0.00  0.00    +0.000 A 
ATOM     13  H   UNL     1       7.273   6.507  15.000  0.00  0.00    +0.000 HD
ATOM     14  H   UNL     1       7.993   5.022  15.513  0.00  0.00    +0.000 HD
ATOM     15  H   UNL     1       6.363   2.804  18.772  0.00  0.00    +0.000 HD
ATOM     16  H   UNL     1       5.243   3.395  19.919  0.00  0.00    +0.000 HD
ENDROOT
BRANCH   1  17
ATOM     17  O   UNL     1       3.292   4.434  20.269  0.00  0.00    +0.000 OA
BRANCH  17  19
ATOM     18  C   UNL     1       2.284   2.442  19.175  0.00  0.00    +0.000 C 
ATOM     19  C   UNL     1       2.205   3.476  20.316  0.00  0.00    +0.000 C 
ATOM     20  C   UNL     1       0.844   4.179  20.484  0.00  0.00    +0.000 C 
ATOM     21  C   UNL     1       2.396   2.647  21.610  0.00  0.00    +0.000 C 
ENDBRANCH  17  19
ENDBRANCH   1  17
TORSDOF 2
ENDMDL
MODEL 3
REMARK VINA RESULT:      -7.2      2.293      4.922
REMARK  Name = 
REMARK  5 active torsions:
REMARK  status: ('A' for Active; 'I' for Inactive)
REMARK    1  A    between atoms: C_1  and  C_2
REMARK    2  A    between atoms: C_2  and  C_3
REMARK    3  A    between atoms: C_2  and  C_4
REMARK    4  A    between atoms: C_2  and  O_5
REMARK    5  A    between atoms: O_5  and  C_6
REMARK                            x       y       z     vdW  Elec       q    Type
REMARK                         _______ _______ _______ _____ _____    ______ ____
ROOT
ATOM      1  C   UNL     1       3.357   5.471  19.351  0.00  0.00    +0.000 A 
ATOM      2  C   UNL     1       2.453   6.536  19.292  0.00  0.00    +0.000 A 
ATOM      3  C   UNL     1       2.564   7.528  18.325  0.00  0.00    +0.000 A 
ATOM      4  C   UNL     1       3.609   7.482  17.430  0.00  0.00    +0.000 A 
ATOM      5  C   UNL     1       4.554   6.473  17.464  0.00  0.00    +0.000 A 
ATOM      6  N   UNL     1       5.541   6.586  16.587  0.00  0.00    +0.000 NA
ATOM      7  C   UNL     1       6.489   5.653  16.604  0.00  0.00    +0.000 A 
ATOM      8  N   UNL     1       7.534   5.819  15.726  0.00  0.00    +0.000 N 
ATOM      9  N   UNL     1       6.473   4.572  17.377  0.00  0.00    +0.000 NA
ATOM     10  C   UNL     1       5.461   4.467  18.255  0.00  0.00    +0.000 A 
ATOM     11  N   UNL     1       5.451   3.264  18.968  0.00  0.00    +0.000 N 
ATOM     12  C   UNL     1       4.438   5.434  18.399  0.00  0.00    +0.000 A 
ATOM     13  H   UNL     1       7.242   6.422  14.962  0.00  0.00    +0.000 HD
ATOM     14  H   UNL     1       7.951   4.936  15.488  0.00  0.00    +0.000 HD
ATOM     15  H   UNL     1       6.331   2.785  18.797  0.00  0.00    +0.000 HD
ATOM     16  H   UNL     1       5.231   3.406  19.947  0.00  0.00    +0.000 HD
ENDROOT
BRANCH   1  17
ATOM     17  O   UNL     1       3.296   4.473  20.304  0.00  0.00    +0.000 OA
BRANCH  17  19
ATOM     18  C   UNL     1       2.293   2.604  21.601  0.00  0.00    +0.000 C 
ATOM     19  C   UNL     1       2.219   3.503  20.351  0.00  0.00    +0.000 C 
ATOM     20  C   UNL     1       2.070   2.764  19.006  0.00  0.00    +0.000 C 
ATOM     21  C   UNL     1       0.905   4.304  20.521  0.00  0.00    +0.000 C 
ENDBRANCH  17  19
ENDBRANCH   1  17
TORSDOF 2
ENDMDL
MODEL 4
REMARK VINA RESULT:      -7.1      1.143      1.230
REMARK  Name = 
REMARK  5 active torsions:
REMARK  status: ('A' for Active; 'I' for Inactive)
REMARK    1  A    between atoms: C_1  and  C_2
REMARK    2  A    between atoms: C_2  and  C_3
REMARK    3  A    between atoms: C_2  and  C_4
REMARK    4  A    between atoms: C_2  and  O_5
REMARK    5  A    between atoms: O_5  and  C_6
REMARK                            x       y       z     vdW  Elec       q    Type
REMARK                         _______ _______ _______ _____ _____    ______ ____
ROOT
ATOM      1  C   UNL     1       3.531   5.274  17.840  0.00  0.00    +0.000 A 
ATOM      2  C   UNL     1       3.212   6.635  17.832  0.00  0.00    +0.000 A 
ATOM      3  C   UNL     1       2.567   7.235  18.908  0.00  0.00    +0.000 A 
ATOM      4  C   UNL     1       2.200   6.463  19.987  0.00  0.00    +0.000 A 
ATOM      5  C   UNL     1       2.456   5.106  20.033  0.00  0.00    +0.000 A 
ATOM      6  N   UNL     1       1.991   4.473  21.101  0.00  0.00    +0.000 NA
ATOM      7  C   UNL     1       2.189   3.159  21.174  0.00  0.00    +0.000 A 
ATOM      8  N   UNL     1       1.650   2.513  22.261  0.00  0.00    +0.000 N 
ATOM      9  N   UNL     1       2.892   2.451  20.296  0.00  0.00    +0.000 NA
ATOM     10  C   UNL     1       3.364   3.108  19.223  0.00  0.00    +0.000 A 
ATOM     11  N   UNL     1       4.173   2.327  18.391  0.00  0.00    +0.000 N 
ATOM     12  C   UNL     1       3.148   4.485  18.982  0.00  0.00    +0.000 A 
ATOM     13  H   UNL     1       1.499   3.181  23.012  0.00  0.00    +0.000 HD
ATOM     14  H   UNL     1       2.164   1.678  22.477  0.00  0.00    +0.000 HD
ATOM     15  H   UNL     1       4.089   1.358  18.684  0.00  0.00    +0.000 HD
ATOM     16  H   UNL     1       3.977   2.491  17.410  0.00  0.00    +0.000 HD
ENDROOT
BRANCH   1  17
ATOM     17  O   UNL     1       4.155   4.633  16.787  0.00  0.00    +0.000 OA
BRANCH  17  19
ATOM     18  C   UNL     1       6.493   5.073  17.508  0.00  0.00    +0.000 C 
ATOM     19  C   UNL     1       5.490   4.982  16.341  0.00  0.00    +0.000 C 
ATOM     20  C   UNL     1       5.464   6.193  15.388  0.00  0.00    +0.000 C 
ATOM     21  C   UNL     1       5.996   3.799  15.480  0.00  0.00    +0.000 C 
ENDBRANCH  17  19
ENDBRANCH   1  17
TORSDOF 2
ENDMDL
MODEL 5
REMARK VINA RESULT:      -7.1      2.292      4.932
REMARK  Name = 
REMARK  5 active torsions:
REMARK  status: ('A' for Active; 'I' for Inactive)
REMARK    1  A    between atoms: C_1  and  C_2
REMARK    2  A    between atoms: C_2  and  C_3
REMARK    3  A    between atoms: C_2  and  C_4
REMARK    4  A    between atoms: C_2  and  O_5
REMARK    5  A    between atoms: O_5  and  C_6
REMARK                            x       y       z     vdW  Elec       q    Type
REMARK                         _______ _______ _______ _____ _____    ______ ____
ROOT
ATOM      1  C   UNL     1       3.384   5.505  19.355  0.00  0.00    +0.000 A 
ATOM      2  C   UNL     1       2.474   6.564  19.285  0.00  0.00    +0.000 A 
ATOM      3  C   UNL     1       2.573   7.542  18.301  0.00  0.00    +0.000 A 
ATOM      4  C   UNL     1       3.612   7.487  17.400  0.00  0.00    +0.000 A 
ATOM      5  C   UNL     1       4.562   6.484  17.444  0.00  0.00    +0.000 A 
ATOM      6  N   UNL     1       5.544   6.589  16.560  0.00  0.00    +0.000 NA
ATOM      7  C   UNL     1       6.497   5.661  16.585  0.00  0.00    +0.000 A 
ATOM      8  N   UNL     1       7.535   5.819  15.697  0.00  0.00    +0.000 N 
ATOM      9  N   UNL     1       6.492   4.593  17.375  0.00  0.00    +0.000 NA
ATOM     10  C   UNL     1       5.486   4.496  18.260  0.00  0.00    +0.000 A 
ATOM     11  N   UNL     1       5.487   3.304  18.992  0.00  0.00    +0.000 N 
ATOM     12  C   UNL     1       4.459   5.459  18.397  0.00  0.00    +0.000 A 
ATOM     13  H   UNL     1       7.235   6.409  14.926  0.00  0.00    +0.000 HD
ATOM     14  H   UNL     1       7.955   4.935  15.471  0.00  0.00    +0.000 HD
ATOM     15  H   UNL     1       6.369   2.827  18.823  0.00  0.00    +0.000 HD
ATOM     16  H   UNL     1       5.273   3.460  19.971  0.00  0.00    +0.000 HD
ENDROOT
BRANCH   1  17
ATOM     17  O   UNL     1       3.335   4.522  20.324  0.00  0.00    +0.000 OA
BRANCH  17  19
ATOM     18  C   UNL     1       0.859   4.347  20.473  0.00  0.00    +0.000 C 
ATOM     19  C   UNL     1       2.214   3.611  20.455  0.00  0.00    +0.000 C 
ATOM     20  C   UNL     1       2.441   2.604  21.599  0.00  0.00    +0.000 C 
ATOM     21  C   UNL     1       2.179   2.758  19.164  0.00  0.00    +0.000 C 
ENDBRANCH  17  19
ENDBRANCH   1  17
TORSDOF 2
ENDMDL
MODEL 6
REMARK VINA RESULT:      -7.1      2.711      5.203
REMARK  Name = 
REMARK  5 active torsions:
REMARK  status: ('A' for Active; 'I' for Inactive)
REMARK    1  A    between atoms: C_1  and  C_2
REMARK    2  A    between atoms: C_2  and  C_3
REMARK    3  A    between atoms: C_2  and  C_4
REMARK    4  A    between atoms: C_2  and  O_5
REMARK    5  A    between atoms: O_5  and  C_6
REMARK                            x       y       z     vdW  Elec       q    Type
REMARK                         _______ _______ _______ _____ _____    ______ ____
ROOT
ATOM      1  C   UNL     1       3.392   5.352  18.490  0.00  0.00    +0.000 A 
ATOM      2  C   UNL     1       2.839   6.613  18.730  0.00  0.00    +0.000 A 
ATOM      3  C   UNL     1       3.198   7.720  17.970  0.00  0.00    +0.000 A 
ATOM      4  C   UNL     1       4.149   7.579  16.984  0.00  0.00    +0.000 A 
ATOM      5  C   UNL     1       4.757   6.364  16.727  0.00  0.00    +0.000 A 
ATOM      6  N   UNL     1       5.700   6.384  15.796  0.00  0.00    +0.000 NA
ATOM      7  C   UNL     1       6.333   5.243  15.536  0.00  0.00    +0.000 A 
ATOM      8  N   UNL     1       7.347   5.297  14.608  0.00  0.00    +0.000 N 
ATOM      9  N   UNL     1       6.030   4.069  16.081  0.00  0.00    +0.000 NA
ATOM     10  C   UNL     1       5.066   4.063  17.016  0.00  0.00    +0.000 A 
ATOM     11  N   UNL     1       4.731   2.786  17.477  0.00  0.00    +0.000 N 
ATOM     12  C   UNL     1       4.377   5.222  17.447  0.00  0.00    +0.000 A 
ATOM     13  H   UNL     1       7.216   6.108  14.010  0.00  0.00    +0.000 HD
ATOM     14  H   UNL     1       7.477   4.406  14.163  0.00  0.00    +0.000 HD
ATOM     15  H   UNL     1       5.424   2.130  17.129  0.00  0.00    +0.000 HD
ATOM     16  H   UNL     1       4.599   2.769  18.483  0.00  0.00    +0.000 HD
ENDROOT
BRANCH   1  17
ATOM     17  O   UNL     1       3.077   4.229  19.230  0.00  0.00    +0.000 OA
BRANCH  17  19
ATOM     18  C   UNL     1       1.079   3.719  17.843  0.00  0.00    +0.000 C 
ATOM     19  C   UNL     1       1.754   3.637  19.226  0.00  0.00    +0.000 C 
ATOM     20  C   UNL     1       0.909   4.143  20.412  0.00  0.00    +0.000 C 
ATOM     21  C   UNL     1       1.943   2.121  19.481  0.00  0.00    +0.000 C 
ENDBRANCH  17  19
ENDBRANCH   1  17
TORSDOF 2
ENDMDL
MODEL 7
REMARK VINA RESULT:      -7.1      0.108      1.034
REMARK  Name = 
REMARK  5 active torsions:
REMARK  status: ('A' for Active; 'I' for Inactive)
REMARK    1  A    between atoms: C_1  and  C_2
REMARK    2  A    between atoms: C_2  and  C_3
REMARK    3  A    between atoms: C_2  and  C_4
REMARK    4  A    between atoms: C_2  and  O_5
REMARK    5  A    between atoms: O_5  and  C_6
REMARK                            x       y       z     vdW  Elec       q    Type
REMARK                         _______ _______ _______ _____ _____    ______ ____
ROOT
ATOM      1  C   UNL     1       4.146   5.478  18.405  0.00  0.00    +0.000 A 
ATOM      2  C   UNL     1       3.602   6.749  18.204  0.00  0.00    +0.000 A 
ATOM      3  C   UNL     1       2.548   7.218  18.980  0.00  0.00    +0.000 A 
ATOM      4  C   UNL     1       2.002   6.396  19.940  0.00  0.00    +0.000 A 
ATOM      5  C   UNL     1       2.476   5.116  20.158  0.00  0.00    +0.000 A 
ATOM      6  N   UNL     1       1.817   4.412  21.068  0.00  0.00    +0.000 NA
ATOM      7  C   UNL     1       2.220   3.163  21.289  0.00  0.00    +0.000 A 
ATOM      8  N   UNL     1       1.489   2.430  22.195  0.00  0.00    +0.000 N 
ATOM      9  N   UNL     1       3.285   2.600  20.727  0.00  0.00    +0.000 NA
ATOM     10  C   UNL     1       3.947   3.330  19.814  0.00  0.00    +0.000 A 
ATOM     11  N   UNL     1       5.109   2.718  19.333  0.00  0.00    +0.000 N 
ATOM     12  C   UNL     1       3.570   4.636  19.422  0.00  0.00    +0.000 A 
ATOM     13  H   UNL     1       0.986   3.061  22.813  0.00  0.00    +0.000 HD
ATOM     14  H   UNL     1       2.051   1.714  22.619  0.00  0.00    +0.000 HD
ATOM     15  H   UNL     1       5.116   1.753  19.651  0.00  0.00    +0.000 HD
ATOM     16  H   UNL     1       5.211   2.833  18.330  0.00  0.00    +0.000 HD
ENDROOT
BRANCH   1  17
ATOM     17  O   UNL     1       5.182   4.964  17.648  0.00  0.00    +0.000 OA
BRANCH  17  19
ATOM     18  C   UNL     1       6.601   6.945  17.157  0.00  0.00    +0.000 C 
ATOM     19  C   UNL     1       6.527   5.503  17.698  0.00  0.00    +0.000 C 
ATOM     20  C   UNL     1       7.550   4.515  17.105  0.00  0.00    +0.000 C 
ATOM     21  C   UNL     1       6.903   5.627  19.195  0.00  0.00    +0.000 C 
ENDBRANCH  17  19
ENDBRANCH   1  17
TORSDOF 2
ENDMDL
MODEL 8
REMARK VINA RESULT:      -7.1      0.127      1.078
REMARK  Name = 
REMARK  5 active torsions:
REMARK  status: ('A' for Active; 'I' for Inactive)
REMARK    1  A    between atoms: C_1  and  C_2
REMARK    2  A    between atoms: C_2  and  C_3
REMARK    3  A    between atoms: C_2  and  C_4
REMARK    4  A    between atoms: C_2  and  O_5
REMARK    5  A    between atoms: O_5  and  C_6
REMARK                            x       y       z     vdW  Elec       q    Type
REMARK                         _______ _______ _______ _____ _____    ______ ____
ROOT
ATOM      1  C   UNL     1       4.141   5.448  18.403  0.00  0.00    +0.000 A 
ATOM      2  C   UNL     1       3.608   6.725  18.205  0.00  0.00    +0.000 A 
ATOM      3  C   UNL     1       2.565   7.204  18.989  0.00  0.00    +0.000 A 
ATOM      4  C   UNL     1       2.019   6.389  19.955  0.00  0.00    +0.000 A 
ATOM      5  C   UNL     1       2.482   5.104  20.170  0.00  0.00    +0.000 A 
ATOM      6  N   UNL     1       1.824   4.407  21.086  0.00  0.00    +0.000 NA
ATOM      7  C   UNL     1       2.216   3.154  21.305  0.00  0.00    +0.000 A 
ATOM      8  N   UNL     1       1.485   2.430  22.217  0.00  0.00    +0.000 N 
ATOM      9  N   UNL     1       3.270   2.581  20.734  0.00  0.00    +0.000 NA
ATOM     10  C   UNL     1       3.932   3.303  19.815  0.00  0.00    +0.000 A 
ATOM     11  N   UNL     1       5.083   2.679  19.325  0.00  0.00    +0.000 N 
ATOM     12  C   UNL     1       3.564   4.613  19.425  0.00  0.00    +0.000 A 
ATOM     13  H   UNL     1       0.993   3.066  22.839  0.00  0.00    +0.000 HD
ATOM     14  H   UNL     1       2.044   1.708  22.637  0.00  0.00    +0.000 HD
ATOM     15  H   UNL     1       5.083   1.714  19.643  0.00  0.00    +0.000 HD
ATOM     16  H   UNL     1       5.178   2.793  18.321  0.00  0.00    +0.000 HD
ENDROOT
BRANCH   1  17
ATOM     17  O   UNL     1       5.165   4.923  17.637  0.00  0.00    +0.000 OA
BRANCH  17  19
ATOM     18  C   UNL     1       7.514   4.509  16.936  0.00  0.00    +0.000 C 
ATOM     19  C   UNL     1       6.536   5.380  17.750  0.00  0.00    +0.000 C 
ATOM     20  C   UNL     1       6.927   5.625  19.221  0.00  0.00    +0.000 C 
ATOM     21  C   UNL     1       6.599   6.773  17.076  0.00  0.00    +0.000 C 
ENDBRANCH  17  19
ENDBRANCH   1  17
TORSDOF 2
ENDMDL
MODEL 9
REMARK VINA RESULT:      -7.0      1.156      1.626
REMARK  Name = 
REMARK  5 active torsions:
REMARK  status: ('A' for Active; 'I' for Inactive)
REMARK    1  A    between atoms: C_1  and  C_2
REMARK    2  A    between atoms: C_2  and  C_3
REMARK    3  A    between atoms: C_2  and  C_4
REMARK    4  A    between atoms: C_2  and  O_5
REMARK    5  A    between atoms: O_5  and  C_6
REMARK                            x       y       z     vdW  Elec       q    Type
REMARK                         _______ _______ _______ _____ _____    ______ ____
ROOT
ATOM      1  C   UNL     1       3.481   5.269  17.828  0.00  0.00    +0.000 A 
ATOM      2  C   UNL     1       3.163   6.630  17.826  0.00  0.00    +0.000 A 
ATOM      3  C   UNL     1       2.534   7.229  18.912  0.00  0.00    +0.000 A 
ATOM      4  C   UNL     1       2.182   6.457  19.996  0.00  0.00    +0.000 A 
ATOM      5  C   UNL     1       2.439   5.099  20.037  0.00  0.00    +0.000 A 
ATOM      6  N   UNL     1       1.988   4.466  21.111  0.00  0.00    +0.000 NA
ATOM      7  C   UNL     1       2.187   3.152  21.180  0.00  0.00    +0.000 A 
ATOM      8  N   UNL     1       1.663   2.505  22.274  0.00  0.00    +0.000 N 
ATOM      9  N   UNL     1       2.877   2.444  20.291  0.00  0.00    +0.000 NA
ATOM     10  C   UNL     1       3.334   3.102  19.212  0.00  0.00    +0.000 A 
ATOM     11  N   UNL     1       4.131   2.322  18.368  0.00  0.00    +0.000 N 
ATOM     12  C   UNL     1       3.115   4.479  18.976  0.00  0.00    +0.000 A 
ATOM     13  H   UNL     1       1.524   3.172  23.028  0.00  0.00    +0.000 HD
ATOM     14  H   UNL     1       2.180   1.670  22.482  0.00  0.00    +0.000 HD
ATOM     15  H   UNL     1       4.051   1.352  18.661  0.00  0.00    +0.000 HD
ATOM     16  H   UNL     1       3.921   2.486  17.390  0.00  0.00    +0.000 HD
ENDROOT
BRANCH   1  17
ATOM     17  O   UNL     1       4.090   4.628  16.766  0.00  0.00    +0.000 OA
BRANCH  17  19
ATOM     18  C   UNL     1       6.017   3.847  15.402  0.00  0.00    +0.000 C 
ATOM     19  C   UNL     1       5.451   4.918  16.356  0.00  0.00    +0.000 C 
ATOM     20  C   UNL     1       6.339   5.270  17.566  0.00  0.00    +0.000 C 
ATOM     21  C   UNL     1       5.394   6.211  15.505  0.00  0.00    +0.000 C 
ENDBRANCH  17  19
ENDBRANCH   1  17
TORSDOF 2
ENDMDL
