MODEL 1
REMARK VINA RESULT:      -8.6      0.000      0.000
REMARK  Name = 
REMARK  9 active torsions:
REMARK  status: ('A' for Active; 'I' for Inactive)
REMARK    1  A    between atoms: C_1  and  C_2
REMARK    2  A    between atoms: C_2  and  O_3
REMARK    3  A    between atoms: O_3  and  C_4
REMARK    4  A    between atoms: C_4  and  C_6
REMARK    5  A    between atoms: C_6  and  C_7
REMARK    6  A    between atoms: C_6  and  C_8
REMARK    7  A    between atoms: C_6  and  C_15
REMARK    8  A    between atoms: C_8  and  C_9
REMARK    9  A    between atoms: C_20  and  C_21
REMARK                            x       y       z     vdW  Elec       q    Type
REMARK                         _______ _______ _______ _____ _____    ______ ____
ROOT
ATOM      1  C   UNL     1       2.637   7.081  18.532  0.00  0.00    +0.000 A 
ATOM      2  C   UNL     1       2.799   7.966  17.522  0.00  0.00    +0.000 A 
ATOM      3  C   UNL     1       2.098   9.266  17.619  0.00  0.00    +0.000 A 
ATOM      4  N   UNL     1       1.393   9.675  18.622  0.00  0.00    +0.000 NA
ATOM      5  C   UNL     1       1.320   8.819  19.686  0.00  0.00    +0.000 A 
ATOM      6  C   UNL     1       0.672   8.893  20.911  0.00  0.00    +0.000 A 
ATOM      7  N   UNL     1       0.953   7.789  21.680  0.00  0.00    +0.000 NA
ATOM      8  C   UNL     1       1.732   7.044  20.932  0.00  0.00    +0.000 A 
ATOM      9  N   UNL     1       1.935   7.561  19.671  0.00  0.00    +0.000 N 
ENDROOT
BRANCH   6  10
ATOM     10  C   UNL     1      -0.200   9.967  21.362  0.00  0.00    +0.000 A 
ATOM     11  C   UNL     1      -0.695  10.892  20.432  0.00  0.00    +0.000 A 
ATOM     12  C   UNL     1      -1.516  11.948  20.842  0.00  0.00    +0.000 A 
ATOM     13  C   UNL     1      -1.848  12.084  22.188  0.00  0.00    +0.000 A 
ATOM     14 CL   UNL     1      -2.846  13.389  22.701  0.00  0.00    +0.000 Cl
ATOM     15  C   UNL     1      -1.376  11.169  23.124  0.00  0.00    +0.000 A 
ATOM     16  C   UNL     1      -0.558  10.115  22.709  0.00  0.00    +0.000 A 
ENDBRANCH   6  10
BRANCH   1  17
ATOM     17  C   UNL     1       3.176   5.626  18.414  0.00  0.00    +0.000 C 
ATOM     18  C   UNL     1       3.870   5.289  19.755  0.00  0.00    +0.000 C 
BRANCH  17  19
ATOM     19  C   UNL     1       2.057   4.589  18.133  0.00  0.00    +0.000 C 
ATOM     20  O   UNL     1       1.132   4.756  17.345  0.00  0.00    +0.000 OA
BRANCH  19  21
ATOM     21  O   UNL     1       2.230   3.434  18.836  0.00  0.00    +0.000 OA
BRANCH  21  23
ATOM     22  C   UNL     1       1.171   3.103  21.003  0.00  0.00    +0.000 C 
ATOM     23  C   UNL     1       1.058   2.930  19.499  0.00  0.00    +0.000 C 
ENDBRANCH  21  23
ENDBRANCH  19  21
ENDBRANCH  17  19
BRANCH  17  24
ATOM     24  C   UNL     1       4.236   5.438  17.243  0.00  0.00    +0.000 C 
BRANCH  24  25
ATOM     25  C   UNL     1       5.664   5.863  17.567  0.00  0.00    +0.000 A 
ATOM     26  C   UNL     1       6.494   5.097  18.398  0.00  0.00    +0.000 A 
ATOM     27  C   UNL     1       7.711   5.609  18.861  0.00  0.00    +0.000 A 
ATOM     28  C   UNL     1       8.123   6.884  18.483  0.00  0.00    +0.000 A 
ATOM     29  C   UNL     1       7.357   7.613  17.583  0.00  0.00    +0.000 A 
ATOM     30  C   UNL     1       6.162   7.085  17.098  0.00  0.00    +0.000 A 
ENDBRANCH  24  25
ENDBRANCH  17  24
ENDBRANCH   1  17
TORSDOF 7
ENDMDL
MODEL 2
REMARK VINA RESULT:      -8.5      0.686      1.176
REMARK  Name = 
REMARK  9 active torsions:
REMARK  status: ('A' for Active; 'I' for Inactive)
REMARK    1  A    between atoms: C_1  and  C_2
REMARK    2  A    between atoms: C_2  and  O_3
REMARK    3  A    between atoms: O_3  and  C_4
REMARK    4  A    between atoms: C_4  and  C_6
REMARK    5  A    between atoms: C_6  and  C_7
REMARK    6  A    between atoms: C_6  and  C_8
REMARK    7  A    between atoms: C_6  and  C_15
REMARK    8  A    between atoms: C_8  and  C_9
REMARK    9  A    between atoms: C_20  and  C_21
REMARK                            x       y       z     vdW  Elec       q    Type
REMARK                         _______ _______ _______ _____ _____    ______ ____
ROOT
ATOM      1  C   UNL     1       2.604   7.170  18.525  0.00  0.00    +0.000 A 
ATOM      2  C   UNL     1       2.774   8.054  17.515  0.00  0.00    +0.000 A 
ATOM      3  C   UNL     1       2.082   9.360  17.612  0.00  0.00    +0.000 A 
ATOM      4  N   UNL     1       1.381   9.774  18.615  0.00  0.00    +0.000 NA
ATOM      5  C   UNL     1       1.302   8.919  19.679  0.00  0.00    +0.000 A 
ATOM      6  C   UNL     1       0.655   8.998  20.905  0.00  0.00    +0.000 A 
ATOM      7  N   UNL     1       0.927   7.892  21.674  0.00  0.00    +0.000 NA
ATOM      8  C   UNL     1       1.700   7.140  20.925  0.00  0.00    +0.000 A 
ATOM      9  N   UNL     1       1.907   7.656  19.664  0.00  0.00    +0.000 N 
ENDROOT
BRANCH   6  10
ATOM     10  C   UNL     1      -0.209  10.079  21.356  0.00  0.00    +0.000 A 
ATOM     11  C   UNL     1      -0.586  10.144  22.705  0.00  0.00    +0.000 A 
ATOM     12  C   UNL     1      -1.434  11.159  23.162  0.00  0.00    +0.000 A 
ATOM     13  C   UNL     1      -1.911  12.116  22.269  0.00  0.00    +0.000 A 
ATOM     14 CL   UNL     1      -2.967  13.358  22.821  0.00  0.00    +0.000 Cl
ATOM     15  C   UNL     1      -1.539  12.074  20.929  0.00  0.00    +0.000 A 
ATOM     16  C   UNL     1      -0.689  11.061  20.478  0.00  0.00    +0.000 A 
ENDBRANCH   6  10
BRANCH   1  17
ATOM     17  C   UNL     1       3.132   5.712  18.407  0.00  0.00    +0.000 C 
ATOM     18  C   UNL     1       3.824   5.368  19.748  0.00  0.00    +0.000 C 
BRANCH  17  19
ATOM     19  C   UNL     1       2.004   4.683  18.127  0.00  0.00    +0.000 C 
ATOM     20  O   UNL     1       1.106   4.839  17.306  0.00  0.00    +0.000 OA
BRANCH  19  21
ATOM     21  O   UNL     1       2.137   3.549  18.871  0.00  0.00    +0.000 OA
BRANCH  21  23
ATOM     22  C   UNL     1       3.553   1.605  18.497  0.00  0.00    +0.000 C 
ATOM     23  C   UNL     1       2.272   2.328  18.124  0.00  0.00    +0.000 C 
ENDBRANCH  21  23
ENDBRANCH  19  21
ENDBRANCH  17  19
BRANCH  17  24
ATOM     24  C   UNL     1       4.190   5.514  17.236  0.00  0.00    +0.000 C 
BRANCH  24  25
ATOM     25  C   UNL     1       5.629   5.888  17.572  0.00  0.00    +0.000 A 
ATOM     26  C   UNL     1       6.426   5.089  18.405  0.00  0.00    +0.000 A 
ATOM     27  C   UNL     1       7.656   5.556  18.880  0.00  0.00    +0.000 A 
ATOM     28  C   UNL     1       8.114   6.818  18.513  0.00  0.00    +0.000 A 
ATOM     29  C   UNL     1       7.381   7.578  17.612  0.00  0.00    +0.000 A 
ATOM     30  C   UNL     1       6.173   7.094  17.115  0.00  0.00    +0.000 A 
ENDBRANCH  24  25
ENDBRANCH  17  24
ENDBRANCH   1  17
TORSDOF 7
ENDMDL
MODEL 3
REMARK VINA RESULT:      -8.4      2.870      4.628
REMARK  Name = 
REMARK  9 active torsions:
REMARK  status: ('A' for Active; 'I' for Inactive)
REMARK    1  A    between atoms: C_1  and  C_2
REMARK    2  A    between atoms: C_2  and  O_3
REMARK    3  A    between atoms: O_3  and  C_4
REMARK    4  A    between atoms: C_4  and  C_6
REMARK    5  A    between atoms: C_6  and  C_7
REMARK    6  A    between atoms: C_6  and  C_8
REMARK    7  A    between atoms: C_6  and  C_15
REMARK    8  A    between atoms: C_8  and  C_9
REMARK    9  A    between atoms: C_20  and  C_21
REMARK                            x       y       z     vdW  Elec       q    Type
REMARK                         _______ _______ _______ _____ _____    ______ ____
ROOT
ATOM      1  C   UNL     1       4.291   5.463  17.874  0.00  0.00    +0.000 A 
ATOM      2  C   UNL     1       4.007   4.422  18.690  0.00  0.00    +0.000 A 
ATOM      3  C   UNL     1       3.079   4.660  19.819  0.00  0.00    +0.000 A 
ATOM      4  N   UNL     1       2.447   5.761  20.063  0.00  0.00    +0.000 NA
ATOM      5  C   UNL     1       2.656   6.777  19.172  0.00  0.00    +0.000 A 
ATOM      6  C   UNL     1       2.177   8.077  19.098  0.00  0.00    +0.000 A 
ATOM      7  N   UNL     1       2.637   8.704  17.965  0.00  0.00    +0.000 NA
ATOM      8  C   UNL     1       3.403   7.816  17.373  0.00  0.00    +0.000 A 
ATOM      9  N   UNL     1       3.533   6.646  18.089  0.00  0.00    +0.000 N 
ENDROOT
BRANCH   6  10
ATOM     10  C   UNL     1       1.311   8.735  20.065  0.00  0.00    +0.000 A 
ATOM     11  C   UNL     1       0.569   9.859  19.676  0.00  0.00    +0.000 A 
ATOM     12  C   UNL     1      -0.253  10.525  20.591  0.00  0.00    +0.000 A 
ATOM     13  C   UNL     1      -0.339  10.067  21.904  0.00  0.00    +0.000 A 
ATOM     14 CL   UNL     1      -1.337  10.890  23.039  0.00  0.00    +0.000 Cl
ATOM     15  C   UNL     1       0.381   8.946  22.306  0.00  0.00    +0.000 A 
ATOM     16  C   UNL     1       1.199   8.284  21.387  0.00  0.00    +0.000 A 
ENDBRANCH   6  10
BRANCH   1  17
ATOM     17  C   UNL     1       5.403   5.347  16.791  0.00  0.00    +0.000 C 
ATOM     18  C   UNL     1       5.218   6.539  15.821  0.00  0.00    +0.000 C 
BRANCH  17  19
ATOM     19  C   UNL     1       6.834   5.383  17.390  0.00  0.00    +0.000 C 
ATOM     20  O   UNL     1       7.335   4.481  18.054  0.00  0.00    +0.000 OA
BRANCH  19  21
ATOM     21  O   UNL     1       7.506   6.523  17.064  0.00  0.00    +0.000 OA
BRANCH  21  23
ATOM     22  C   UNL     1       7.998   8.793  17.792  0.00  0.00    +0.000 C 
ATOM     23  C   UNL     1       7.943   7.325  18.174  0.00  0.00    +0.000 C 
ENDBRANCH  21  23
ENDBRANCH  19  21
ENDBRANCH  17  19
BRANCH  17  24
ATOM     24  C   UNL     1       5.327   4.001  15.948  0.00  0.00    +0.000 C 
BRANCH  24  25
ATOM     25  C   UNL     1       6.027   4.028  14.593  0.00  0.00    +0.000 A 
ATOM     26  C   UNL     1       7.199   4.767  14.381  0.00  0.00    +0.000 A 
ATOM     27  C   UNL     1       7.699   4.960  13.088  0.00  0.00    +0.000 A 
ATOM     28  C   UNL     1       7.045   4.398  11.995  0.00  0.00    +0.000 A 
ATOM     29  C   UNL     1       5.941   3.583  12.201  0.00  0.00    +0.000 A 
ATOM     30  C   UNL     1       5.467   3.367  13.494  0.00  0.00    +0.000 A 
ENDBRANCH  24  25
ENDBRANCH  17  24
ENDBRANCH   1  17
TORSDOF 7
ENDMDL
MODEL 4
REMARK VINA RESULT:      -8.2      0.616      1.131
REMARK  Name = 
REMARK  9 active torsions:
REMARK  status: ('A' for Active; 'I' for Inactive)
REMARK    1  A    between atoms: C_1  and  C_2
REMARK    2  A    between atoms: C_2  and  O_3
REMARK    3  A    between atoms: O_3  and  C_4
REMARK    4  A    between atoms: C_4  and  C_6
REMARK    5  A    between atoms: C_6  and  C_7
REMARK    6  A    between atoms: C_6  and  C_8
REMARK    7  A    between atoms: C_6  and  C_15
REMARK    8  A    between atoms: C_8  and  C_9
REMARK    9  A    between atoms: C_20  and  C_21
REMARK                            x       y       z     vdW  Elec       q    Type
REMARK                         _______ _______ _______ _____ _____    ______ ____
ROOT
ATOM      1  C   UNL     1       2.419   7.094  18.702  0.00  0.00    +0.000 A 
ATOM      2  C   UNL     1       2.672   7.914  17.656  0.00  0.00    +0.000 A 
ATOM      3  C   UNL     1       2.055   9.260  17.665  0.00  0.00    +0.000 A 
ATOM      4  N   UNL     1       1.348   9.765  18.622  0.00  0.00    +0.000 NA
ATOM      5  C   UNL     1       1.185   8.971  19.723  0.00  0.00    +0.000 A 
ATOM      6  C   UNL     1       0.506   9.149  20.920  0.00  0.00    +0.000 A 
ATOM      7  N   UNL     1       0.688   8.070  21.752  0.00  0.00    +0.000 NA
ATOM      8  C   UNL     1       1.439   7.238  21.068  0.00  0.00    +0.000 A 
ATOM      9  N   UNL     1       1.716   7.676  19.791  0.00  0.00    +0.000 N 
ENDROOT
BRANCH   6  10
ATOM     10  C   UNL     1      -0.307  10.299  21.288  0.00  0.00    +0.000 A 
ATOM     11  C   UNL     1      -0.845  11.115  20.282  0.00  0.00    +0.000 A 
ATOM     12  C   UNL     1      -1.609  12.240  20.608  0.00  0.00    +0.000 A 
ATOM     13  C   UNL     1      -1.842  12.555  21.945  0.00  0.00    +0.000 A 
ATOM     14 CL   UNL     1      -2.770  13.946  22.352  0.00  0.00    +0.000 Cl
ATOM     15  C   UNL     1      -1.327  11.751  22.956  0.00  0.00    +0.000 A 
ATOM     16  C   UNL     1      -0.565  10.627  22.626  0.00  0.00    +0.000 A 
ENDBRANCH   6  10
BRANCH   1  17
ATOM     17  C   UNL     1       2.864   5.604  18.674  0.00  0.00    +0.000 C 
ATOM     18  C   UNL     1       3.365   5.252  20.096  0.00  0.00    +0.000 C 
BRANCH  17  19
ATOM     19  C   UNL     1       1.716   4.639  18.275  0.00  0.00    +0.000 C 
ATOM     20  O   UNL     1       1.168   4.623  17.178  0.00  0.00    +0.000 OA
BRANCH  19  21
ATOM     21  O   UNL     1       1.399   3.767  19.273  0.00  0.00    +0.000 OA
BRANCH  21  23
ATOM     22  C   UNL     1       2.750   1.854  18.607  0.00  0.00    +0.000 C 
ATOM     23  C   UNL     1       1.355   2.380  18.895  0.00  0.00    +0.000 C 
ENDBRANCH  21  23
ENDBRANCH  19  21
ENDBRANCH  17  19
BRANCH  17  24
ATOM     24  C   UNL     1       4.042   5.314  17.645  0.00  0.00    +0.000 C 
BRANCH  24  25
ATOM     25  C   UNL     1       5.400   5.904  18.009  0.00  0.00    +0.000 A 
ATOM     26  C   UNL     1       5.977   6.944  17.266  0.00  0.00    +0.000 A 
ATOM     27  C   UNL     1       7.310   7.318  17.476  0.00  0.00    +0.000 A 
ATOM     28  C   UNL     1       8.074   6.671  18.444  0.00  0.00    +0.000 A 
ATOM     29  C   UNL     1       7.484   5.709  19.252  0.00  0.00    +0.000 A 
ATOM     30  C   UNL     1       6.148   5.363  19.061  0.00  0.00    +0.000 A 
ENDBRANCH  24  25
ENDBRANCH  17  24
ENDBRANCH   1  17
TORSDOF 7
ENDMDL
MODEL 5
REMARK VINA RESULT:      -8.2      1.835      2.812
REMARK  Name = 
REMARK  9 active torsions:
REMARK  status: ('A' for Active; 'I' for Inactive)
REMARK    1  A    between atoms: C_1  and  C_2
REMARK    2  A    between atoms: C_2  and  O_3
REMARK    3  A    between atoms: O_3  and  C_4
REMARK    4  A    between atoms: C_4  and  C_6
REMARK    5  A    between atoms: C_6  and  C_7
REMARK    6  A    between atoms: C_6  and  C_8
REMARK    7  A    between atoms: C_6  and  C_15
REMARK    8  A    between atoms: C_8  and  C_9
REMARK    9  A    between atoms: C_20  and  C_21
REMARK                            x       y       z     vdW  Elec       q    Type
REMARK                         _______ _______ _______ _____ _____    ______ ____
ROOT
ATOM      1  C   UNL     1       2.160   6.867  19.449  0.00  0.00    +0.000 A 
ATOM      2  C   UNL     1       1.643   6.647  20.679  0.00  0.00    +0.000 A 
ATOM      3  C   UNL     1       1.053   7.799  21.399  0.00  0.00    +0.000 A 
ATOM      4  N   UNL     1       0.915   8.996  20.933  0.00  0.00    +0.000 NA
ATOM      5  C   UNL     1       1.342   9.186  19.647  0.00  0.00    +0.000 A 
ATOM      6  C   UNL     1       1.368  10.299  18.819  0.00  0.00    +0.000 A 
ATOM      7  N   UNL     1       1.844   9.970  17.572  0.00  0.00    +0.000 NA
ATOM      8  C   UNL     1       2.130   8.691  17.645  0.00  0.00    +0.000 A 
ATOM      9  N   UNL     1       1.931   8.158  18.900  0.00  0.00    +0.000 N 
ENDROOT
BRANCH   6  10
ATOM     10  C   UNL     1       0.963  11.651  19.176  0.00  0.00    +0.000 A 
ATOM     11  C   UNL     1       1.912  12.683  19.157  0.00  0.00    +0.000 A 
ATOM     12  C   UNL     1       1.556  13.987  19.519  0.00  0.00    +0.000 A 
ATOM     13  C   UNL     1       0.246  14.265  19.902  0.00  0.00    +0.000 A 
ATOM     14 CL   UNL     1      -0.195  15.864  20.363  0.00  0.00    +0.000 Cl
ATOM     15  C   UNL     1      -0.712  13.256  19.917  0.00  0.00    +0.000 A 
ATOM     16  C   UNL     1      -0.352  11.956  19.552  0.00  0.00    +0.000 A 
ENDBRANCH   6  10
BRANCH   1  17
ATOM     17  C   UNL     1       2.970   5.760  18.713  0.00  0.00    +0.000 C 
ATOM     18  C   UNL     1       4.153   5.376  19.633  0.00  0.00    +0.000 C 
BRANCH  17  19
ATOM     19  C   UNL     1       2.122   4.497  18.404  0.00  0.00    +0.000 C 
ATOM     20  O   UNL     1       1.282   4.422  17.513  0.00  0.00    +0.000 OA
BRANCH  19  21
ATOM     21  O   UNL     1       2.439   3.447  19.212  0.00  0.00    +0.000 OA
BRANCH  21  23
ATOM     22  C   UNL     1       1.402   2.920  21.350  0.00  0.00    +0.000 C 
ATOM     23  C   UNL     1       1.325   2.789  19.840  0.00  0.00    +0.000 C 
ENDBRANCH  21  23
ENDBRANCH  19  21
ENDBRANCH  17  19
BRANCH  17  24
ATOM     24  C   UNL     1       3.559   6.232  17.313  0.00  0.00    +0.000 C 
BRANCH  24  25
ATOM     25  C   UNL     1       4.854   5.556  16.879  0.00  0.00    +0.000 A 
ATOM     26  C   UNL     1       6.100   6.185  17.020  0.00  0.00    +0.000 A 
ATOM     27  C   UNL     1       7.244   5.650  16.416  0.00  0.00    +0.000 A 
ATOM     28  C   UNL     1       7.160   4.469  15.683  0.00  0.00    +0.000 A 
ATOM     29  C   UNL     1       5.953   3.786  15.619  0.00  0.00    +0.000 A 
ATOM     30  C   UNL     1       4.825   4.306  16.250  0.00  0.00    +0.000 A 
ENDBRANCH  24  25
ENDBRANCH  17  24
ENDBRANCH   1  17
TORSDOF 7
ENDMDL
MODEL 6
REMARK VINA RESULT:      -8.2      4.222      8.692
REMARK  Name = 
REMARK  9 active torsions:
REMARK  status: ('A' for Active; 'I' for Inactive)
REMARK    1  A    between atoms: C_1  and  C_2
REMARK    2  A    between atoms: C_2  and  O_3
REMARK    3  A    between atoms: O_3  and  C_4
REMARK    4  A    between atoms: C_4  and  C_6
REMARK    5  A    between atoms: C_6  and  C_7
REMARK    6  A    between atoms: C_6  and  C_8
REMARK    7  A    between atoms: C_6  and  C_15
REMARK    8  A    between atoms: C_8  and  C_9
REMARK    9  A    between atoms: C_20  and  C_21
REMARK                            x       y       z     vdW  Elec       q    Type
REMARK                         _______ _______ _______ _____ _____    ______ ____
ROOT
ATOM      1  C   UNL     1       0.778  10.533  20.367  0.00  0.00    +0.000 A 
ATOM      2  C   UNL     1       0.622   9.977  21.590  0.00  0.00    +0.000 A 
ATOM      3  C   UNL     1       0.972   8.547  21.751  0.00  0.00    +0.000 A 
ATOM      4  N   UNL     1       1.487   7.785  20.844  0.00  0.00    +0.000 NA
ATOM      5  C   UNL     1       1.742   8.381  19.641  0.00  0.00    +0.000 A 
ATOM      6  C   UNL     1       2.270   7.907  18.448  0.00  0.00    +0.000 A 
ATOM      7  N   UNL     1       2.387   8.921  17.527  0.00  0.00    +0.000 NA
ATOM      8  C   UNL     1       1.915   9.986  18.134  0.00  0.00    +0.000 A 
ATOM      9  N   UNL     1       1.424   9.723  19.394  0.00  0.00    +0.000 N 
ENDROOT
BRANCH   6  10
ATOM     10  C   UNL     1       2.656   6.534  18.160  0.00  0.00    +0.000 A 
ATOM     11  C   UNL     1       1.676   5.532  18.137  0.00  0.00    +0.000 A 
ATOM     12  C   UNL     1       2.022   4.199  17.887  0.00  0.00    +0.000 A 
ATOM     13  C   UNL     1       3.354   3.862  17.657  0.00  0.00    +0.000 A 
ATOM     14 CL   UNL     1       3.788   2.223  17.364  0.00  0.00    +0.000 Cl
ATOM     15  C   UNL     1       4.339   4.845  17.666  0.00  0.00    +0.000 A 
ATOM     16  C   UNL     1       3.988   6.174  17.914  0.00  0.00    +0.000 A 
ENDBRANCH   6  10
BRANCH   1  17
ATOM     17  C   UNL     1       0.251  11.966  20.069  0.00  0.00    +0.000 C 
ATOM     18  C   UNL     1      -0.837  12.279  21.124  0.00  0.00    +0.000 C 
BRANCH  17  19
ATOM     19  C   UNL     1       1.365  13.045  20.136  0.00  0.00    +0.000 C 
ATOM     20  O   UNL     1       2.261  13.071  20.973  0.00  0.00    +0.000 OA
BRANCH  19  21
ATOM     21  O   UNL     1       1.267  13.957  19.128  0.00  0.00    +0.000 OA
BRANCH  21  23
ATOM     22  C   UNL     1       2.382  15.959  18.306  0.00  0.00    +0.000 C 
ATOM     23  C   UNL     1       2.515  14.486  18.647  0.00  0.00    +0.000 C 
ENDBRANCH  21  23
ENDBRANCH  19  21
ENDBRANCH  17  19
BRANCH  17  24
ATOM     24  C   UNL     1      -0.399  12.113  18.624  0.00  0.00    +0.000 C 
BRANCH  24  25
ATOM     25  C   UNL     1      -1.746  11.427  18.431  0.00  0.00    +0.000 A 
ATOM     26  C   UNL     1      -1.854  10.166  17.827  0.00  0.00    +0.000 A 
ATOM     27  C   UNL     1      -3.104   9.655  17.457  0.00  0.00    +0.000 A 
ATOM     28  C   UNL     1      -4.261  10.388  17.707  0.00  0.00    +0.000 A 
ATOM     29  C   UNL     1      -4.175  11.592  18.392  0.00  0.00    +0.000 A 
ATOM     30  C   UNL     1      -2.931  12.081  18.787  0.00  0.00    +0.000 A 
ENDBRANCH  24  25
ENDBRANCH  17  24
ENDBRANCH   1  17
TORSDOF 7
ENDMDL
MODEL 7
REMARK VINA RESULT:      -8.1      1.965      2.947
REMARK  Name = 
REMARK  9 active torsions:
REMARK  status: ('A' for Active; 'I' for Inactive)
REMARK    1  A    between atoms: C_1  and  C_2
REMARK    2  A    between atoms: C_2  and  O_3
REMARK    3  A    between atoms: O_3  and  C_4
REMARK    4  A    between atoms: C_4  and  C_6
REMARK    5  A    between atoms: C_6  and  C_7
REMARK    6  A    between atoms: C_6  and  C_8
REMARK    7  A    between atoms: C_6  and  C_15
REMARK    8  A    between atoms: C_8  and  C_9
REMARK    9  A    between atoms: C_20  and  C_21
REMARK                            x       y       z     vdW  Elec       q    Type
REMARK                         _______ _______ _______ _____ _____    ______ ____
ROOT
ATOM      1  C   UNL     1       2.093   6.929  19.475  0.00  0.00    +0.000 A 
ATOM      2  C   UNL     1       1.596   6.765  20.723  0.00  0.00    +0.000 A 
ATOM      3  C   UNL     1       1.046   7.955  21.411  0.00  0.00    +0.000 A 
ATOM      4  N   UNL     1       0.925   9.137  20.904  0.00  0.00    +0.000 NA
ATOM      5  C   UNL     1       1.331   9.271  19.605  0.00  0.00    +0.000 A 
ATOM      6  C   UNL     1       1.366  10.354  18.736  0.00  0.00    +0.000 A 
ATOM      7  N   UNL     1       1.811   9.969  17.494  0.00  0.00    +0.000 NA
ATOM      8  C   UNL     1       2.069   8.687  17.608  0.00  0.00    +0.000 A 
ATOM      9  N   UNL     1       1.883   8.205  18.885  0.00  0.00    +0.000 N 
ENDROOT
BRANCH   6  10
ATOM     10  C   UNL     1       0.999  11.726  19.052  0.00  0.00    +0.000 A 
ATOM     11  C   UNL     1      -0.356  12.073  19.151  0.00  0.00    +0.000 A 
ATOM     12  C   UNL     1      -0.738  13.389  19.429  0.00  0.00    +0.000 A 
ATOM     13  C   UNL     1       0.237  14.368  19.612  0.00  0.00    +0.000 A 
ATOM     14 CL   UNL     1      -0.227  15.993  19.941  0.00  0.00    +0.000 Cl
ATOM     15  C   UNL     1       1.586  14.041  19.529  0.00  0.00    +0.000 A 
ATOM     16  C   UNL     1       1.962  12.723  19.253  0.00  0.00    +0.000 A 
ENDBRANCH   6  10
BRANCH   1  17
ATOM     17  C   UNL     1       2.864   5.778  18.766  0.00  0.00    +0.000 C 
ATOM     18  C   UNL     1       3.996   5.332  19.722  0.00  0.00    +0.000 C 
BRANCH  17  19
ATOM     19  C   UNL     1       1.959   4.563  18.430  0.00  0.00    +0.000 C 
ATOM     20  O   UNL     1       1.272   4.463  17.419  0.00  0.00    +0.000 OA
BRANCH  19  21
ATOM     21  O   UNL     1       2.036   3.581  19.372  0.00  0.00    +0.000 OA
BRANCH  21  23
ATOM     22  C   UNL     1       3.309   1.763  18.371  0.00  0.00    +0.000 C 
ATOM     23  C   UNL     1       1.956   2.235  18.873  0.00  0.00    +0.000 C 
ENDBRANCH  21  23
ENDBRANCH  19  21
ENDBRANCH  17  19
BRANCH  17  24
ATOM     24  C   UNL     1       3.521   6.214  17.384  0.00  0.00    +0.000 C 
BRANCH  24  25
ATOM     25  C   UNL     1       4.828   5.517  17.023  0.00  0.00    +0.000 A 
ATOM     26  C   UNL     1       6.076   6.068  17.350  0.00  0.00    +0.000 A 
ATOM     27  C   UNL     1       7.255   5.533  16.820  0.00  0.00    +0.000 A 
ATOM     28  C   UNL     1       7.203   4.428  15.973  0.00  0.00    +0.000 A 
ATOM     29  C   UNL     1       5.983   3.814  15.722  0.00  0.00    +0.000 A 
ATOM     30  C   UNL     1       4.816   4.331  16.279  0.00  0.00    +0.000 A 
ENDBRANCH  24  25
ENDBRANCH  17  24
ENDBRANCH   1  17
TORSDOF 7
ENDMDL
MODEL 8
REMARK VINA RESULT:      -8.1      2.937      4.440
REMARK  Name = 
REMARK  9 active torsions:
REMARK  status: ('A' for Active; 'I' for Inactive)
REMARK    1  A    between atoms: C_1  and  C_2
REMARK    2  A    between atoms: C_2  and  O_3
REMARK    3  A    between atoms: O_3  and  C_4
REMARK    4  A    between atoms: C_4  and  C_6
REMARK    5  A    between atoms: C_6  and  C_7
REMARK    6  A    between atoms: C_6  and  C_8
REMARK    7  A    between atoms: C_6  and  C_15
REMARK    8  A    between atoms: C_8  and  C_9
REMARK    9  A    between atoms: C_20  and  C_21
REMARK                            x       y       z     vdW  Elec       q    Type
REMARK                         _______ _______ _______ _____ _____    ______ ____
ROOT
ATOM      1  C   UNL     1       4.297   5.864  17.608  0.00  0.00    +0.000 A 
ATOM      2  C   UNL     1       4.048   4.754  18.340  0.00  0.00    +0.000 A 
ATOM      3  C   UNL     1       3.126   4.875  19.492  0.00  0.00    +0.000 A 
ATOM      4  N   UNL     1       2.469   5.934  19.829  0.00  0.00    +0.000 NA
ATOM      5  C   UNL     1       2.642   7.025  19.022  0.00  0.00    +0.000 A 
ATOM      6  C   UNL     1       2.129   8.314  19.058  0.00  0.00    +0.000 A 
ATOM      7  N   UNL     1       2.561   9.042  17.975  0.00  0.00    +0.000 NA
ATOM      8  C   UNL     1       3.343   8.226  17.307  0.00  0.00    +0.000 A 
ATOM      9  N   UNL     1       3.511   7.005  17.924  0.00  0.00    +0.000 N 
ENDROOT
BRANCH   6  10
ATOM     10  C   UNL     1       1.256   8.867  20.082  0.00  0.00    +0.000 A 
ATOM     11  C   UNL     1       0.287   9.816  19.725  0.00  0.00    +0.000 A 
ATOM     12  C   UNL     1      -0.549  10.382  20.693  0.00  0.00    +0.000 A 
ATOM     13  C   UNL     1      -0.421  10.000  22.027  0.00  0.00    +0.000 A 
ATOM     14 CL   UNL     1      -1.437  10.704  23.225  0.00  0.00    +0.000 Cl
ATOM     15  C   UNL     1       0.527   9.052  22.399  0.00  0.00    +0.000 A 
ATOM     16  C   UNL     1       1.358   8.488  21.427  0.00  0.00    +0.000 A 
ENDBRANCH   6  10
BRANCH   1  17
ATOM     17  C   UNL     1       5.399   5.866  16.510  0.00  0.00    +0.000 C 
ATOM     18  C   UNL     1       4.798   6.559  15.264  0.00  0.00    +0.000 C 
BRANCH  17  19
ATOM     19  C   UNL     1       6.687   6.614  16.949  0.00  0.00    +0.000 C 
ATOM     20  O   UNL     1       6.861   7.824  16.843  0.00  0.00    +0.000 OA
BRANCH  19  21
ATOM     21  O   UNL     1       7.606   5.781  17.511  0.00  0.00    +0.000 OA
BRANCH  21  23
ATOM     22  C   UNL     1       7.384   5.446  19.912  0.00  0.00    +0.000 C 
ATOM     23  C   UNL     1       8.105   6.184  18.798  0.00  0.00    +0.000 C 
ENDBRANCH  21  23
ENDBRANCH  19  21
ENDBRANCH  17  19
BRANCH  17  24
ATOM     24  C   UNL     1       5.876   4.408  16.089  0.00  0.00    +0.000 C 
BRANCH  24  25
ATOM     25  C   UNL     1       6.368   4.261  14.653  0.00  0.00    +0.000 A 
ATOM     26  C   UNL     1       7.453   5.003  14.163  0.00  0.00    +0.000 A 
ATOM     27  C   UNL     1       7.746   5.022  12.795  0.00  0.00    +0.000 A 
ATOM     28  C   UNL     1       6.973   4.283  11.904  0.00  0.00    +0.000 A 
ATOM     29  C   UNL     1       5.959   3.468  12.388  0.00  0.00    +0.000 A 
ATOM     30  C   UNL     1       5.692   3.427  13.755  0.00  0.00    +0.000 A 
ENDBRANCH  24  25
ENDBRANCH  17  24
ENDBRANCH   1  17
TORSDOF 7
ENDMDL
MODEL 9
REMARK VINA RESULT:      -8.1      2.980      4.489
REMARK  Name = 
REMARK  9 active torsions:
REMARK  status: ('A' for Active; 'I' for Inactive)
REMARK    1  A    between atoms: C_1  and  C_2
REMARK    2  A    between atoms: C_2  and  O_3
REMARK    3  A    between atoms: O_3  and  C_4
REMARK    4  A    between atoms: C_4  and  C_6
REMARK    5  A    between atoms: C_6  and  C_7
REMARK    6  A    between atoms: C_6  and  C_8
REMARK    7  A    between atoms: C_6  and  C_15
REMARK    8  A    between atoms: C_8  and  C_9
REMARK    9  A    between atoms: C_20  and  C_21
REMARK                            x       y       z     vdW  Elec       q    Type
REMARK                         _______ _______ _______ _____ _____    ______ ____
ROOT
ATOM      1  C   UNL     1       4.169   5.907  17.502  0.00  0.00    +0.000 A 
ATOM      2  C   UNL     1       3.838   4.780  18.173  0.00  0.00    +0.000 A 
ATOM      3  C   UNL     1       2.894   4.901  19.307  0.00  0.00    +0.000 A 
ATOM      4  N   UNL     1       2.290   5.980  19.681  0.00  0.00    +0.000 NA
ATOM      5  C   UNL     1       2.546   7.095  18.931  0.00  0.00    +0.000 A 
ATOM      6  C   UNL     1       2.107   8.408  19.017  0.00  0.00    +0.000 A 
ATOM      7  N   UNL     1       2.608   9.160  17.981  0.00  0.00    +0.000 NA
ATOM      8  C   UNL     1       3.359   8.332  17.293  0.00  0.00    +0.000 A 
ATOM      9  N   UNL     1       3.441   7.076  17.854  0.00  0.00    +0.000 N 
ENDROOT
BRANCH   6  10
ATOM     10  C   UNL     1       1.241   8.963  20.047  0.00  0.00    +0.000 A 
ATOM     11  C   UNL     1       1.416   8.572  21.381  0.00  0.00    +0.000 A 
ATOM     12  C   UNL     1       0.582   9.071  22.388  0.00  0.00    +0.000 A 
ATOM     13  C   UNL     1      -0.433   9.968  22.063  0.00  0.00    +0.000 A 
ATOM     14 CL   UNL     1      -1.472  10.574  23.294  0.00  0.00    +0.000 Cl
ATOM     15  C   UNL     1      -0.616  10.376  20.746  0.00  0.00    +0.000 A 
ATOM     16  C   UNL     1       0.222   9.876  19.745  0.00  0.00    +0.000 A 
ENDBRANCH   6  10
BRANCH   1  17
ATOM     17  C   UNL     1       5.298   5.896  16.431  0.00  0.00    +0.000 C 
ATOM     18  C   UNL     1       4.794   6.734  15.231  0.00  0.00    +0.000 C 
BRANCH  17  19
ATOM     19  C   UNL     1       6.632   6.491  16.955  0.00  0.00    +0.000 C 
ATOM     20  O   UNL     1       6.877   7.690  17.037  0.00  0.00    +0.000 OA
BRANCH  19  21
ATOM     21  O   UNL     1       7.507   5.528  17.361  0.00  0.00    +0.000 OA
BRANCH  21  23
ATOM     22  C   UNL     1       6.976   5.386  19.732  0.00  0.00    +0.000 C 
ATOM     23  C   UNL     1       8.035   5.689  18.688  0.00  0.00    +0.000 C 
ENDBRANCH  21  23
ENDBRANCH  19  21
ENDBRANCH  17  19
BRANCH  17  24
ATOM     24  C   UNL     1       5.658   4.439  15.906  0.00  0.00    +0.000 C 
BRANCH  24  25
ATOM     25  C   UNL     1       6.007   4.336  14.425  0.00  0.00    +0.000 A 
ATOM     26  C   UNL     1       5.227   3.588  13.531  0.00  0.00    +0.000 A 
ATOM     27  C   UNL     1       5.682   3.322  12.235  0.00  0.00    +0.000 A 
ATOM     28  C   UNL     1       6.911   3.819  11.809  0.00  0.00    +0.000 A 
ATOM     29  C   UNL     1       7.646   4.643  12.651  0.00  0.00    +0.000 A 
ATOM     30  C   UNL     1       7.173   4.931  13.930  0.00  0.00    +0.000 A 
ENDBRANCH  24  25
ENDBRANCH  17  24
ENDBRANCH   1  17
TORSDOF 7
ENDMDL
