MODEL 1
REMARK VINA RESULT:      -7.5      0.000      0.000
REMARK  Name = 
REMARK  6 active torsions:
REMARK  status: ('A' for Active; 'I' for Inactive)
REMARK    1  A    between atoms: C_8  and  C_9
REMARK    2  A    between atoms: C_9  and  N_10
REMARK    3  A    between atoms: N_10  and  C_11
REMARK    4  A    between atoms: C_11  and  C_12
REMARK    5  A    between atoms: C_12  and  C_13
REMARK    6  A    between atoms: C_13  and  C_14
REMARK                            x       y       z     vdW  Elec       q    Type
REMARK                         _______ _______ _______ _____ _____    ______ ____
ROOT
ATOM      1  N   UNL     1       8.314   6.268  19.551  0.00  0.00    +0.000 N 
ATOM      2  C   UNL     1       7.330   5.753  18.710  0.00  0.00    +0.000 A 
ATOM      3  C   UNL     1       7.100   6.334  17.475  0.00  0.00    +0.000 A 
ATOM      4  C   UNL     1       6.043   5.867  16.704  0.00  0.00    +0.000 A 
ATOM      5  C   UNL     1       5.223   4.850  17.202  0.00  0.00    +0.000 A 
ATOM      6  C   UNL     1       4.108   4.390  16.486  0.00  0.00    +0.000 A 
ATOM      7  C   UNL     1       3.286   3.403  17.028  0.00  0.00    +0.000 A 
ATOM      8  C   UNL     1       3.577   2.847  18.277  0.00  0.00    +0.000 A 
ATOM      9  C   UNL     1       4.713   3.306  18.969  0.00  0.00    +0.000 A 
ATOM     10  C   UNL     1       5.536   4.309  18.466  0.00  0.00    +0.000 A 
ATOM     11  N   UNL     1       6.579   4.751  19.199  0.00  0.00    +0.000 NA
ATOM     12  H   UNL     1       9.205   6.393  19.088  0.00  0.00    +0.000 HD
ATOM     13  H   UNL     1       8.370   5.661  20.364  0.00  0.00    +0.000 HD
ENDROOT
BRANCH   8  14
ATOM     14  C   UNL     1       2.667   1.798  18.877  0.00  0.00    +0.000 C 
BRANCH  14  15
ATOM     15  N   UNL     1       1.365   2.374  19.207  0.00  0.00    +0.000 NA
ATOM     16  H   UNL     1       0.652   1.655  19.085  0.00  0.00    +0.000 HD
BRANCH  15  17
ATOM     17  C   UNL     1       1.313   2.901  20.568  0.00  0.00    +0.000 C 
BRANCH  17  18
ATOM     18  C   UNL     1       0.981   4.395  20.498  0.00  0.00    +0.000 C 
BRANCH  18  19
ATOM     19  C   UNL     1       2.231   5.266  20.645  0.00  0.00    +0.000 C 
BRANCH  19  20
ATOM     20  C   UNL     1       2.089   6.591  19.934  0.00  0.00    +0.000 A 
ATOM     21  C   UNL     1       2.537   6.752  18.620  0.00  0.00    +0.000 A 
ATOM     22  C   UNL     1       2.396   7.985  17.989  0.00  0.00    +0.000 A 
ATOM     23  C   UNL     1       1.799   9.019  18.690  0.00  0.00    +0.000 A 
ATOM     24  N   UNL     1       1.344   8.895  19.959  0.00  0.00    +0.000 NA
ATOM     25  C   UNL     1       1.495   7.688  20.548  0.00  0.00    +0.000 A 
ENDBRANCH  19  20
ENDBRANCH  18  19
ENDBRANCH  17  18
ENDBRANCH  15  17
ENDBRANCH  14  15
ENDBRANCH   8  14
TORSDOF 6
ENDMDL
MODEL 2
REMARK VINA RESULT:      -6.7      4.278      7.314
REMARK  Name = 
REMARK  6 active torsions:
REMARK  status: ('A' for Active; 'I' for Inactive)
REMARK    1  A    between atoms: C_8  and  C_9
REMARK    2  A    between atoms: C_9  and  N_10
REMARK    3  A    between atoms: N_10  and  C_11
REMARK    4  A    between atoms: C_11  and  C_12
REMARK    5  A    between atoms: C_12  and  C_13
REMARK    6  A    between atoms: C_13  and  C_14
REMARK                            x       y       z     vdW  Elec       q    Type
REMARK                         _______ _______ _______ _____ _____    ______ ____
ROOT
ATOM      1  N   UNL     1       2.034   1.458  18.318  0.00  0.00    +0.000 N 
ATOM      2  C   UNL     1       2.389   2.802  18.232  0.00  0.00    +0.000 A 
ATOM      3  C   UNL     1       1.411   3.782  18.257  0.00  0.00    +0.000 A 
ATOM      4  C   UNL     1       1.784   5.105  18.061  0.00  0.00    +0.000 A 
ATOM      5  C   UNL     1       3.126   5.412  17.815  0.00  0.00    +0.000 A 
ATOM      6  C   UNL     1       3.541   6.727  17.551  0.00  0.00    +0.000 A 
ATOM      7  C   UNL     1       4.879   6.996  17.269  0.00  0.00    +0.000 A 
ATOM      8  C   UNL     1       5.823   5.965  17.270  0.00  0.00    +0.000 A 
ATOM      9  C   UNL     1       5.391   4.658  17.559  0.00  0.00    +0.000 A 
ATOM     10  C   UNL     1       4.057   4.354  17.817  0.00  0.00    +0.000 A 
ATOM     11  N   UNL     1       3.691   3.074  18.032  0.00  0.00    +0.000 NA
ATOM     12  H   UNL     1       1.409   1.264  19.090  0.00  0.00    +0.000 HD
ATOM     13  H   UNL     1       2.893   0.917  18.356  0.00  0.00    +0.000 HD
ENDROOT
BRANCH   8  14
ATOM     14  C   UNL     1       7.270   6.254  16.934  0.00  0.00    +0.000 C 
BRANCH  14  15
ATOM     15  N   UNL     1       7.532   7.691  16.986  0.00  0.00    +0.000 NA
ATOM     16  H   UNL     1       6.650   8.187  16.855  0.00  0.00    +0.000 HD
BRANCH  15  17
ATOM     17  C   UNL     1       8.154   8.104  18.242  0.00  0.00    +0.000 C 
BRANCH  17  18
ATOM     18  C   UNL     1       8.597   9.564  18.106  0.00  0.00    +0.000 C 
BRANCH  18  19
ATOM     19  C   UNL     1       9.304  10.067  19.367  0.00  0.00    +0.000 C 
BRANCH  19  20
ATOM     20  C   UNL     1      10.000  11.388  19.142  0.00  0.00    +0.000 A 
ATOM     21  C   UNL     1      10.336  11.812  17.853  0.00  0.00    +0.000 A 
ATOM     22  C   UNL     1      10.980  13.033  17.675  0.00  0.00    +0.000 A 
ATOM     23  C   UNL     1      11.260  13.800  18.793  0.00  0.00    +0.000 A 
ATOM     24  N   UNL     1      10.939  13.426  20.054  0.00  0.00    +0.000 NA
ATOM     25  C   UNL     1      10.316  12.235  20.198  0.00  0.00    +0.000 A 
ENDBRANCH  19  20
ENDBRANCH  18  19
ENDBRANCH  17  18
ENDBRANCH  15  17
ENDBRANCH  14  15
ENDBRANCH   8  14
TORSDOF 6
ENDMDL
MODEL 3
REMARK VINA RESULT:      -6.7      0.782      1.168
REMARK  Name = 
REMARK  6 active torsions:
REMARK  status: ('A' for Active; 'I' for Inactive)
REMARK    1  A    between atoms: C_8  and  C_9
REMARK    2  A    between atoms: C_9  and  N_10
REMARK    3  A    between atoms: N_10  and  C_11
REMARK    4  A    between atoms: C_11  and  C_12
REMARK    5  A    between atoms: C_12  and  C_13
REMARK    6  A    between atoms: C_13  and  C_14
REMARK                            x       y       z     vdW  Elec       q    Type
REMARK                         _______ _______ _______ _____ _____    ______ ____
ROOT
ATOM      1  N   UNL     1       8.353   5.662  20.223  0.00  0.00    +0.000 N 
ATOM      2  C   UNL     1       7.450   5.402  19.194  0.00  0.00    +0.000 A 
ATOM      3  C   UNL     1       7.461   6.180  18.049  0.00  0.00    +0.000 A 
ATOM      4  C   UNL     1       6.481   5.967  17.088  0.00  0.00    +0.000 A 
ATOM      5  C   UNL     1       5.495   5.001  17.311  0.00  0.00    +0.000 A 
ATOM      6  C   UNL     1       4.450   4.794  16.397  0.00  0.00    +0.000 A 
ATOM      7  C   UNL     1       3.460   3.852  16.667  0.00  0.00    +0.000 A 
ATOM      8  C   UNL     1       3.510   3.088  17.837  0.00  0.00    +0.000 A 
ATOM      9  C   UNL     1       4.577   3.295  18.730  0.00  0.00    +0.000 A 
ATOM     10  C   UNL     1       5.566   4.248  18.501  0.00  0.00    +0.000 A 
ATOM     11  N   UNL     1       6.534   4.444  19.419  0.00  0.00    +0.000 NA
ATOM     12  H   UNL     1       9.308   5.738  19.900  0.00  0.00    +0.000 HD
ATOM     13  H   UNL     1       8.227   4.942  20.929  0.00  0.00    +0.000 HD
ENDROOT
BRANCH   8  14
ATOM     14  C   UNL     1       2.417   2.087  18.144  0.00  0.00    +0.000 C 
BRANCH  14  15
ATOM     15  N   UNL     1       1.713   2.454  19.371  0.00  0.00    +0.000 NA
ATOM     16  H   UNL     1       2.384   2.461  20.140  0.00  0.00    +0.000 HD
BRANCH  15  17
ATOM     17  C   UNL     1       1.054   3.754  19.273  0.00  0.00    +0.000 C 
BRANCH  17  18
ATOM     18  C   UNL     1       1.262   4.503  20.593  0.00  0.00    +0.000 C 
BRANCH  18  19
ATOM     19  C   UNL     1       2.477   5.432  20.538  0.00  0.00    +0.000 C 
BRANCH  19  20
ATOM     20  C   UNL     1       2.145   6.769  19.919  0.00  0.00    +0.000 A 
ATOM     21  C   UNL     1       1.494   7.760  20.658  0.00  0.00    +0.000 A 
ATOM     22  C   UNL     1       1.198   8.983  20.061  0.00  0.00    +0.000 A 
ATOM     23  C   UNL     1       1.574   9.181  18.744  0.00  0.00    +0.000 A 
ATOM     24  N   UNL     1       2.216   8.248  18.003  0.00  0.00    +0.000 NA
ATOM     25  C   UNL     1       2.490   7.070  18.607  0.00  0.00    +0.000 A 
ENDBRANCH  19  20
ENDBRANCH  18  19
ENDBRANCH  17  18
ENDBRANCH  15  17
ENDBRANCH  14  15
ENDBRANCH   8  14
TORSDOF 6
ENDMDL
MODEL 4
REMARK VINA RESULT:      -6.6      4.459      7.280
REMARK  Name = 
REMARK  6 active torsions:
REMARK  status: ('A' for Active; 'I' for Inactive)
REMARK    1  A    between atoms: C_8  and  C_9
REMARK    2  A    between atoms: C_9  and  N_10
REMARK    3  A    between atoms: N_10  and  C_11
REMARK    4  A    between atoms: C_11  and  C_12
REMARK    5  A    between atoms: C_12  and  C_13
REMARK    6  A    between atoms: C_13  and  C_14
REMARK                            x       y       z     vdW  Elec       q    Type
REMARK                         _______ _______ _______ _____ _____    ______ ____
ROOT
ATOM      1  N   UNL     1       2.351   1.328  18.600  0.00  0.00    +0.000 N 
ATOM      2  C   UNL     1       2.586   2.689  18.414  0.00  0.00    +0.000 A 
ATOM      3  C   UNL     1       1.521   3.566  18.294  0.00  0.00    +0.000 A 
ATOM      4  C   UNL     1       1.784   4.898  18.002  0.00  0.00    +0.000 A 
ATOM      5  C   UNL     1       3.104   5.314  17.809  0.00  0.00    +0.000 A 
ATOM      6  C   UNL     1       3.413   6.636  17.453  0.00  0.00    +0.000 A 
ATOM      7  C   UNL     1       4.736   7.011  17.227  0.00  0.00    +0.000 A 
ATOM      8  C   UNL     1       5.769   6.081  17.376  0.00  0.00    +0.000 A 
ATOM      9  C   UNL     1       5.441   4.766  17.755  0.00  0.00    +0.000 A 
ATOM     10  C   UNL     1       4.127   4.356  17.960  0.00  0.00    +0.000 A 
ATOM     11  N   UNL     1       3.867   3.069  18.267  0.00  0.00    +0.000 NA
ATOM     12  H   UNL     1       1.697   1.139  19.348  0.00  0.00    +0.000 HD
ATOM     13  H   UNL     1       3.252   0.878  18.736  0.00  0.00    +0.000 HD
ENDROOT
BRANCH   8  14
ATOM     14  C   UNL     1       7.202   6.481  17.101  0.00  0.00    +0.000 C 
BRANCH  14  15
ATOM     15  N   UNL     1       7.384   7.917  17.306  0.00  0.00    +0.000 NA
ATOM     16  H   UNL     1       6.485   8.322  17.573  0.00  0.00    +0.000 HD
BRANCH  15  17
ATOM     17  C   UNL     1       8.387   8.216  18.325  0.00  0.00    +0.000 C 
BRANCH  17  18
ATOM     18  C   UNL     1       8.696   9.715  18.276  0.00  0.00    +0.000 C 
BRANCH  18  19
ATOM     19  C   UNL     1       9.348  10.208  19.570  0.00  0.00    +0.000 C 
BRANCH  19  20
ATOM     20  C   UNL     1       9.767  11.656  19.481  0.00  0.00    +0.000 A 
ATOM     21  C   UNL     1      10.459  12.268  20.530  0.00  0.00    +0.000 A 
ATOM     22  C   UNL     1      10.832  13.605  20.423  0.00  0.00    +0.000 A 
ATOM     23  C   UNL     1      10.510  14.287  19.262  0.00  0.00    +0.000 A 
ATOM     24  N   UNL     1       9.852  13.723  18.223  0.00  0.00    +0.000 NA
ATOM     25  C   UNL     1       9.500  12.424  18.354  0.00  0.00    +0.000 A 
ENDBRANCH  19  20
ENDBRANCH  18  19
ENDBRANCH  17  18
ENDBRANCH  15  17
ENDBRANCH  14  15
ENDBRANCH   8  14
TORSDOF 6
ENDMDL
MODEL 5
REMARK VINA RESULT:      -6.5      2.571      3.623
REMARK  Name = 
REMARK  6 active torsions:
REMARK  status: ('A' for Active; 'I' for Inactive)
REMARK    1  A    between atoms: C_8  and  C_9
REMARK    2  A    between atoms: C_9  and  N_10
REMARK    3  A    between atoms: N_10  and  C_11
REMARK    4  A    between atoms: C_11  and  C_12
REMARK    5  A    between atoms: C_12  and  C_13
REMARK    6  A    between atoms: C_13  and  C_14
REMARK                            x       y       z     vdW  Elec       q    Type
REMARK                         _______ _______ _______ _____ _____    ______ ____
ROOT
ATOM      1  N   UNL     1       6.133   2.918  12.384  0.00  0.00    +0.000 N 
ATOM      2  C   UNL     1       6.356   3.766  13.467  0.00  0.00    +0.000 A 
ATOM      3  C   UNL     1       7.248   4.819  13.351  0.00  0.00    +0.000 A 
ATOM      4  C   UNL     1       7.531   5.581  14.477  0.00  0.00    +0.000 A 
ATOM      5  C   UNL     1       6.937   5.253  15.699  0.00  0.00    +0.000 A 
ATOM      6  C   UNL     1       7.240   5.956  16.875  0.00  0.00    +0.000 A 
ATOM      7  C   UNL     1       6.662   5.579  18.085  0.00  0.00    +0.000 A 
ATOM      8  C   UNL     1       5.758   4.513  18.136  0.00  0.00    +0.000 A 
ATOM      9  C   UNL     1       5.451   3.835  16.943  0.00  0.00    +0.000 A 
ATOM     10  C   UNL     1       6.033   4.172  15.724  0.00  0.00    +0.000 A 
ATOM     11  N   UNL     1       5.745   3.450  14.621  0.00  0.00    +0.000 NA
ATOM     12  H   UNL     1       5.927   3.417  11.528  0.00  0.00    +0.000 HD
ATOM     13  H   UNL     1       5.400   2.268  12.652  0.00  0.00    +0.000 HD
ENDROOT
BRANCH   8  14
ATOM     14  C   UNL     1       5.155   4.086  19.456  0.00  0.00    +0.000 C 
BRANCH  14  15
ATOM     15  N   UNL     1       4.933   2.641  19.476  0.00  0.00    +0.000 NA
ATOM     16  H   UNL     1       5.663   2.209  20.043  0.00  0.00    +0.000 HD
BRANCH  15  17
ATOM     17  C   UNL     1       3.617   2.283  20.000  0.00  0.00    +0.000 C 
BRANCH  17  18
ATOM     18  C   UNL     1       2.686   1.996  18.818  0.00  0.00    +0.000 C 
BRANCH  18  19
ATOM     19  C   UNL     1       1.418   2.852  18.867  0.00  0.00    +0.000 C 
BRANCH  19  20
ATOM     20  C   UNL     1       1.727   4.317  19.067  0.00  0.00    +0.000 A 
ATOM     21  C   UNL     1       2.135   5.117  17.996  0.00  0.00    +0.000 A 
ATOM     22  C   UNL     1       2.415   6.464  18.210  0.00  0.00    +0.000 A 
ATOM     23  C   UNL     1       2.268   6.973  19.488  0.00  0.00    +0.000 A 
ATOM     24  N   UNL     1       1.864   6.230  20.545  0.00  0.00    +0.000 NA
ATOM     25  C   UNL     1       1.600   4.925  20.310  0.00  0.00    +0.000 A 
ENDBRANCH  19  20
ENDBRANCH  18  19
ENDBRANCH  17  18
ENDBRANCH  15  17
ENDBRANCH  14  15
ENDBRANCH   8  14
TORSDOF 6
ENDMDL
MODEL 6
REMARK VINA RESULT:      -6.5      2.820      4.787
REMARK  Name = 
REMARK  6 active torsions:
REMARK  status: ('A' for Active; 'I' for Inactive)
REMARK    1  A    between atoms: C_8  and  C_9
REMARK    2  A    between atoms: C_9  and  N_10
REMARK    3  A    between atoms: N_10  and  C_11
REMARK    4  A    between atoms: C_11  and  C_12
REMARK    5  A    between atoms: C_12  and  C_13
REMARK    6  A    between atoms: C_13  and  C_14
REMARK                            x       y       z     vdW  Elec       q    Type
REMARK                         _______ _______ _______ _____ _____    ______ ____
ROOT
ATOM      1  N   UNL     1       7.807   5.469  14.296  0.00  0.00    +0.000 N 
ATOM      2  C   UNL     1       6.757   5.147  15.152  0.00  0.00    +0.000 A 
ATOM      3  C   UNL     1       6.311   3.840  15.243  0.00  0.00    +0.000 A 
ATOM      4  C   UNL     1       5.194   3.567  16.023  0.00  0.00    +0.000 A 
ATOM      5  C   UNL     1       4.533   4.615  16.670  0.00  0.00    +0.000 A 
ATOM      6  C   UNL     1       3.366   4.396  17.418  0.00  0.00    +0.000 A 
ATOM      7  C   UNL     1       2.707   5.467  18.017  0.00  0.00    +0.000 A 
ATOM      8  C   UNL     1       3.213   6.765  17.899  0.00  0.00    +0.000 A 
ATOM      9  C   UNL     1       4.396   6.961  17.164  0.00  0.00    +0.000 A 
ATOM     10  C   UNL     1       5.062   5.915  16.531  0.00  0.00    +0.000 A 
ATOM     11  N   UNL     1       6.160   6.169  15.791  0.00  0.00    +0.000 NA
ATOM     12  H   UNL     1       8.611   4.866  14.413  0.00  0.00    +0.000 HD
ATOM     13  H   UNL     1       8.023   6.453  14.433  0.00  0.00    +0.000 HD
ENDROOT
BRANCH   8  14
ATOM     14  C   UNL     1       2.479   7.931  18.525  0.00  0.00    +0.000 C 
BRANCH  14  15
ATOM     15  N   UNL     1       2.077   8.894  17.502  0.00  0.00    +0.000 NA
ATOM     16  H   UNL     1       1.343   8.473  16.932  0.00  0.00    +0.000 HD
BRANCH  15  17
ATOM     17  C   UNL     1       1.603  10.154  18.072  0.00  0.00    +0.000 C 
BRANCH  17  18
ATOM     18  C   UNL     1       0.089  10.050  18.283  0.00  0.00    +0.000 C 
BRANCH  18  19
ATOM     19  C   UNL     1      -0.442  11.173  19.177  0.00  0.00    +0.000 C 
BRANCH  19  20
ATOM     20  C   UNL     1      -0.536  10.754  20.625  0.00  0.00    +0.000 A 
ATOM     21  C   UNL     1      -0.992  11.643  21.601  0.00  0.00    +0.000 A 
ATOM     22  C   UNL     1      -1.066  11.230  22.929  0.00  0.00    +0.000 A 
ATOM     23  C   UNL     1      -0.691   9.934  23.237  0.00  0.00    +0.000 A 
ATOM     24  N   UNL     1      -0.256   9.043  22.316  0.00  0.00    +0.000 NA
ATOM     25  C   UNL     1      -0.193   9.471  21.035  0.00  0.00    +0.000 A 
ENDBRANCH  19  20
ENDBRANCH  18  19
ENDBRANCH  17  18
ENDBRANCH  15  17
ENDBRANCH  14  15
ENDBRANCH   8  14
TORSDOF 6
ENDMDL
MODEL 7
REMARK VINA RESULT:      -6.4      2.025      6.564
REMARK  Name = 
REMARK  6 active torsions:
REMARK  status: ('A' for Active; 'I' for Inactive)
REMARK    1  A    between atoms: C_8  and  C_9
REMARK    2  A    between atoms: C_9  and  N_10
REMARK    3  A    between atoms: N_10  and  C_11
REMARK    4  A    between atoms: C_11  and  C_12
REMARK    5  A    between atoms: C_12  and  C_13
REMARK    6  A    between atoms: C_13  and  C_14
REMARK                            x       y       z     vdW  Elec       q    Type
REMARK                         _______ _______ _______ _____ _____    ______ ____
ROOT
ATOM      1  N   UNL     1      -0.449  12.840  19.166  0.00  0.00    +0.000 N 
ATOM      2  C   UNL     1      -0.059  11.560  19.553  0.00  0.00    +0.000 A 
ATOM      3  C   UNL     1      -0.272  11.134  20.853  0.00  0.00    +0.000 A 
ATOM      4  C   UNL     1       0.224   9.895  21.240  0.00  0.00    +0.000 A 
ATOM      5  C   UNL     1       0.946   9.125  20.323  0.00  0.00    +0.000 A 
ATOM      6  C   UNL     1       1.518   7.896  20.686  0.00  0.00    +0.000 A 
ATOM      7  C   UNL     1       2.267   7.171  19.762  0.00  0.00    +0.000 A 
ATOM      8  C   UNL     1       2.437   7.650  18.459  0.00  0.00    +0.000 A 
ATOM      9  C   UNL     1       1.838   8.873  18.108  0.00  0.00    +0.000 A 
ATOM     10  C   UNL     1       1.107   9.632  19.017  0.00  0.00    +0.000 A 
ATOM     11  N   UNL     1       0.603  10.825  18.642  0.00  0.00    +0.000 NA
ATOM     12  H   UNL     1      -1.405  13.055  19.418  0.00  0.00    +0.000 HD
ATOM     13  H   UNL     1      -0.272  12.924  18.169  0.00  0.00    +0.000 HD
ENDROOT
BRANCH   8  14
ATOM     14  C   UNL     1       3.277   6.876  17.465  0.00  0.00    +0.000 C 
BRANCH  14  15
ATOM     15  N   UNL     1       4.626   6.665  17.986  0.00  0.00    +0.000 NA
ATOM     16  H   UNL     1       4.667   7.033  18.937  0.00  0.00    +0.000 HD
BRANCH  15  17
ATOM     17  C   UNL     1       5.016   5.257  17.979  0.00  0.00    +0.000 C 
BRANCH  17  18
ATOM     18  C   UNL     1       3.933   4.458  17.247  0.00  0.00    +0.000 C 
BRANCH  18  19
ATOM     19  C   UNL     1       3.750   3.061  17.845  0.00  0.00    +0.000 C 
BRANCH  19  20
ATOM     20  C   UNL     1       2.998   3.095  19.154  0.00  0.00    +0.000 A 
ATOM     21  C   UNL     1       1.712   3.634  19.229  0.00  0.00    +0.000 A 
ATOM     22  C   UNL     1       1.043   3.655  20.450  0.00  0.00    +0.000 A 
ATOM     23  C   UNL     1       1.679   3.124  21.559  0.00  0.00    +0.000 A 
ATOM     24  N   UNL     1       2.919   2.584  21.520  0.00  0.00    +0.000 NA
ATOM     25  C   UNL     1       3.546   2.578  20.322  0.00  0.00    +0.000 A 
ENDBRANCH  19  20
ENDBRANCH  18  19
ENDBRANCH  17  18
ENDBRANCH  15  17
ENDBRANCH  14  15
ENDBRANCH   8  14
TORSDOF 6
ENDMDL
MODEL 8
REMARK VINA RESULT:      -6.2      3.876      6.701
REMARK  Name = 
REMARK  6 active torsions:
REMARK  status: ('A' for Active; 'I' for Inactive)
REMARK    1  A    between atoms: C_8  and  C_9
REMARK    2  A    between atoms: C_9  and  N_10
REMARK    3  A    between atoms: N_10  and  C_11
REMARK    4  A    between atoms: C_11  and  C_12
REMARK    5  A    between atoms: C_12  and  C_13
REMARK    6  A    between atoms: C_13  and  C_14
REMARK                            x       y       z     vdW  Elec       q    Type
REMARK                         _______ _______ _______ _____ _____    ______ ____
ROOT
ATOM      1  N   UNL     1       2.124   3.315  21.861  0.00  0.00    +0.000 N 
ATOM      2  C   UNL     1       2.406   3.475  20.506  0.00  0.00    +0.000 A 
ATOM      3  C   UNL     1       1.623   2.843  19.555  0.00  0.00    +0.000 A 
ATOM      4  C   UNL     1       1.992   2.934  18.219  0.00  0.00    +0.000 A 
ATOM      5  C   UNL     1       3.152   3.631  17.870  0.00  0.00    +0.000 A 
ATOM      6  C   UNL     1       3.597   3.698  16.541  0.00  0.00    +0.000 A 
ATOM      7  C   UNL     1       4.780   4.366  16.230  0.00  0.00    +0.000 A 
ATOM      8  C   UNL     1       5.521   4.995  17.234  0.00  0.00    +0.000 A 
ATOM      9  C   UNL     1       5.048   4.936  18.558  0.00  0.00    +0.000 A 
ATOM     10  C   UNL     1       3.885   4.253  18.902  0.00  0.00    +0.000 A 
ATOM     11  N   UNL     1       3.508   4.180  20.195  0.00  0.00    +0.000 NA
ATOM     12  H   UNL     1       1.152   3.485  22.085  0.00  0.00    +0.000 HD
ATOM     13  H   UNL     1       2.763   3.912  22.379  0.00  0.00    +0.000 HD
ENDROOT
BRANCH   8  14
ATOM     14  C   UNL     1       6.822   5.694  16.900  0.00  0.00    +0.000 C 
BRANCH  14  15
ATOM     15  N   UNL     1       6.770   7.097  17.306  0.00  0.00    +0.000 NA
ATOM     16  H   UNL     1       5.910   7.250  17.834  0.00  0.00    +0.000 HD
BRANCH  15  17
ATOM     17  C   UNL     1       7.925   7.491  18.109  0.00  0.00    +0.000 C 
BRANCH  17  18
ATOM     18  C   UNL     1       8.113   9.006  17.977  0.00  0.00    +0.000 C 
BRANCH  18  19
ATOM     19  C   UNL     1       9.130   9.547  18.985  0.00  0.00    +0.000 C 
BRANCH  19  20
ATOM     20  C   UNL     1       9.339  11.035  18.840  0.00  0.00    +0.000 A 
ATOM     21  C   UNL     1       8.726  11.749  17.807  0.00  0.00    +0.000 A 
ATOM     22  C   UNL     1       8.939  13.121  17.696  0.00  0.00    +0.000 A 
ATOM     23  C   UNL     1       9.752  13.739  18.631  0.00  0.00    +0.000 A 
ATOM     24  N   UNL     1      10.352  13.081  19.650  0.00  0.00    +0.000 NA
ATOM     25  C   UNL     1      10.129  11.750  19.733  0.00  0.00    +0.000 A 
ENDBRANCH  19  20
ENDBRANCH  18  19
ENDBRANCH  17  18
ENDBRANCH  15  17
ENDBRANCH  14  15
ENDBRANCH   8  14
TORSDOF 6
ENDMDL
MODEL 9
REMARK VINA RESULT:      -6.2      2.691      4.580
REMARK  Name = 
REMARK  6 active torsions:
REMARK  status: ('A' for Active; 'I' for Inactive)
REMARK    1  A    between atoms: C_8  and  C_9
REMARK    2  A    between atoms: C_9  and  N_10
REMARK    3  A    between atoms: N_10  and  C_11
REMARK    4  A    between atoms: C_11  and  C_12
REMARK    5  A    between atoms: C_12  and  C_13
REMARK    6  A    between atoms: C_13  and  C_14
REMARK                            x       y       z     vdW  Elec       q    Type
REMARK                         _______ _______ _______ _____ _____    ______ ____
ROOT
ATOM      1  N   UNL     1       8.564   6.004  12.295  0.00  0.00    +0.000 N 
ATOM      2  C   UNL     1       7.749   5.267  13.151  0.00  0.00    +0.000 A 
ATOM      3  C   UNL     1       6.859   4.341  12.634  0.00  0.00    +0.000 A 
ATOM      4  C   UNL     1       5.984   3.699  13.502  0.00  0.00    +0.000 A 
ATOM      5  C   UNL     1       6.002   4.023  14.862  0.00  0.00    +0.000 A 
ATOM      6  C   UNL     1       5.096   3.446  15.765  0.00  0.00    +0.000 A 
ATOM      7  C   UNL     1       5.111   3.820  17.108  0.00  0.00    +0.000 A 
ATOM      8  C   UNL     1       6.043   4.753  17.571  0.00  0.00    +0.000 A 
ATOM      9  C   UNL     1       6.957   5.304  16.655  0.00  0.00    +0.000 A 
ATOM     10  C   UNL     1       6.948   4.970  15.303  0.00  0.00    +0.000 A 
ATOM     11  N   UNL     1       7.810   5.572  14.459  0.00  0.00    +0.000 NA
ATOM     12  H   UNL     1       9.058   5.427  11.626  0.00  0.00    +0.000 HD
ATOM     13  H   UNL     1       9.185   6.565  12.871  0.00  0.00    +0.000 HD
ENDROOT
BRANCH   8  14
ATOM     14  C   UNL     1       6.038   5.180  19.023  0.00  0.00    +0.000 C 
BRANCH  14  15
ATOM     15  N   UNL     1       4.703   5.618  19.427  0.00  0.00    +0.000 NA
ATOM     16  H   UNL     1       4.738   5.905  20.405  0.00  0.00    +0.000 HD
BRANCH  15  17
ATOM     17  C   UNL     1       4.199   6.715  18.603  0.00  0.00    +0.000 C 
BRANCH  17  18
ATOM     18  C   UNL     1       2.669   6.719  18.686  0.00  0.00    +0.000 C 
BRANCH  18  19
ATOM     19  C   UNL     1       2.053   5.527  17.951  0.00  0.00    +0.000 C 
BRANCH  19  20
ATOM     20  C   UNL     1       1.797   4.359  18.872  0.00  0.00    +0.000 A 
ATOM     21  C   UNL     1       1.528   4.560  20.229  0.00  0.00    +0.000 A 
ATOM     22  C   UNL     1       1.298   3.464  21.056  0.00  0.00    +0.000 A 
ATOM     23  C   UNL     1       1.334   2.198  20.498  0.00  0.00    +0.000 A 
ATOM     24  N   UNL     1       1.580   1.967  19.187  0.00  0.00    +0.000 NA
ATOM     25  C   UNL     1       1.801   3.049  18.407  0.00  0.00    +0.000 A 
ENDBRANCH  19  20
ENDBRANCH  18  19
ENDBRANCH  17  18
ENDBRANCH  15  17
ENDBRANCH  14  15
ENDBRANCH   8  14
TORSDOF 6
ENDMDL
