MODEL 1
REMARK VINA RESULT:      -7.9      0.000      0.000
REMARK  Name = 
REMARK  8 active torsions:
REMARK  status: ('A' for Active; 'I' for Inactive)
REMARK    1  A    between atoms: C_1  and  C_2
REMARK    2  A    between atoms: C_2  and  O_4
REMARK    3  A    between atoms: O_4  and  C_5
REMARK    4  A    between atoms: C_8  and  C_9
REMARK    5  A    between atoms: C_9  and  O_10
REMARK    6  A    between atoms: C_9  and  C_14
REMARK    7  A    between atoms: O_10  and  C_11
REMARK    8  A    between atoms: C_11  and  C_12
REMARK                            x       y       z     vdW  Elec       q    Type
REMARK                         _______ _______ _______ _____ _____    ______ ____
ROOT
ATOM      1  C   UNL     1       3.163   6.263  18.928  0.00  0.00    +0.000 C 
ENDROOT
BRANCH   1   5
ATOM      2  C   UNL     1       6.510   5.206  16.379  0.00  0.00    +0.000 A 
ATOM      3  C   UNL     1       5.585   6.163  15.957  0.00  0.00    +0.000 A 
ATOM      4  C   UNL     1       4.517   6.519  16.791  0.00  0.00    +0.000 A 
ATOM      5  C   UNL     1       4.357   5.908  18.046  0.00  0.00    +0.000 A 
ATOM      6  C   UNL     1       5.302   4.948  18.448  0.00  0.00    +0.000 A 
ATOM      7  C   UNL     1       6.361   4.585  17.614  0.00  0.00    +0.000 A 
BRANCH   2   8
ATOM      8  O   UNL     1       7.525   4.862  15.463  0.00  0.00    +0.000 OA
BRANCH   8  10
ATOM      9  C   UNL     1       6.253   3.841  13.760  0.00  0.00    +0.000 C 
ATOM     10  C   UNL     1       7.289   4.875  14.087  0.00  0.00    +0.000 C 
ATOM     11  O   UNL     1       7.820   5.593  13.251  0.00  0.00    +0.000 OA
ENDBRANCH   8  10
ENDBRANCH   2   8
ENDBRANCH   1   5
BRANCH   1  12
ATOM     12  C   UNL     1       2.337   5.056  19.357  0.00  0.00    +0.000 A 
ATOM     13  C   UNL     1       1.735   4.231  18.394  0.00  0.00    +0.000 A 
ATOM     14  C   UNL     1       1.030   3.085  18.775  0.00  0.00    +0.000 A 
ATOM     15  C   UNL     1       0.916   2.750  20.122  0.00  0.00    +0.000 A 
ATOM     16  C   UNL     1       1.498   3.563  21.091  0.00  0.00    +0.000 A 
ATOM     17  C   UNL     1       2.204   4.706  20.712  0.00  0.00    +0.000 A 
ENDBRANCH   1  12
BRANCH   1  18
ATOM     18  O   UNL     1       2.249   7.147  18.240  0.00  0.00    +0.000 OA
BRANCH  18  19
ATOM     19  C   UNL     1       1.943   8.302  18.881  0.00  0.00    +0.000 C 
ATOM     20  C   UNL     1       1.927   9.442  17.907  0.00  0.00    +0.000 C 
ATOM     21  O   UNL     1       1.681   8.416  20.070  0.00  0.00    +0.000 OA
ENDBRANCH  18  19
ENDBRANCH   1  18
TORSDOF 6
ENDMDL
MODEL 2
REMARK VINA RESULT:      -7.8      0.261      1.080
REMARK  Name = 
REMARK  8 active torsions:
REMARK  status: ('A' for Active; 'I' for Inactive)
REMARK    1  A    between atoms: C_1  and  C_2
REMARK    2  A    between atoms: C_2  and  O_4
REMARK    3  A    between atoms: O_4  and  C_5
REMARK    4  A    between atoms: C_8  and  C_9
REMARK    5  A    between atoms: C_9  and  O_10
REMARK    6  A    between atoms: C_9  and  C_14
REMARK    7  A    between atoms: O_10  and  C_11
REMARK    8  A    between atoms: C_11  and  C_12
REMARK                            x       y       z     vdW  Elec       q    Type
REMARK                         _______ _______ _______ _____ _____    ______ ____
ROOT
ATOM      1  C   UNL     1       3.087   6.249  18.885  0.00  0.00    +0.000 C 
ENDROOT
BRANCH   1   5
ATOM      2  C   UNL     1       6.521   5.558  16.327  0.00  0.00    +0.000 A 
ATOM      3  C   UNL     1       5.616   6.575  16.022  0.00  0.00    +0.000 A 
ATOM      4  C   UNL     1       4.519   6.812  16.860  0.00  0.00    +0.000 A 
ATOM      5  C   UNL     1       4.312   6.020  18.003  0.00  0.00    +0.000 A 
ATOM      6  C   UNL     1       5.237   5.003  18.289  0.00  0.00    +0.000 A 
ATOM      7  C   UNL     1       6.325   4.759  17.448  0.00  0.00    +0.000 A 
BRANCH   2   8
ATOM      8  O   UNL     1       7.568   5.347  15.406  0.00  0.00    +0.000 OA
BRANCH   8  10
ATOM      9  C   UNL     1       6.290   3.895  14.057  0.00  0.00    +0.000 C 
ATOM     10  C   UNL     1       7.303   5.001  14.080  0.00  0.00    +0.000 C 
ATOM     11  O   UNL     1       7.797   5.491  13.074  0.00  0.00    +0.000 OA
ENDBRANCH   8  10
ENDBRANCH   2   8
ENDBRANCH   1   5
BRANCH   1  12
ATOM     12  C   UNL     1       2.314   4.976  19.204  0.00  0.00    +0.000 A 
ATOM     13  C   UNL     1       2.010   4.646  20.535  0.00  0.00    +0.000 A 
ATOM     14  C   UNL     1       1.246   3.515  20.833  0.00  0.00    +0.000 A 
ATOM     15  C   UNL     1       0.776   2.697  19.809  0.00  0.00    +0.000 A 
ATOM     16  C   UNL     1       1.075   3.004  18.484  0.00  0.00    +0.000 A 
ATOM     17  C   UNL     1       1.837   4.135  18.183  0.00  0.00    +0.000 A 
ENDBRANCH   1  12
BRANCH   1  18
ATOM     18  O   UNL     1       2.143   7.140  18.248  0.00  0.00    +0.000 OA
BRANCH  18  19
ATOM     19  C   UNL     1       1.890   8.303  18.899  0.00  0.00    +0.000 C 
ATOM     20  C   UNL     1       1.907   9.448  17.931  0.00  0.00    +0.000 C 
ATOM     21  O   UNL     1       1.647   8.420  20.092  0.00  0.00    +0.000 OA
ENDBRANCH  18  19
ENDBRANCH   1  18
TORSDOF 6
ENDMDL
MODEL 3
REMARK VINA RESULT:      -7.6      0.295      1.517
REMARK  Name = 
REMARK  8 active torsions:
REMARK  status: ('A' for Active; 'I' for Inactive)
REMARK    1  A    between atoms: C_1  and  C_2
REMARK    2  A    between atoms: C_2  and  O_4
REMARK    3  A    between atoms: O_4  and  C_5
REMARK    4  A    between atoms: C_8  and  C_9
REMARK    5  A    between atoms: C_9  and  O_10
REMARK    6  A    between atoms: C_9  and  C_14
REMARK    7  A    between atoms: O_10  and  C_11
REMARK    8  A    between atoms: C_11  and  C_12
REMARK                            x       y       z     vdW  Elec       q    Type
REMARK                         _______ _______ _______ _____ _____    ______ ____
ROOT
ATOM      1  C   UNL     1       3.129   6.239  18.992  0.00  0.00    +0.000 C 
ENDROOT
BRANCH   1   5
ATOM      2  C   UNL     1       6.368   5.566  16.186  0.00  0.00    +0.000 A 
ATOM      3  C   UNL     1       6.339   4.875  17.398  0.00  0.00    +0.000 A 
ATOM      4  C   UNL     1       5.280   5.077  18.294  0.00  0.00    +0.000 A 
ATOM      5  C   UNL     1       4.252   5.985  17.989  0.00  0.00    +0.000 A 
ATOM      6  C   UNL     1       4.303   6.668  16.762  0.00  0.00    +0.000 A 
ATOM      7  C   UNL     1       5.363   6.475  15.874  0.00  0.00    +0.000 A 
BRANCH   2   8
ATOM      8  O   UNL     1       7.492   5.350  15.363  0.00  0.00    +0.000 OA
BRANCH   8  10
ATOM      9  C   UNL     1       6.399   3.883  13.875  0.00  0.00    +0.000 C 
ATOM     10  C   UNL     1       7.346   5.038  14.011  0.00  0.00    +0.000 C 
ATOM     11  O   UNL     1       7.885   5.589  13.061  0.00  0.00    +0.000 OA
ENDBRANCH   8  10
ENDBRANCH   2   8
ENDBRANCH   1   5
BRANCH   1  12
ATOM     12  C   UNL     1       2.381   4.978  19.407  0.00  0.00    +0.000 A 
ATOM     13  C   UNL     1       2.277   4.631  20.765  0.00  0.00    +0.000 A 
ATOM     14  C   UNL     1       1.538   3.513  21.160  0.00  0.00    +0.000 A 
ATOM     15  C   UNL     1       0.895   2.725  20.208  0.00  0.00    +0.000 A 
ATOM     16  C   UNL     1       0.995   3.050  18.858  0.00  0.00    +0.000 A 
ATOM     17  C   UNL     1       1.731   4.168  18.460  0.00  0.00    +0.000 A 
ENDBRANCH   1  12
BRANCH   1  18
ATOM     18  O   UNL     1       2.132   7.133  18.446  0.00  0.00    +0.000 OA
BRANCH  18  19
ATOM     19  C   UNL     1       1.797   8.195  19.220  0.00  0.00    +0.000 C 
ATOM     20  C   UNL     1       1.481   9.380  18.359  0.00  0.00    +0.000 C 
ATOM     21  O   UNL     1       1.725   8.198  20.441  0.00  0.00    +0.000 OA
ENDBRANCH  18  19
ENDBRANCH   1  18
TORSDOF 6
ENDMDL
MODEL 4
REMARK VINA RESULT:      -7.5      2.007      6.610
REMARK  Name = 
REMARK  8 active torsions:
REMARK  status: ('A' for Active; 'I' for Inactive)
REMARK    1  A    between atoms: C_1  and  C_2
REMARK    2  A    between atoms: C_2  and  O_4
REMARK    3  A    between atoms: O_4  and  C_5
REMARK    4  A    between atoms: C_8  and  C_9
REMARK    5  A    between atoms: C_9  and  O_10
REMARK    6  A    between atoms: C_9  and  C_14
REMARK    7  A    between atoms: O_10  and  C_11
REMARK    8  A    between atoms: C_11  and  C_12
REMARK                            x       y       z     vdW  Elec       q    Type
REMARK                         _______ _______ _______ _____ _____    ______ ____
ROOT
ATOM      1  C   UNL     1       6.322   5.511  16.157  0.00  0.00    +0.000 C 
ENDROOT
BRANCH   1   5
ATOM      2  C   UNL     1       2.606   4.548  18.176  0.00  0.00    +0.000 A 
ATOM      3  C   UNL     1       2.912   5.875  17.872  0.00  0.00    +0.000 A 
ATOM      4  C   UNL     1       4.102   6.183  17.200  0.00  0.00    +0.000 A 
ATOM      5  C   UNL     1       5.003   5.164  16.843  0.00  0.00    +0.000 A 
ATOM      6  C   UNL     1       4.671   3.836  17.159  0.00  0.00    +0.000 A 
ATOM      7  C   UNL     1       3.490   3.530  17.838  0.00  0.00    +0.000 A 
BRANCH   2   8
ATOM      8  O   UNL     1       1.416   4.325  18.900  0.00  0.00    +0.000 OA
BRANCH   8  10
ATOM      9  C   UNL     1       1.380   2.735  20.641  0.00  0.00    +0.000 C 
ATOM     10  C   UNL     1       1.000   3.032  19.221  0.00  0.00    +0.000 C 
ATOM     11  O   UNL     1       0.420   2.238  18.493  0.00  0.00    +0.000 OA
ENDBRANCH   8  10
ENDBRANCH   2   8
ENDBRANCH   1   5
BRANCH   1  12
ATOM     12  C   UNL     1       6.463   4.916  14.761  0.00  0.00    +0.000 A 
ATOM     13  C   UNL     1       5.482   4.044  14.261  0.00  0.00    +0.000 A 
ATOM     14  C   UNL     1       5.570   3.544  12.958  0.00  0.00    +0.000 A 
ATOM     15  C   UNL     1       6.637   3.906  12.140  0.00  0.00    +0.000 A 
ATOM     16  C   UNL     1       7.622   4.762  12.623  0.00  0.00    +0.000 A 
ATOM     17  C   UNL     1       7.536   5.264  13.923  0.00  0.00    +0.000 A 
ENDBRANCH   1  12
BRANCH   1  18
ATOM     18  O   UNL     1       7.450   5.021  16.916  0.00  0.00    +0.000 OA
BRANCH  18  19
ATOM     19  C   UNL     1       7.667   5.618  18.114  0.00  0.00    +0.000 C 
ATOM     20  C   UNL     1       7.731   7.106  17.943  0.00  0.00    +0.000 C 
ATOM     21  O   UNL     1       7.765   5.048  19.192  0.00  0.00    +0.000 OA
ENDBRANCH  18  19
ENDBRANCH   1  18
TORSDOF 6
ENDMDL
MODEL 5
REMARK VINA RESULT:      -7.5      2.054      6.724
REMARK  Name = 
REMARK  8 active torsions:
REMARK  status: ('A' for Active; 'I' for Inactive)
REMARK    1  A    between atoms: C_1  and  C_2
REMARK    2  A    between atoms: C_2  and  O_4
REMARK    3  A    between atoms: O_4  and  C_5
REMARK    4  A    between atoms: C_8  and  C_9
REMARK    5  A    between atoms: C_9  and  O_10
REMARK    6  A    between atoms: C_9  and  C_14
REMARK    7  A    between atoms: O_10  and  C_11
REMARK    8  A    between atoms: C_11  and  C_12
REMARK                            x       y       z     vdW  Elec       q    Type
REMARK                         _______ _______ _______ _____ _____    ______ ____
ROOT
ATOM      1  C   UNL     1       6.237   5.414  16.090  0.00  0.00    +0.000 C 
ENDROOT
BRANCH   1   5
ATOM      2  C   UNL     1       2.621   4.035  18.049  0.00  0.00    +0.000 A 
ATOM      3  C   UNL     1       2.846   5.402  17.879  0.00  0.00    +0.000 A 
ATOM      4  C   UNL     1       4.003   5.846  17.227  0.00  0.00    +0.000 A 
ATOM      5  C   UNL     1       4.953   4.923  16.754  0.00  0.00    +0.000 A 
ATOM      6  C   UNL     1       4.703   3.553  16.937  0.00  0.00    +0.000 A 
ATOM      7  C   UNL     1       3.555   3.110  17.596  0.00  0.00    +0.000 A 
BRANCH   2   8
ATOM      8  O   UNL     1       1.460   3.670  18.763  0.00  0.00    +0.000 OA
BRANCH   8  10
ATOM      9  C   UNL     1       1.609   2.623  20.870  0.00  0.00    +0.000 C 
ATOM     10  C   UNL     1       1.354   3.904  20.134  0.00  0.00    +0.000 C 
ATOM     11  O   UNL     1       1.094   4.964  20.687  0.00  0.00    +0.000 OA
ENDBRANCH   8  10
ENDBRANCH   2   8
ENDBRANCH   1   5
BRANCH   1  12
ATOM     12  C   UNL     1       6.413   4.923  14.658  0.00  0.00    +0.000 A 
ATOM     13  C   UNL     1       7.549   5.291  13.919  0.00  0.00    +0.000 A 
ATOM     14  C   UNL     1       7.752   4.793  12.628  0.00  0.00    +0.000 A 
ATOM     15  C   UNL     1       6.824   3.925  12.059  0.00  0.00    +0.000 A 
ATOM     16  C   UNL     1       5.688   3.557  12.774  0.00  0.00    +0.000 A 
ATOM     17  C   UNL     1       5.484   4.051  14.064  0.00  0.00    +0.000 A 
ENDBRANCH   1  12
BRANCH   1  18
ATOM     18  O   UNL     1       7.405   4.965  16.813  0.00  0.00    +0.000 OA
BRANCH  18  19
ATOM     19  C   UNL     1       7.623   5.552  18.016  0.00  0.00    +0.000 C 
ATOM     20  C   UNL     1       7.692   7.040  17.857  0.00  0.00    +0.000 C 
ATOM     21  O   UNL     1       7.719   4.973  19.090  0.00  0.00    +0.000 OA
ENDBRANCH  18  19
ENDBRANCH   1  18
TORSDOF 6
ENDMDL
MODEL 6
REMARK VINA RESULT:      -7.4      1.936      3.729
REMARK  Name = 
REMARK  8 active torsions:
REMARK  status: ('A' for Active; 'I' for Inactive)
REMARK    1  A    between atoms: C_1  and  C_2
REMARK    2  A    between atoms: C_2  and  O_4
REMARK    3  A    between atoms: O_4  and  C_5
REMARK    4  A    between atoms: C_8  and  C_9
REMARK    5  A    between atoms: C_9  and  O_10
REMARK    6  A    between atoms: C_9  and  C_14
REMARK    7  A    between atoms: O_10  and  C_11
REMARK    8  A    between atoms: C_11  and  C_12
REMARK                            x       y       z     vdW  Elec       q    Type
REMARK                         _______ _______ _______ _____ _____    ______ ____
ROOT
ATOM      1  C   UNL     1       2.357   5.234  19.550  0.00  0.00    +0.000 C 
ENDROOT
BRANCH   1   5
ATOM      2  C   UNL     1       5.768   4.391  17.008  0.00  0.00    +0.000 A 
ATOM      3  C   UNL     1       4.489   3.995  16.615  0.00  0.00    +0.000 A 
ATOM      4  C   UNL     1       3.385   4.287  17.427  0.00  0.00    +0.000 A 
ATOM      5  C   UNL     1       3.556   4.964  18.646  0.00  0.00    +0.000 A 
ATOM      6  C   UNL     1       4.854   5.353  19.019  0.00  0.00    +0.000 A 
ATOM      7  C   UNL     1       5.956   5.054  18.216  0.00  0.00    +0.000 A 
BRANCH   2   8
ATOM      8  O   UNL     1       6.833   4.014  16.164  0.00  0.00    +0.000 OA
BRANCH   8  10
ATOM      9  C   UNL     1       6.307   3.922  13.867  0.00  0.00    +0.000 C 
ATOM     10  C   UNL     1       7.049   4.656  14.944  0.00  0.00    +0.000 C 
ATOM     11  O   UNL     1       7.727   5.654  14.743  0.00  0.00    +0.000 OA
ENDBRANCH   8  10
ENDBRANCH   2   8
ENDBRANCH   1   5
BRANCH   1  12
ATOM     12  C   UNL     1       1.949   6.701  19.608  0.00  0.00    +0.000 A 
ATOM     13  C   UNL     1       1.468   7.256  20.806  0.00  0.00    +0.000 A 
ATOM     14  C   UNL     1       1.153   8.615  20.886  0.00  0.00    +0.000 A 
ATOM     15  C   UNL     1       1.313   9.438  19.774  0.00  0.00    +0.000 A 
ATOM     16  C   UNL     1       1.780   8.903  18.577  0.00  0.00    +0.000 A 
ATOM     17  C   UNL     1       2.097   7.545  18.494  0.00  0.00    +0.000 A 
ENDBRANCH   1  12
BRANCH   1  18
ATOM     18  O   UNL     1       2.631   4.842  20.914  0.00  0.00    +0.000 OA
BRANCH  18  19
ATOM     19  C   UNL     1       2.137   3.638  21.299  0.00  0.00    +0.000 C 
ATOM     20  C   UNL     1       0.916   3.303  20.497  0.00  0.00    +0.000 C 
ATOM     21  O   UNL     1       2.620   2.903  22.149  0.00  0.00    +0.000 OA
ENDBRANCH  18  19
ENDBRANCH   1  18
TORSDOF 6
ENDMDL
MODEL 7
REMARK VINA RESULT:      -7.4      2.058      6.693
REMARK  Name = 
REMARK  8 active torsions:
REMARK  status: ('A' for Active; 'I' for Inactive)
REMARK    1  A    between atoms: C_1  and  C_2
REMARK    2  A    between atoms: C_2  and  O_4
REMARK    3  A    between atoms: O_4  and  C_5
REMARK    4  A    between atoms: C_8  and  C_9
REMARK    5  A    between atoms: C_9  and  O_10
REMARK    6  A    between atoms: C_9  and  C_14
REMARK    7  A    between atoms: O_10  and  C_11
REMARK    8  A    between atoms: C_11  and  C_12
REMARK                            x       y       z     vdW  Elec       q    Type
REMARK                         _______ _______ _______ _____ _____    ______ ____
ROOT
ATOM      1  C   UNL     1       6.340   5.468  16.146  0.00  0.00    +0.000 C 
ENDROOT
BRANCH   1   5
ATOM      2  C   UNL     1       2.442   4.561  17.817  0.00  0.00    +0.000 A 
ATOM      3  C   UNL     1       3.240   3.535  17.310  0.00  0.00    +0.000 A 
ATOM      4  C   UNL     1       4.508   3.826  16.790  0.00  0.00    +0.000 A 
ATOM      5  C   UNL     1       4.979   5.150  16.760  0.00  0.00    +0.000 A 
ATOM      6  C   UNL     1       4.157   6.165  17.277  0.00  0.00    +0.000 A 
ATOM      7  C   UNL     1       2.889   5.877  17.786  0.00  0.00    +0.000 A 
BRANCH   2   8
ATOM      8  O   UNL     1       1.158   4.195  18.273  0.00  0.00    +0.000 OA
BRANCH   8  10
ATOM      9  C   UNL     1       1.443   3.382  20.468  0.00  0.00    +0.000 C 
ATOM     10  C   UNL     1       0.972   3.071  19.078  0.00  0.00    +0.000 C 
ATOM     11  O   UNL     1       0.509   1.989  18.744  0.00  0.00    +0.000 OA
ENDBRANCH   8  10
ENDBRANCH   2   8
ENDBRANCH   1   5
BRANCH   1  12
ATOM     12  C   UNL     1       6.522   4.914  14.738  0.00  0.00    +0.000 A 
ATOM     13  C   UNL     1       5.583   4.016  14.203  0.00  0.00    +0.000 A 
ATOM     14  C   UNL     1       5.706   3.554  12.889  0.00  0.00    +0.000 A 
ATOM     15  C   UNL     1       6.768   3.979  12.094  0.00  0.00    +0.000 A 
ATOM     16  C   UNL     1       7.712   4.861  12.611  0.00  0.00    +0.000 A 
ATOM     17  C   UNL     1       7.590   5.326  13.922  0.00  0.00    +0.000 A 
ENDBRANCH   1  12
BRANCH   1  18
ATOM     18  O   UNL     1       7.414   4.909  16.935  0.00  0.00    +0.000 OA
BRANCH  18  19
ATOM     19  C   UNL     1       7.627   5.486  18.144  0.00  0.00    +0.000 C 
ATOM     20  C   UNL     1       7.775   6.970  17.987  0.00  0.00    +0.000 C 
ATOM     21  O   UNL     1       7.662   4.906  19.220  0.00  0.00    +0.000 OA
ENDBRANCH  18  19
ENDBRANCH   1  18
TORSDOF 6
ENDMDL
MODEL 8
REMARK VINA RESULT:      -7.4      2.158      6.695
REMARK  Name = 
REMARK  8 active torsions:
REMARK  status: ('A' for Active; 'I' for Inactive)
REMARK    1  A    between atoms: C_1  and  C_2
REMARK    2  A    between atoms: C_2  and  O_4
REMARK    3  A    between atoms: O_4  and  C_5
REMARK    4  A    between atoms: C_8  and  C_9
REMARK    5  A    between atoms: C_9  and  O_10
REMARK    6  A    between atoms: C_9  and  C_14
REMARK    7  A    between atoms: O_10  and  C_11
REMARK    8  A    between atoms: C_11  and  C_12
REMARK                            x       y       z     vdW  Elec       q    Type
REMARK                         _______ _______ _______ _____ _____    ______ ____
ROOT
ATOM      1  C   UNL     1       6.022   5.692  15.879  0.00  0.00    +0.000 C 
ENDROOT
BRANCH   1   5
ATOM      2  C   UNL     1       2.978   3.804  18.325  0.00  0.00    +0.000 A 
ATOM      3  C   UNL     1       4.013   3.040  17.784  0.00  0.00    +0.000 A 
ATOM      4  C   UNL     1       5.008   3.654  17.012  0.00  0.00    +0.000 A 
ATOM      5  C   UNL     1       4.964   5.037  16.763  0.00  0.00    +0.000 A 
ATOM      6  C   UNL     1       3.912   5.784  17.320  0.00  0.00    +0.000 A 
ATOM      7  C   UNL     1       2.915   5.171  18.080  0.00  0.00    +0.000 A 
BRANCH   2   8
ATOM      8  O   UNL     1       1.986   3.104  19.044  0.00  0.00    +0.000 OA
BRANCH   8  10
ATOM      9  C   UNL     1       2.361   2.885  21.362  0.00  0.00    +0.000 C 
ATOM     10  C   UNL     1       1.550   3.552  20.291  0.00  0.00    +0.000 C 
ATOM     11  O   UNL     1       0.654   4.354  20.518  0.00  0.00    +0.000 OA
ENDBRANCH   8  10
ENDBRANCH   2   8
ENDBRANCH   1   5
BRANCH   1  12
ATOM     12  C   UNL     1       6.256   4.965  14.561  0.00  0.00    +0.000 A 
ATOM     13  C   UNL     1       5.267   4.119  14.033  0.00  0.00    +0.000 A 
ATOM     14  C   UNL     1       5.446   3.499  12.793  0.00  0.00    +0.000 A 
ATOM     15  C   UNL     1       6.615   3.713  12.066  0.00  0.00    +0.000 A 
ATOM     16  C   UNL     1       7.610   4.541  12.579  0.00  0.00    +0.000 A 
ATOM     17  C   UNL     1       7.432   5.163  13.816  0.00  0.00    +0.000 A 
ENDBRANCH   1  12
BRANCH   1  18
ATOM     18  O   UNL     1       7.304   5.737  16.544  0.00  0.00    +0.000 OA
BRANCH  18  19
ATOM     19  C   UNL     1       7.489   6.761  17.414  0.00  0.00    +0.000 C 
ATOM     20  C   UNL     1       7.793   6.227  18.781  0.00  0.00    +0.000 C 
ATOM     21  O   UNL     1       7.451   7.953  17.139  0.00  0.00    +0.000 OA
ENDBRANCH  18  19
ENDBRANCH   1  18
TORSDOF 6
ENDMDL
MODEL 9
REMARK VINA RESULT:      -7.3      0.808      1.068
REMARK  Name = 
REMARK  8 active torsions:
REMARK  status: ('A' for Active; 'I' for Inactive)
REMARK    1  A    between atoms: C_1  and  C_2
REMARK    2  A    between atoms: C_2  and  O_4
REMARK    3  A    between atoms: O_4  and  C_5
REMARK    4  A    between atoms: C_8  and  C_9
REMARK    5  A    between atoms: C_9  and  O_10
REMARK    6  A    between atoms: C_9  and  C_14
REMARK    7  A    between atoms: O_10  and  C_11
REMARK    8  A    between atoms: C_11  and  C_12
REMARK                            x       y       z     vdW  Elec       q    Type
REMARK                         _______ _______ _______ _____ _____    ______ ____
ROOT
ATOM      1  C   UNL     1       3.141   6.091  18.934  0.00  0.00    +0.000 C 
ENDROOT
BRANCH   1   5
ATOM      2  C   UNL     1       6.028   4.678  16.022  0.00  0.00    +0.000 A 
ATOM      3  C   UNL     1       5.017   3.828  16.472  0.00  0.00    +0.000 A 
ATOM      4  C   UNL     1       4.072   4.293  17.397  0.00  0.00    +0.000 A 
ATOM      5  C   UNL     1       4.143   5.607  17.889  0.00  0.00    +0.000 A 
ATOM      6  C   UNL     1       5.170   6.443  17.419  0.00  0.00    +0.000 A 
ATOM      7  C   UNL     1       6.118   5.978  16.506  0.00  0.00    +0.000 A 
BRANCH   2   8
ATOM      8  O   UNL     1       6.972   4.121  15.134  0.00  0.00    +0.000 OA
BRANCH   8  10
ATOM      9  C   UNL     1       6.263   3.686  12.928  0.00  0.00    +0.000 C 
ATOM     10  C   UNL     1       7.079   4.574  13.819  0.00  0.00    +0.000 C 
ATOM     11  O   UNL     1       7.725   5.531  13.415  0.00  0.00    +0.000 OA
ENDBRANCH   8  10
ENDBRANCH   2   8
ENDBRANCH   1   5
BRANCH   1  12
ATOM     12  C   UNL     1       2.407   4.964  19.649  0.00  0.00    +0.000 A 
ATOM     13  C   UNL     1       1.421   4.223  18.977  0.00  0.00    +0.000 A 
ATOM     14  C   UNL     1       0.788   3.145  19.603  0.00  0.00    +0.000 A 
ATOM     15  C   UNL     1       1.129   2.794  20.907  0.00  0.00    +0.000 A 
ATOM     16  C   UNL     1       2.098   3.523  21.591  0.00  0.00    +0.000 A 
ATOM     17  C   UNL     1       2.733   4.599  20.967  0.00  0.00    +0.000 A 
ENDBRANCH   1  12
BRANCH   1  18
ATOM     18  O   UNL     1       2.117   6.917  18.335  0.00  0.00    +0.000 OA
BRANCH  18  19
ATOM     19  C   UNL     1       1.937   8.141  18.892  0.00  0.00    +0.000 C 
ATOM     20  C   UNL     1       2.038   9.204  17.840  0.00  0.00    +0.000 C 
ATOM     21  O   UNL     1       1.694   8.364  20.069  0.00  0.00    +0.000 OA
ENDBRANCH  18  19
ENDBRANCH   1  18
TORSDOF 6
ENDMDL
