MODEL 1
REMARK VINA RESULT:      -8.4      0.000      0.000
REMARK  Name = 
REMARK  10 active torsions:
REMARK  status: ('A' for Active; 'I' for Inactive)
REMARK    1  A    between atoms: C_2  and  C_3
REMARK    2  A    between atoms: C_3  and  N_4
REMARK    3  A    between atoms: C_5  and  C_7
REMARK    4  A    between atoms: C_7  and  C_8
REMARK    5  A    between atoms: C_8  and  N_9
REMARK    6  A    between atoms: C_8  and  C_13
REMARK    7  A    between atoms: C_10  and  C_11
REMARK    8  A    between atoms: C_21  and  C_22
REMARK    9  A    between atoms: C_25  and  S_26
REMARK   10  A    between atoms: S_26  and  C_27
REMARK                            x       y       z     vdW  Elec       q    Type
REMARK                         _______ _______ _______ _____ _____    ______ ____
ROOT
ATOM      1  N   UNL     1       6.298   5.252  16.559  0.00  0.00    +0.000 N 
ATOM      2  C   UNL     1       4.892   5.293  16.592  0.00  0.00    +0.000 C 
ATOM      3  O   UNL     1       4.187   4.520  15.938  0.00  0.00    +0.000 OA
ATOM      4  C   UNL     1       7.032   6.152  17.319  0.00  0.00    +0.000 A 
ATOM      5  N   UNL     1       7.187   7.445  17.122  0.00  0.00    +0.000 NA
ATOM      6  C   UNL     1       7.979   7.977  18.144  0.00  0.00    +0.000 A 
ATOM      7  C   UNL     1       8.395   7.044  19.082  0.00  0.00    +0.000 A 
ATOM      8  S   UNL     1       7.813   5.486  18.685  0.00  0.00    +0.000 S 
ENDROOT
BRANCH   6   9
ATOM      9  C   UNL     1       8.345   9.398  18.226  0.00  0.00    +0.000 A 
ATOM     10  C   UNL     1       9.295   9.838  19.166  0.00  0.00    +0.000 A 
ATOM     11  C   UNL     1       9.683  11.185  19.233  0.00  0.00    +0.000 A 
ATOM     12  C   UNL     1       9.125  12.101  18.338  0.00  0.00    +0.000 A 
ATOM     13  C   UNL     1       8.156  11.694  17.418  0.00  0.00    +0.000 A 
ATOM     14  C   UNL     1       7.769  10.340  17.365  0.00  0.00    +0.000 A 
BRANCH  12  15
ATOM     15  S   UNL     1       9.632  13.809  18.412  0.00  0.00    +0.000 S 
ATOM     16  C   UNL     1      10.218  13.985  20.076  0.00  0.00    +0.000 C 
ATOM     17  O   UNL     1      10.758  13.964  17.513  0.00  0.00    +0.000 OA
ATOM     18  O   UNL     1       8.440  14.624  18.264  0.00  0.00    +0.000 OA
ENDBRANCH  12  15
ENDBRANCH   6   9
BRANCH   1  19
ATOM     19  C   UNL     1       7.002   4.384  15.615  0.00  0.00    +0.000 C 
BRANCH  19  21
ATOM     20  C   UNL     1       6.355   3.812  13.238  0.00  0.00    +0.000 C 
ATOM     21  C   UNL     1       6.655   4.710  14.191  0.00  0.00    +0.000 C 
ENDBRANCH  19  21
ENDBRANCH   1  19
BRANCH   2  22
ATOM     22  C   UNL     1       4.272   6.368  17.475  0.00  0.00    +0.000 C 
BRANCH  22  23
ATOM     23  C   UNL     1       2.809   6.241  17.945  0.00  0.00    +0.000 C 
BRANCH  23  24
ATOM     24  C   UNL     1       2.283   7.567  18.537  0.00  0.00    +0.000 A 
ATOM     25  C   UNL     1       1.863   7.675  19.878  0.00  0.00    +0.000 A 
ATOM     26  C   UNL     1       1.323   8.855  20.391  0.00  0.00    +0.000 A 
ATOM     27  C   UNL     1       1.202   9.970  19.577  0.00  0.00    +0.000 A 
ATOM     28  C   UNL     1       1.635   9.910  18.254  0.00  0.00    +0.000 A 
ATOM     29  C   UNL     1       2.177   8.722  17.737  0.00  0.00    +0.000 A 
ENDBRANCH  23  24
BRANCH  23  30
ATOM     30  N   UNL     1       2.571   5.133  18.877  0.00  0.00    +0.000 N 
ATOM     31  C   UNL     1       1.736   4.068  18.619  0.00  0.00    +0.000 C 
ATOM     32  C   UNL     1       1.674   3.047  19.724  0.00  0.00    +0.000 C 
ATOM     33  O   UNL     1       1.061   3.956  17.600  0.00  0.00    +0.000 OA
ATOM     34  H   UNL     1       2.984   5.210  19.796  0.00  0.00    +0.000 HD
ENDBRANCH  23  30
ENDBRANCH  22  23
ENDBRANCH   2  22
TORSDOF 8
ENDMDL
MODEL 2
REMARK VINA RESULT:      -8.1      0.704      1.187
REMARK  Name = 
REMARK  10 active torsions:
REMARK  status: ('A' for Active; 'I' for Inactive)
REMARK    1  A    between atoms: C_2  and  C_3
REMARK    2  A    between atoms: C_3  and  N_4
REMARK    3  A    between atoms: C_5  and  C_7
REMARK    4  A    between atoms: C_7  and  C_8
REMARK    5  A    between atoms: C_8  and  N_9
REMARK    6  A    between atoms: C_8  and  C_13
REMARK    7  A    between atoms: C_10  and  C_11
REMARK    8  A    between atoms: C_21  and  C_22
REMARK    9  A    between atoms: C_25  and  S_26
REMARK   10  A    between atoms: S_26  and  C_27
REMARK                            x       y       z     vdW  Elec       q    Type
REMARK                         _______ _______ _______ _____ _____    ______ ____
ROOT
ATOM      1  N   UNL     1       6.245   5.147  16.592  0.00  0.00    +0.000 N 
ATOM      2  C   UNL     1       4.840   5.196  16.644  0.00  0.00    +0.000 C 
ATOM      3  O   UNL     1       4.122   4.421  16.007  0.00  0.00    +0.000 OA
ATOM      4  C   UNL     1       6.994   6.050  17.334  0.00  0.00    +0.000 A 
ATOM      5  N   UNL     1       7.152   7.340  17.124  0.00  0.00    +0.000 NA
ATOM      6  C   UNL     1       7.961   7.877  18.130  0.00  0.00    +0.000 A 
ATOM      7  C   UNL     1       8.386   6.951  19.070  0.00  0.00    +0.000 A 
ATOM      8  S   UNL     1       7.790   5.392  18.694  0.00  0.00    +0.000 S 
ENDROOT
BRANCH   6   9
ATOM      9  C   UNL     1       8.335   9.297  18.195  0.00  0.00    +0.000 A 
ATOM     10  C   UNL     1       7.696  10.243  17.372  0.00  0.00    +0.000 A 
ATOM     11  C   UNL     1       8.015  11.607  17.447  0.00  0.00    +0.000 A 
ATOM     12  C   UNL     1       8.976  12.034  18.367  0.00  0.00    +0.000 A 
ATOM     13  C   UNL     1       9.648  11.110  19.170  0.00  0.00    +0.000 A 
ATOM     14  C   UNL     1       9.324   9.741  19.082  0.00  0.00    +0.000 A 
BRANCH  12  15
ATOM     15  S   UNL     1       9.369  13.770  18.474  0.00  0.00    +0.000 S 
ATOM     16  C   UNL     1      10.789  13.928  17.424  0.00  0.00    +0.000 C 
ATOM     17  O   UNL     1       8.271  14.498  17.871  0.00  0.00    +0.000 OA
ATOM     18  O   UNL     1       9.783  14.039  19.839  0.00  0.00    +0.000 OA
ENDBRANCH  12  15
ENDBRANCH   6   9
BRANCH   1  19
ATOM     19  C   UNL     1       6.931   4.268  15.645  0.00  0.00    +0.000 C 
BRANCH  19  21
ATOM     20  C   UNL     1       7.727   5.274  13.467  0.00  0.00    +0.000 C 
ATOM     21  C   UNL     1       6.762   4.732  14.228  0.00  0.00    +0.000 C 
ENDBRANCH  19  21
ENDBRANCH   1  19
BRANCH   2  22
ATOM     22  C   UNL     1       4.238   6.281  17.527  0.00  0.00    +0.000 C 
BRANCH  22  23
ATOM     23  C   UNL     1       2.764   6.192  17.974  0.00  0.00    +0.000 C 
BRANCH  23  24
ATOM     24  C   UNL     1       2.258   7.537  18.538  0.00  0.00    +0.000 A 
ATOM     25  C   UNL     1       1.880   7.690  19.888  0.00  0.00    +0.000 A 
ATOM     26  C   UNL     1       1.356   8.887  20.379  0.00  0.00    +0.000 A 
ATOM     27  C   UNL     1       1.210   9.974  19.533  0.00  0.00    +0.000 A 
ATOM     28  C   UNL     1       1.602   9.871  18.199  0.00  0.00    +0.000 A 
ATOM     29  C   UNL     1       2.127   8.666  17.705  0.00  0.00    +0.000 A 
ENDBRANCH  23  24
BRANCH  23  30
ATOM     30  N   UNL     1       2.487   5.102  18.917  0.00  0.00    +0.000 N 
ATOM     31  C   UNL     1       1.744   3.984  18.613  0.00  0.00    +0.000 C 
ATOM     32  C   UNL     1       1.619   2.997  19.744  0.00  0.00    +0.000 C 
ATOM     33  O   UNL     1       1.191   3.799  17.534  0.00  0.00    +0.000 OA
ATOM     34  H   UNL     1       2.793   5.234  19.872  0.00  0.00    +0.000 HD
ENDBRANCH  23  30
ENDBRANCH  22  23
ENDBRANCH   2  22
TORSDOF 8
ENDMDL
MODEL 3
REMARK VINA RESULT:      -8.1      6.302     10.626
REMARK  Name = 
REMARK  10 active torsions:
REMARK  status: ('A' for Active; 'I' for Inactive)
REMARK    1  A    between atoms: C_2  and  C_3
REMARK    2  A    between atoms: C_3  and  N_4
REMARK    3  A    between atoms: C_5  and  C_7
REMARK    4  A    between atoms: C_7  and  C_8
REMARK    5  A    between atoms: C_8  and  N_9
REMARK    6  A    between atoms: C_8  and  C_13
REMARK    7  A    between atoms: C_10  and  C_11
REMARK    8  A    between atoms: C_21  and  C_22
REMARK    9  A    between atoms: C_25  and  S_26
REMARK   10  A    between atoms: S_26  and  C_27
REMARK                            x       y       z     vdW  Elec       q    Type
REMARK                         _______ _______ _______ _____ _____    ______ ____
ROOT
ATOM      1  N   UNL     1      -2.588  12.691  22.054  0.00  0.00    +0.000 N 
ATOM      2  C   UNL     1      -3.653  12.898  21.158  0.00  0.00    +0.000 C 
ATOM      3  O   UNL     1      -4.758  13.312  21.520  0.00  0.00    +0.000 OA
ATOM      4  C   UNL     1      -1.371  12.222  21.580  0.00  0.00    +0.000 A 
ATOM      5  N   UNL     1      -1.079  11.013  21.146  0.00  0.00    +0.000 NA
ATOM      6  C   UNL     1       0.255  10.980  20.731  0.00  0.00    +0.000 A 
ATOM      7  C   UNL     1       0.924  12.186  20.877  0.00  0.00    +0.000 A 
ATOM      8  S   UNL     1      -0.109  13.372  21.550  0.00  0.00    +0.000 S 
ENDROOT
BRANCH   6   9
ATOM      9  C   UNL     1       0.904   9.777  20.190  0.00  0.00    +0.000 A 
ATOM     10  C   UNL     1       1.314   9.730  18.845  0.00  0.00    +0.000 A 
ATOM     11  C   UNL     1       1.967   8.604  18.322  0.00  0.00    +0.000 A 
ATOM     12  C   UNL     1       2.227   7.516  19.158  0.00  0.00    +0.000 A 
ATOM     13  C   UNL     1       1.799   7.526  20.487  0.00  0.00    +0.000 A 
ATOM     14  C   UNL     1       1.138   8.659  21.001  0.00  0.00    +0.000 A 
BRANCH  12  15
ATOM     15  S   UNL     1       3.072   6.092  18.497  0.00  0.00    +0.000 S 
ATOM     16  C   UNL     1       4.192   6.800  17.317  0.00  0.00    +0.000 C 
ATOM     17  O   UNL     1       3.849   5.513  19.574  0.00  0.00    +0.000 OA
ATOM     18  O   UNL     1       2.093   5.302  17.773  0.00  0.00    +0.000 OA
ENDBRANCH  12  15
ENDBRANCH   6   9
BRANCH   1  19
ATOM     19  C   UNL     1      -2.789  12.808  23.498  0.00  0.00    +0.000 C 
BRANCH  19  21
ATOM     20  C   UNL     1      -3.460  14.887  24.771  0.00  0.00    +0.000 C 
ATOM     21  C   UNL     1      -2.609  14.221  23.974  0.00  0.00    +0.000 C 
ENDBRANCH  19  21
ENDBRANCH   1  19
BRANCH   2  22
ATOM     22  C   UNL     1      -3.378  12.562  19.698  0.00  0.00    +0.000 C 
BRANCH  22  23
ATOM     23  C   UNL     1      -4.445  11.839  18.851  0.00  0.00    +0.000 C 
BRANCH  23  24
ATOM     24  C   UNL     1      -3.813  11.087  17.659  0.00  0.00    +0.000 A 
ATOM     25  C   UNL     1      -2.652  10.300  17.800  0.00  0.00    +0.000 A 
ATOM     26  C   UNL     1      -2.041   9.680  16.709  0.00  0.00    +0.000 A 
ATOM     27  C   UNL     1      -2.587   9.817  15.443  0.00  0.00    +0.000 A 
ATOM     28  C   UNL     1      -3.752  10.562  15.269  0.00  0.00    +0.000 A 
ATOM     29  C   UNL     1      -4.365  11.189  16.367  0.00  0.00    +0.000 A 
ENDBRANCH  23  24
BRANCH  23  30
ATOM     30  N   UNL     1      -5.537  12.705  18.391  0.00  0.00    +0.000 N 
ATOM     31  C   UNL     1      -6.865  12.509  18.700  0.00  0.00    +0.000 C 
ATOM     32  C   UNL     1      -7.794  13.547  18.127  0.00  0.00    +0.000 C 
ATOM     33  O   UNL     1      -7.285  11.560  19.354  0.00  0.00    +0.000 OA
ATOM     34  H   UNL     1      -5.297  13.437  17.737  0.00  0.00    +0.000 HD
ENDBRANCH  23  30
ENDBRANCH  22  23
ENDBRANCH   2  22
TORSDOF 8
ENDMDL
MODEL 4
REMARK VINA RESULT:      -8.0      0.897      1.572
REMARK  Name = 
REMARK  10 active torsions:
REMARK  status: ('A' for Active; 'I' for Inactive)
REMARK    1  A    between atoms: C_2  and  C_3
REMARK    2  A    between atoms: C_3  and  N_4
REMARK    3  A    between atoms: C_5  and  C_7
REMARK    4  A    between atoms: C_7  and  C_8
REMARK    5  A    between atoms: C_8  and  N_9
REMARK    6  A    between atoms: C_8  and  C_13
REMARK    7  A    between atoms: C_10  and  C_11
REMARK    8  A    between atoms: C_21  and  C_22
REMARK    9  A    between atoms: C_25  and  S_26
REMARK   10  A    between atoms: S_26  and  C_27
REMARK                            x       y       z     vdW  Elec       q    Type
REMARK                         _______ _______ _______ _____ _____    ______ ____
ROOT
ATOM      1  N   UNL     1       5.966   5.192  16.882  0.00  0.00    +0.000 N 
ATOM      2  C   UNL     1       4.577   5.286  17.088  0.00  0.00    +0.000 C 
ATOM      3  O   UNL     1       3.770   4.535  16.534  0.00  0.00    +0.000 OA
ATOM      4  C   UNL     1       6.820   6.069  17.537  0.00  0.00    +0.000 A 
ATOM      5  N   UNL     1       6.996   7.354  17.306  0.00  0.00    +0.000 NA
ATOM      6  C   UNL     1       7.926   7.863  18.217  0.00  0.00    +0.000 A 
ATOM      7  C   UNL     1       8.421   6.923  19.107  0.00  0.00    +0.000 A 
ATOM      8  S   UNL     1       7.738   5.384  18.803  0.00  0.00    +0.000 S 
ENDROOT
BRANCH   6   9
ATOM      9  C   UNL     1       8.352   9.270  18.236  0.00  0.00    +0.000 A 
ATOM     10  C   UNL     1       7.763  10.207  17.367  0.00  0.00    +0.000 A 
ATOM     11  C   UNL     1       8.131  11.560  17.397  0.00  0.00    +0.000 A 
ATOM     12  C   UNL     1       9.090  11.987  18.319  0.00  0.00    +0.000 A 
ATOM     13  C   UNL     1       9.713  11.070  19.169  0.00  0.00    +0.000 A 
ATOM     14  C   UNL     1       9.340   9.711  19.125  0.00  0.00    +0.000 A 
BRANCH  12  15
ATOM     15  S   UNL     1       9.544  13.710  18.369  0.00  0.00    +0.000 S 
ATOM     16  C   UNL     1       8.023  14.540  17.993  0.00  0.00    +0.000 C 
ATOM     17  O   UNL     1       9.908  14.020  19.737  0.00  0.00    +0.000 OA
ATOM     18  O   UNL     1      10.471  13.948  17.277  0.00  0.00    +0.000 OA
ENDBRANCH  12  15
ENDBRANCH   6   9
BRANCH   1  19
ATOM     19  C   UNL     1       6.516   4.291  15.870  0.00  0.00    +0.000 C 
BRANCH  19  21
ATOM     20  C   UNL     1       6.616   4.169  13.346  0.00  0.00    +0.000 C 
ATOM     21  C   UNL     1       6.312   4.822  14.480  0.00  0.00    +0.000 C 
ENDBRANCH  19  21
ENDBRANCH   1  19
BRANCH   2  22
ATOM     22  C   UNL     1       4.110   6.390  18.027  0.00  0.00    +0.000 C 
BRANCH  22  23
ATOM     23  C   UNL     1       2.725   6.304  18.702  0.00  0.00    +0.000 C 
BRANCH  23  24
ATOM     24  C   UNL     1       2.107   7.703  18.913  0.00  0.00    +0.000 A 
ATOM     25  C   UNL     1       2.077   8.672  17.889  0.00  0.00    +0.000 A 
ATOM     26  C   UNL     1       1.582   9.960  18.103  0.00  0.00    +0.000 A 
ATOM     27  C   UNL     1       1.088  10.311  19.349  0.00  0.00    +0.000 A 
ATOM     28  C   UNL     1       1.073   9.370  20.377  0.00  0.00    +0.000 A 
ATOM     29  C   UNL     1       1.573   8.075  20.163  0.00  0.00    +0.000 A 
ENDBRANCH  23  24
BRANCH  23  30
ATOM     30  N   UNL     1       2.714   5.542  19.956  0.00  0.00    +0.000 N 
ATOM     31  C   UNL     1       2.038   4.356  20.136  0.00  0.00    +0.000 C 
ATOM     32  C   UNL     1       2.197   3.755  21.508  0.00  0.00    +0.000 C 
ATOM     33  O   UNL     1       1.331   3.831  19.281  0.00  0.00    +0.000 OA
ATOM     34  H   UNL     1       3.162   5.969  20.755  0.00  0.00    +0.000 HD
ENDBRANCH  23  30
ENDBRANCH  22  23
ENDBRANCH   2  22
TORSDOF 8
ENDMDL
MODEL 5
REMARK VINA RESULT:      -7.9      0.759      1.141
REMARK  Name = 
REMARK  10 active torsions:
REMARK  status: ('A' for Active; 'I' for Inactive)
REMARK    1  A    between atoms: C_2  and  C_3
REMARK    2  A    between atoms: C_3  and  N_4
REMARK    3  A    between atoms: C_5  and  C_7
REMARK    4  A    between atoms: C_7  and  C_8
REMARK    5  A    between atoms: C_8  and  N_9
REMARK    6  A    between atoms: C_8  and  C_13
REMARK    7  A    between atoms: C_10  and  C_11
REMARK    8  A    between atoms: C_21  and  C_22
REMARK    9  A    between atoms: C_25  and  S_26
REMARK   10  A    between atoms: S_26  and  C_27
REMARK                            x       y       z     vdW  Elec       q    Type
REMARK                         _______ _______ _______ _____ _____    ______ ____
ROOT
ATOM      1  N   UNL     1       5.864   5.090  16.891  0.00  0.00    +0.000 N 
ATOM      2  C   UNL     1       4.485   5.173  17.158  0.00  0.00    +0.000 C 
ATOM      3  O   UNL     1       3.658   4.428  16.626  0.00  0.00    +0.000 OA
ATOM      4  C   UNL     1       6.741   5.960  17.525  0.00  0.00    +0.000 A 
ATOM      5  N   UNL     1       6.902   7.249  17.312  0.00  0.00    +0.000 NA
ATOM      6  C   UNL     1       7.868   7.746  18.191  0.00  0.00    +0.000 A 
ATOM      7  C   UNL     1       8.405   6.792  19.041  0.00  0.00    +0.000 A 
ATOM      8  S   UNL     1       7.717   5.256  18.738  0.00  0.00    +0.000 S 
ENDROOT
BRANCH   6   9
ATOM      9  C   UNL     1       8.288   9.155  18.218  0.00  0.00    +0.000 A 
ATOM     10  C   UNL     1       9.268   9.592  19.129  0.00  0.00    +0.000 A 
ATOM     11  C   UNL     1       9.706  10.924  19.143  0.00  0.00    +0.000 A 
ATOM     12  C   UNL     1       9.167  11.830  18.226  0.00  0.00    +0.000 A 
ATOM     13  C   UNL     1       8.169  11.428  17.336  0.00  0.00    +0.000 A 
ATOM     14  C   UNL     1       7.732  10.089  17.334  0.00  0.00    +0.000 A 
BRANCH  12  15
ATOM     15  S   UNL     1       9.737  13.519  18.234  0.00  0.00    +0.000 S 
ATOM     16  C   UNL     1      10.685  13.619  19.729  0.00  0.00    +0.000 C 
ATOM     17  O   UNL     1      10.638  13.676  17.110  0.00  0.00    +0.000 OA
ATOM     18  O   UNL     1       8.571  14.371  18.380  0.00  0.00    +0.000 OA
ENDBRANCH  12  15
ENDBRANCH   6   9
BRANCH   1  19
ATOM     19  C   UNL     1       6.374   4.211  15.839  0.00  0.00    +0.000 C 
BRANCH  19  21
ATOM     20  C   UNL     1       6.892   4.720  13.417  0.00  0.00    +0.000 C 
ATOM     21  C   UNL     1       7.019   4.987  14.728  0.00  0.00    +0.000 C 
ENDBRANCH  19  21
ENDBRANCH   1  19
BRANCH   2  22
ATOM     22  C   UNL     1       4.054   6.257  18.137  0.00  0.00    +0.000 C 
BRANCH  22  23
ATOM     23  C   UNL     1       2.673   6.183  18.822  0.00  0.00    +0.000 C 
BRANCH  23  24
ATOM     24  C   UNL     1       2.054   7.585  19.005  0.00  0.00    +0.000 A 
ATOM     25  C   UNL     1       1.958   8.508  17.943  0.00  0.00    +0.000 A 
ATOM     26  C   UNL     1       1.462   9.799  18.127  0.00  0.00    +0.000 A 
ATOM     27  C   UNL     1       1.033  10.201  19.381  0.00  0.00    +0.000 A 
ATOM     28  C   UNL     1       1.083   9.307  20.449  0.00  0.00    +0.000 A 
ATOM     29  C   UNL     1       1.584   8.007  20.265  0.00  0.00    +0.000 A 
ENDBRANCH  23  24
BRANCH  23  30
ATOM     30  N   UNL     1       2.670   5.449  20.092  0.00  0.00    +0.000 N 
ATOM     31  C   UNL     1       2.095   4.211  20.272  0.00  0.00    +0.000 C 
ATOM     32  C   UNL     1       2.242   3.656  21.664  0.00  0.00    +0.000 C 
ATOM     33  O   UNL     1       1.478   3.608  19.399  0.00  0.00    +0.000 OA
ATOM     34  H   UNL     1       3.041   5.931  20.900  0.00  0.00    +0.000 HD
ENDBRANCH  23  30
ENDBRANCH  22  23
ENDBRANCH   2  22
TORSDOF 8
ENDMDL
MODEL 6
REMARK VINA RESULT:      -7.7      6.233     10.558
REMARK  Name = 
REMARK  10 active torsions:
REMARK  status: ('A' for Active; 'I' for Inactive)
REMARK    1  A    between atoms: C_2  and  C_3
REMARK    2  A    between atoms: C_3  and  N_4
REMARK    3  A    between atoms: C_5  and  C_7
REMARK    4  A    between atoms: C_7  and  C_8
REMARK    5  A    between atoms: C_8  and  N_9
REMARK    6  A    between atoms: C_8  and  C_13
REMARK    7  A    between atoms: C_10  and  C_11
REMARK    8  A    between atoms: C_21  and  C_22
REMARK    9  A    between atoms: C_25  and  S_26
REMARK   10  A    between atoms: S_26  and  C_27
REMARK                            x       y       z     vdW  Elec       q    Type
REMARK                         _______ _______ _______ _____ _____    ______ ____
ROOT
ATOM      1  N   UNL     1      -2.392  12.855  22.090  0.00  0.00    +0.000 N 
ATOM      2  C   UNL     1      -3.484  13.057  21.226  0.00  0.00    +0.000 C 
ATOM      3  O   UNL     1      -4.575  13.478  21.619  0.00  0.00    +0.000 OA
ATOM      4  C   UNL     1      -1.191  12.379  21.583  0.00  0.00    +0.000 A 
ATOM      5  N   UNL     1      -0.916  11.165  21.151  0.00  0.00    +0.000 NA
ATOM      6  C   UNL     1       0.404  11.124  20.695  0.00  0.00    +0.000 A 
ATOM      7  C   UNL     1       1.080  12.329  20.808  0.00  0.00    +0.000 A 
ATOM      8  S   UNL     1       0.072  13.525  21.502  0.00  0.00    +0.000 S 
ENDROOT
BRANCH   6   9
ATOM      9  C   UNL     1       1.032   9.914  20.145  0.00  0.00    +0.000 A 
ATOM     10  C   UNL     1       1.293   8.805  20.971  0.00  0.00    +0.000 A 
ATOM     11  C   UNL     1       1.857   7.630  20.454  0.00  0.00    +0.000 A 
ATOM     12  C   UNL     1       2.153   7.556  19.091  0.00  0.00    +0.000 A 
ATOM     13  C   UNL     1       1.935   8.655  18.258  0.00  0.00    +0.000 A 
ATOM     14  C   UNL     1       1.373   9.834  18.789  0.00  0.00    +0.000 A 
BRANCH  12  15
ATOM     15  S   UNL     1       2.854   6.055  18.432  0.00  0.00    +0.000 S 
ATOM     16  C   UNL     1       4.004   6.646  17.218  0.00  0.00    +0.000 C 
ATOM     17  O   UNL     1       3.602   5.423  19.500  0.00  0.00    +0.000 OA
ATOM     18  O   UNL     1       1.793   5.345  17.742  0.00  0.00    +0.000 OA
ENDBRANCH  12  15
ENDBRANCH   6   9
BRANCH   1  19
ATOM     19  C   UNL     1      -2.547  12.987  23.539  0.00  0.00    +0.000 C 
BRANCH  19  21
ATOM     20  C   UNL     1      -1.533  15.187  24.264  0.00  0.00    +0.000 C 
ATOM     21  C   UNL     1      -2.599  14.425  23.966  0.00  0.00    +0.000 C 
ENDBRANCH  19  21
ENDBRANCH   1  19
BRANCH   2  22
ATOM     22  C   UNL     1      -3.256  12.706  19.762  0.00  0.00    +0.000 C 
BRANCH  22  23
ATOM     23  C   UNL     1      -4.324  11.919  18.974  0.00  0.00    +0.000 C 
BRANCH  23  24
ATOM     24  C   UNL     1      -3.716  11.210  17.745  0.00  0.00    +0.000 A 
ATOM     25  C   UNL     1      -4.281  11.324  16.458  0.00  0.00    +0.000 A 
ATOM     26  C   UNL     1      -3.772  10.626  15.362  0.00  0.00    +0.000 A 
ATOM     27  C   UNL     1      -2.669   9.802  15.520  0.00  0.00    +0.000 A 
ATOM     28  C   UNL     1      -2.064   9.688  16.771  0.00  0.00    +0.000 A 
ATOM     29  C   UNL     1      -2.578  10.390  17.874  0.00  0.00    +0.000 A 
ENDBRANCH  23  24
BRANCH  23  30
ATOM     30  N   UNL     1      -5.491  12.717  18.582  0.00  0.00    +0.000 N 
ATOM     31  C   UNL     1      -6.786  12.432  18.954  0.00  0.00    +0.000 C 
ATOM     32  C   UNL     1      -7.808  13.412  18.442  0.00  0.00    +0.000 C 
ATOM     33  O   UNL     1      -7.110  11.450  19.615  0.00  0.00    +0.000 OA
ATOM     34  H   UNL     1      -5.332  13.471  17.927  0.00  0.00    +0.000 HD
ENDBRANCH  23  30
ENDBRANCH  22  23
ENDBRANCH   2  22
TORSDOF 8
ENDMDL
MODEL 7
REMARK VINA RESULT:      -7.7      5.990     10.352
REMARK  Name = 
REMARK  10 active torsions:
REMARK  status: ('A' for Active; 'I' for Inactive)
REMARK    1  A    between atoms: C_2  and  C_3
REMARK    2  A    between atoms: C_3  and  N_4
REMARK    3  A    between atoms: C_5  and  C_7
REMARK    4  A    between atoms: C_7  and  C_8
REMARK    5  A    between atoms: C_8  and  N_9
REMARK    6  A    between atoms: C_8  and  C_13
REMARK    7  A    between atoms: C_10  and  C_11
REMARK    8  A    between atoms: C_21  and  C_22
REMARK    9  A    between atoms: C_25  and  S_26
REMARK   10  A    between atoms: S_26  and  C_27
REMARK                            x       y       z     vdW  Elec       q    Type
REMARK                         _______ _______ _______ _____ _____    ______ ____
ROOT
ATOM      1  N   UNL     1      -1.542  13.027  21.848  0.00  0.00    +0.000 N 
ATOM      2  C   UNL     1      -2.727  13.251  21.124  0.00  0.00    +0.000 C 
ATOM      3  O   UNL     1      -3.717  13.795  21.619  0.00  0.00    +0.000 OA
ATOM      4  C   UNL     1      -0.464  12.408  21.230  0.00  0.00    +0.000 A 
ATOM      5  N   UNL     1      -0.344  11.145  20.879  0.00  0.00    +0.000 NA
ATOM      6  C   UNL     1       0.892  10.953  20.256  0.00  0.00    +0.000 A 
ATOM      7  C   UNL     1       1.665  12.100  20.166  0.00  0.00    +0.000 A 
ATOM      8  S   UNL     1       0.858  13.431  20.876  0.00  0.00    +0.000 S 
ENDROOT
BRANCH   6   9
ATOM      9  C   UNL     1       1.344   9.653  19.740  0.00  0.00    +0.000 A 
ATOM     10  C   UNL     1       1.660   9.495  18.378  0.00  0.00    +0.000 A 
ATOM     11  C   UNL     1       2.128   8.271  17.877  0.00  0.00    +0.000 A 
ATOM     12  C   UNL     1       2.296   7.194  18.751  0.00  0.00    +0.000 A 
ATOM     13  C   UNL     1       1.958   7.317  20.100  0.00  0.00    +0.000 A 
ATOM     14  C   UNL     1       1.482   8.549  20.592  0.00  0.00    +0.000 A 
BRANCH  12  15
ATOM     15  S   UNL     1       2.907   5.644  18.116  0.00  0.00    +0.000 S 
ATOM     16  C   UNL     1       3.618   4.874  19.546  0.00  0.00    +0.000 C 
ATOM     17  O   UNL     1       1.759   4.866  17.700  0.00  0.00    +0.000 OA
ATOM     18  O   UNL     1       3.980   5.948  17.186  0.00  0.00    +0.000 OA
ENDBRANCH  12  15
ENDBRANCH   6   9
BRANCH   1  19
ATOM     19  C   UNL     1      -1.480  13.288  23.286  0.00  0.00    +0.000 C 
BRANCH  19  21
ATOM     20  C   UNL     1      -1.920  15.535  24.358  0.00  0.00    +0.000 C 
ATOM     21  C   UNL     1      -1.179  14.729  23.579  0.00  0.00    +0.000 C 
ENDBRANCH  19  21
ENDBRANCH   1  19
BRANCH   2  22
ATOM     22  C   UNL     1      -2.734  12.766  19.680  0.00  0.00    +0.000 C 
BRANCH  22  23
ATOM     23  C   UNL     1      -3.923  11.941  19.143  0.00  0.00    +0.000 C 
BRANCH  23  24
ATOM     24  C   UNL     1      -3.544  11.167  17.861  0.00  0.00    +0.000 A 
ATOM     25  C   UNL     1      -2.476  10.248  17.828  0.00  0.00    +0.000 A 
ATOM     26  C   UNL     1      -2.091   9.602  16.652  0.00  0.00    +0.000 A 
ATOM     27  C   UNL     1      -2.777   9.848  15.475  0.00  0.00    +0.000 A 
ATOM     28  C   UNL     1      -3.859  10.727  15.474  0.00  0.00    +0.000 A 
ATOM     29  C   UNL     1      -4.245  11.378  16.658  0.00  0.00    +0.000 A 
ENDBRANCH  23  24
BRANCH  23  30
ATOM     30  N   UNL     1      -5.148  12.720  18.930  0.00  0.00    +0.000 N 
ATOM     31  C   UNL     1      -6.379  12.387  19.450  0.00  0.00    +0.000 C 
ATOM     32  C   UNL     1      -7.479  13.357  19.108  0.00  0.00    +0.000 C 
ATOM     33  O   UNL     1      -6.595  11.375  20.109  0.00  0.00    +0.000 OA
ATOM     34  H   UNL     1      -5.090  13.499  18.289  0.00  0.00    +0.000 HD
ENDBRANCH  23  30
ENDBRANCH  22  23
ENDBRANCH   2  22
TORSDOF 8
ENDMDL
MODEL 8
REMARK VINA RESULT:      -7.6      1.089      1.442
REMARK  Name = 
REMARK  10 active torsions:
REMARK  status: ('A' for Active; 'I' for Inactive)
REMARK    1  A    between atoms: C_2  and  C_3
REMARK    2  A    between atoms: C_3  and  N_4
REMARK    3  A    between atoms: C_5  and  C_7
REMARK    4  A    between atoms: C_7  and  C_8
REMARK    5  A    between atoms: C_8  and  N_9
REMARK    6  A    between atoms: C_8  and  C_13
REMARK    7  A    between atoms: C_10  and  C_11
REMARK    8  A    between atoms: C_21  and  C_22
REMARK    9  A    between atoms: C_25  and  S_26
REMARK   10  A    between atoms: S_26  and  C_27
REMARK                            x       y       z     vdW  Elec       q    Type
REMARK                         _______ _______ _______ _____ _____    ______ ____
ROOT
ATOM      1  N   UNL     1       5.544   5.024  16.891  0.00  0.00    +0.000 N 
ATOM      2  C   UNL     1       4.193   5.144  17.265  0.00  0.00    +0.000 C 
ATOM      3  O   UNL     1       3.296   4.471  16.750  0.00  0.00    +0.000 OA
ATOM      4  C   UNL     1       6.503   5.812  17.511  0.00  0.00    +0.000 A 
ATOM      5  N   UNL     1       6.707   7.105  17.369  0.00  0.00    +0.000 NA
ATOM      6  C   UNL     1       7.756   7.503  18.203  0.00  0.00    +0.000 A 
ATOM      7  C   UNL     1       8.309   6.473  18.948  0.00  0.00    +0.000 A 
ATOM      8  S   UNL     1       7.531   4.990  18.599  0.00  0.00    +0.000 S 
ENDROOT
BRANCH   6   9
ATOM      9  C   UNL     1       8.240   8.888  18.289  0.00  0.00    +0.000 A 
ATOM     10  C   UNL     1       7.787   9.861  17.379  0.00  0.00    +0.000 A 
ATOM     11  C   UNL     1       8.210  11.196  17.470  0.00  0.00    +0.000 A 
ATOM     12  C   UNL     1       9.087  11.566  18.493  0.00  0.00    +0.000 A 
ATOM     13  C   UNL     1       9.576  10.612  19.387  0.00  0.00    +0.000 A 
ATOM     14  C   UNL     1       9.150   9.272  19.282  0.00  0.00    +0.000 A 
BRANCH  12  15
ATOM     15  S   UNL     1       9.610  13.266  18.618  0.00  0.00    +0.000 S 
ATOM     16  C   UNL     1       8.197  14.073  19.322  0.00  0.00    +0.000 C 
ATOM     17  O   UNL     1      10.691  13.314  19.581  0.00  0.00    +0.000 OA
ATOM     18  O   UNL     1       9.791  13.766  17.267  0.00  0.00    +0.000 OA
ENDBRANCH  12  15
ENDBRANCH   6   9
BRANCH   1  19
ATOM     19  C   UNL     1       5.935   4.197  15.749  0.00  0.00    +0.000 C 
BRANCH  19  21
ATOM     20  C   UNL     1       7.031   4.833  13.561  0.00  0.00    +0.000 C 
ATOM     21  C   UNL     1       6.976   4.872  14.903  0.00  0.00    +0.000 C 
ENDBRANCH  19  21
ENDBRANCH   1  19
BRANCH   2  22
ATOM     22  C   UNL     1       3.884   6.177  18.341  0.00  0.00    +0.000 C 
BRANCH  22  23
ATOM     23  C   UNL     1       2.563   6.102  19.135  0.00  0.00    +0.000 C 
BRANCH  23  24
ATOM     24  C   UNL     1       2.022   7.508  19.473  0.00  0.00    +0.000 A 
ATOM     25  C   UNL     1       1.546   7.839  20.758  0.00  0.00    +0.000 A 
ATOM     26  C   UNL     1       0.992   9.088  21.043  0.00  0.00    +0.000 A 
ATOM     27  C   UNL     1       0.912  10.050  20.049  0.00  0.00    +0.000 A 
ATOM     28  C   UNL     1       1.401   9.770  18.774  0.00  0.00    +0.000 A 
ATOM     29  C   UNL     1       1.957   8.512  18.487  0.00  0.00    +0.000 A 
ENDBRANCH  23  24
BRANCH  23  30
ATOM     30  N   UNL     1       2.634   5.274  20.345  0.00  0.00    +0.000 N 
ATOM     31  C   UNL     1       1.882   4.140  20.554  0.00  0.00    +0.000 C 
ATOM     32  C   UNL     1       2.150   3.451  21.866  0.00  0.00    +0.000 C 
ATOM     33  O   UNL     1       1.033   3.724  19.770  0.00  0.00    +0.000 OA
ATOM     34  H   UNL     1       3.211   5.616  21.101  0.00  0.00    +0.000 HD
ENDBRANCH  23  30
ENDBRANCH  22  23
ENDBRANCH   2  22
TORSDOF 8
ENDMDL
MODEL 9
REMARK VINA RESULT:      -7.6      1.269      3.209
REMARK  Name = 
REMARK  10 active torsions:
REMARK  status: ('A' for Active; 'I' for Inactive)
REMARK    1  A    between atoms: C_2  and  C_3
REMARK    2  A    between atoms: C_3  and  N_4
REMARK    3  A    between atoms: C_5  and  C_7
REMARK    4  A    between atoms: C_7  and  C_8
REMARK    5  A    between atoms: C_8  and  N_9
REMARK    6  A    between atoms: C_8  and  C_13
REMARK    7  A    between atoms: C_10  and  C_11
REMARK    8  A    between atoms: C_21  and  C_22
REMARK    9  A    between atoms: C_25  and  S_26
REMARK   10  A    between atoms: S_26  and  C_27
REMARK                            x       y       z     vdW  Elec       q    Type
REMARK                         _______ _______ _______ _____ _____    ______ ____
ROOT
ATOM      1  N   UNL     1       6.361   5.301  16.445  0.00  0.00    +0.000 N 
ATOM      2  C   UNL     1       4.957   5.375  16.387  0.00  0.00    +0.000 C 
ATOM      3  O   UNL     1       4.278   4.607  15.701  0.00  0.00    +0.000 OA
ATOM      4  C   UNL     1       7.065   6.197  17.238  0.00  0.00    +0.000 A 
ATOM      5  N   UNL     1       7.263   7.482  17.032  0.00  0.00    +0.000 NA
ATOM      6  C   UNL     1       7.999   8.013  18.095  0.00  0.00    +0.000 A 
ATOM      7  C   UNL     1       8.333   7.087  19.071  0.00  0.00    +0.000 A 
ATOM      8  S   UNL     1       7.741   5.536  18.660  0.00  0.00    +0.000 S 
ENDROOT
BRANCH   6   9
ATOM      9  C   UNL     1       8.393   9.427  18.179  0.00  0.00    +0.000 A 
ATOM     10  C   UNL     1       7.745  10.398  17.393  0.00  0.00    +0.000 A 
ATOM     11  C   UNL     1       8.084  11.756  17.488  0.00  0.00    +0.000 A 
ATOM     12  C   UNL     1       9.073  12.152  18.391  0.00  0.00    +0.000 A 
ATOM     13  C   UNL     1       9.753  11.203  19.158  0.00  0.00    +0.000 A 
ATOM     14  C   UNL     1       9.410   9.840  19.050  0.00  0.00    +0.000 A 
BRANCH  12  15
ATOM     15  S   UNL     1       9.490  13.880  18.523  0.00  0.00    +0.000 S 
ATOM     16  C   UNL     1       8.029  14.694  17.932  0.00  0.00    +0.000 C 
ATOM     17  O   UNL     1       9.641  14.180  19.932  0.00  0.00    +0.000 OA
ATOM     18  O   UNL     1      10.565  14.142  17.584  0.00  0.00    +0.000 OA
ENDBRANCH  12  15
ENDBRANCH   6   9
BRANCH   1  19
ATOM     19  C   UNL     1       7.103   4.402  15.561  0.00  0.00    +0.000 C 
BRANCH  19  21
ATOM     20  C   UNL     1       6.502   3.931  13.151  0.00  0.00    +0.000 C 
ATOM     21  C   UNL     1       6.922   4.766  14.116  0.00  0.00    +0.000 C 
ENDBRANCH  19  21
ENDBRANCH   1  19
BRANCH   2  22
ATOM     22  C   UNL     1       4.307   6.478  17.212  0.00  0.00    +0.000 C 
BRANCH  22  23
ATOM     23  C   UNL     1       3.738   6.170  18.613  0.00  0.00    +0.000 C 
BRANCH  23  24
ATOM     24  C   UNL     1       3.137   4.749  18.683  0.00  0.00    +0.000 A 
ATOM     25  C   UNL     1       1.839   4.460  18.217  0.00  0.00    +0.000 A 
ATOM     26  C   UNL     1       1.271   3.192  18.345  0.00  0.00    +0.000 A 
ATOM     27  C   UNL     1       1.996   2.168  18.933  0.00  0.00    +0.000 A 
ATOM     28  C   UNL     1       3.295   2.408  19.378  0.00  0.00    +0.000 A 
ATOM     29  C   UNL     1       3.865   3.685  19.251  0.00  0.00    +0.000 A 
ENDBRANCH  23  24
BRANCH  23  30
ATOM     30  N   UNL     1       2.772   7.161  19.100  0.00  0.00    +0.000 N 
ATOM     31  C   UNL     1       2.291   8.209  18.349  0.00  0.00    +0.000 C 
ATOM     32  C   UNL     1       1.292   9.079  19.066  0.00  0.00    +0.000 C 
ATOM     33  O   UNL     1       2.654   8.457  17.203  0.00  0.00    +0.000 OA
ATOM     34  H   UNL     1       2.518   7.111  20.077  0.00  0.00    +0.000 HD
ENDBRANCH  23  30
ENDBRANCH  22  23
ENDBRANCH   2  22
TORSDOF 8
ENDMDL
