MODEL 1
REMARK VINA RESULT:      -7.4      0.000      0.000
REMARK  Name = 
REMARK  5 active torsions:
REMARK  status: ('A' for Active; 'I' for Inactive)
REMARK    1  A    between atoms: C_1  and  C_2
REMARK    2  A    between atoms: C_2  and  C_3
REMARK    3  A    between atoms: C_8  and  N_9
REMARK    4  A    between atoms: N_9  and  S_10
REMARK    5  A    between atoms: S_10  and  C_13
REMARK                            x       y       z     vdW  Elec       q    Type
REMARK                         _______ _______ _______ _____ _____    ______ ____
ROOT
ATOM      1  N   UNL     1       3.573   4.226  18.595  0.00  0.00    +0.000 NA
ATOM      2  H   UNL     1       3.318   4.046  17.623  0.00  0.00    +0.000 HD
ENDROOT
BRANCH   1  10
ATOM      3  C   UNL     1       1.485   4.846  20.474  0.00  0.00    +0.000 C 
ATOM      4  C   UNL     1       1.830   3.379  20.177  0.00  0.00    +0.000 C 
ATOM      5  C   UNL     1       1.694   2.585  21.496  0.00  0.00    +0.000 C 
ATOM      6  C   UNL     1       0.879   2.790  19.123  0.00  0.00    +0.000 C 
ATOM      7  N   UNL     1       1.633   1.729  18.530  0.00  0.00    +0.000 N 
ATOM      8  C   UNL     1       2.984   1.809  18.812  0.00  0.00    +0.000 C 
ATOM      9  O   UNL     1       3.791   0.944  18.520  0.00  0.00    +0.000 OA
ATOM     10  C   UNL     1       3.241   3.132  19.538  0.00  0.00    +0.000 C 
ATOM     11  H   UNL     1       1.256   0.915  18.057  0.00  0.00    +0.000 HD
ENDBRANCH   1  10
BRANCH   1  12
ATOM     12  S   UNL     1       5.106   4.922  18.619  0.00  0.00    +0.000 S 
ATOM     13  O   UNL     1       4.994   6.340  18.873  0.00  0.00    +0.000 OA
ATOM     14  O   UNL     1       5.912   4.073  19.466  0.00  0.00    +0.000 OA
BRANCH  12  15
ATOM     15  C   UNL     1       5.822   4.799  17.007  0.00  0.00    +0.000 A 
ATOM     16  C   UNL     1       7.032   5.229  16.491  0.00  0.00    +0.000 A 
ATOM     17  C   UNL     1       7.190   4.879  15.117  0.00  0.00    +0.000 A 
ATOM     18  C   UNL     1       6.093   4.196  14.657  0.00  0.00    +0.000 A 
ATOM     19 CL   UNL     1       5.858   3.587  13.070  0.00  0.00    +0.000 Cl
ATOM     20  S   UNL     1       4.890   3.976  15.826  0.00  0.00    +0.000 S 
ENDBRANCH  12  15
ENDBRANCH   1  12
TORSDOF 3
ENDMDL
MODEL 2
REMARK VINA RESULT:      -7.4      0.991      1.186
REMARK  Name = 
REMARK  5 active torsions:
REMARK  status: ('A' for Active; 'I' for Inactive)
REMARK    1  A    between atoms: C_1  and  C_2
REMARK    2  A    between atoms: C_2  and  C_3
REMARK    3  A    between atoms: C_8  and  N_9
REMARK    4  A    between atoms: N_9  and  S_10
REMARK    5  A    between atoms: S_10  and  C_13
REMARK                            x       y       z     vdW  Elec       q    Type
REMARK                         _______ _______ _______ _____ _____    ______ ____
ROOT
ATOM      1  N   UNL     1       3.462   4.299  18.589  0.00  0.00    +0.000 NA
ATOM      2  H   UNL     1       3.041   4.183  17.666  0.00  0.00    +0.000 HD
ENDROOT
BRANCH   1  10
ATOM      3  C   UNL     1       1.407   4.844  20.526  0.00  0.00    +0.000 C 
ATOM      4  C   UNL     1       1.794   3.390  20.216  0.00  0.00    +0.000 C 
ATOM      5  C   UNL     1       1.722   2.590  21.537  0.00  0.00    +0.000 C 
ATOM      6  C   UNL     1       0.835   2.770  19.188  0.00  0.00    +0.000 C 
ATOM      7  N   UNL     1       1.608   1.736  18.572  0.00  0.00    +0.000 N 
ATOM      8  C   UNL     1       2.963   1.863  18.816  0.00  0.00    +0.000 C 
ATOM      9  O   UNL     1       3.790   1.027  18.500  0.00  0.00    +0.000 OA
ATOM     10  C   UNL     1       3.194   3.192  19.538  0.00  0.00    +0.000 C 
ATOM     11  H   UNL     1       1.246   0.911  18.108  0.00  0.00    +0.000 HD
ENDBRANCH   1  10
BRANCH   1  12
ATOM     12  S   UNL     1       5.032   4.872  18.385  0.00  0.00    +0.000 S 
ATOM     13  O   UNL     1       5.058   6.303  18.578  0.00  0.00    +0.000 OA
ATOM     14  O   UNL     1       5.876   3.997  19.167  0.00  0.00    +0.000 OA
BRANCH  12  15
ATOM     15  C   UNL     1       5.524   4.626  16.704  0.00  0.00    +0.000 A 
ATOM     16  C   UNL     1       4.994   3.857  15.683  0.00  0.00    +0.000 A 
ATOM     17  C   UNL     1       5.728   3.992  14.467  0.00  0.00    +0.000 A 
ATOM     18  C   UNL     1       6.777   4.861  14.623  0.00  0.00    +0.000 A 
ATOM     19 CL   UNL     1       7.917   5.315  13.424  0.00  0.00    +0.000 Cl
ATOM     20  S   UNL     1       6.901   5.503  16.184  0.00  0.00    +0.000 S 
ENDBRANCH  12  15
ENDBRANCH   1  12
TORSDOF 3
ENDMDL
MODEL 3
REMARK VINA RESULT:      -7.2      0.994      1.096
REMARK  Name = 
REMARK  5 active torsions:
REMARK  status: ('A' for Active; 'I' for Inactive)
REMARK    1  A    between atoms: C_1  and  C_2
REMARK    2  A    between atoms: C_2  and  C_3
REMARK    3  A    between atoms: C_8  and  N_9
REMARK    4  A    between atoms: N_9  and  S_10
REMARK    5  A    between atoms: S_10  and  C_13
REMARK                            x       y       z     vdW  Elec       q    Type
REMARK                         _______ _______ _______ _____ _____    ______ ____
ROOT
ATOM      1  N   UNL     1       3.022   4.413  18.362  0.00  0.00    +0.000 NA
ATOM      2  H   UNL     1       2.966   4.102  17.392  0.00  0.00    +0.000 HD
ENDROOT
BRANCH   1  10
ATOM      3  C   UNL     1       1.145   4.802  20.507  0.00  0.00    +0.000 C 
ATOM      4  C   UNL     1       1.662   3.391  20.196  0.00  0.00    +0.000 C 
ATOM      5  C   UNL     1       1.830   2.642  21.537  0.00  0.00    +0.000 C 
ATOM      6  C   UNL     1       0.673   2.624  19.302  0.00  0.00    +0.000 C 
ATOM      7  N   UNL     1       1.488   1.660  18.630  0.00  0.00    +0.000 N 
ATOM      8  C   UNL     1       2.838   1.948  18.714  0.00  0.00    +0.000 C 
ATOM      9  O   UNL     1       3.717   1.198  18.328  0.00  0.00    +0.000 OA
ATOM     10  C   UNL     1       2.992   3.324  19.367  0.00  0.00    +0.000 C 
ATOM     11  H   UNL     1       1.175   0.781  18.234  0.00  0.00    +0.000 HD
ENDBRANCH   1  10
BRANCH   1  12
ATOM     12  S   UNL     1       4.192   5.620  18.464  0.00  0.00    +0.000 S 
ATOM     13  O   UNL     1       3.656   6.863  17.962  0.00  0.00    +0.000 OA
ATOM     14  O   UNL     1       4.740   5.527  19.799  0.00  0.00    +0.000 OA
BRANCH  12  15
ATOM     15  C   UNL     1       5.528   5.223  17.376  0.00  0.00    +0.000 A 
ATOM     16  C   UNL     1       6.763   4.636  17.594  0.00  0.00    +0.000 A 
ATOM     17  C   UNL     1       7.514   4.493  16.390  0.00  0.00    +0.000 A 
ATOM     18  C   UNL     1       6.812   4.974  15.315  0.00  0.00    +0.000 A 
ATOM     19 CL   UNL     1       7.334   5.002  13.681  0.00  0.00    +0.000 Cl
ATOM     20  S   UNL     1       5.290   5.594  15.720  0.00  0.00    +0.000 S 
ENDBRANCH  12  15
ENDBRANCH   1  12
TORSDOF 3
ENDMDL
MODEL 4
REMARK VINA RESULT:      -7.2      3.236      5.808
REMARK  Name = 
REMARK  5 active torsions:
REMARK  status: ('A' for Active; 'I' for Inactive)
REMARK    1  A    between atoms: C_1  and  C_2
REMARK    2  A    between atoms: C_2  and  C_3
REMARK    3  A    between atoms: C_8  and  N_9
REMARK    4  A    between atoms: N_9  and  S_10
REMARK    5  A    between atoms: S_10  and  C_13
REMARK                            x       y       z     vdW  Elec       q    Type
REMARK                         _______ _______ _______ _____ _____    ______ ____
ROOT
ATOM      1  N   UNL     1       4.863   3.184  17.427  0.00  0.00    +0.000 NA
ATOM      2  H   UNL     1       5.314   2.379  16.989  0.00  0.00    +0.000 HD
ENDROOT
BRANCH   1  10
ATOM      3  C   UNL     1       5.975   5.184  19.170  0.00  0.00    +0.000 C 
ATOM      4  C   UNL     1       6.151   5.316  17.650  0.00  0.00    +0.000 C 
ATOM      5  C   UNL     1       6.055   6.817  17.293  0.00  0.00    +0.000 C 
ATOM      6  C   UNL     1       7.515   4.769  17.201  0.00  0.00    +0.000 C 
ATOM      7  N   UNL     1       7.310   4.402  15.834  0.00  0.00    +0.000 N 
ATOM      8  C   UNL     1       5.971   4.319  15.498  0.00  0.00    +0.000 C 
ATOM      9  O   UNL     1       5.567   4.150  14.362  0.00  0.00    +0.000 OA
ATOM     10  C   UNL     1       5.147   4.486  16.777  0.00  0.00    +0.000 C 
ATOM     11  H   UNL     1       8.024   4.327  15.119  0.00  0.00    +0.000 HD
ENDBRANCH   1  10
BRANCH   1  12
ATOM     12  S   UNL     1       3.278   2.760  17.804  0.00  0.00    +0.000 S 
ATOM     13  O   UNL     1       2.402   3.125  16.715  0.00  0.00    +0.000 OA
ATOM     14  O   UNL     1       3.338   1.400  18.291  0.00  0.00    +0.000 OA
BRANCH  12  15
ATOM     15  C   UNL     1       2.732   3.730  19.178  0.00  0.00    +0.000 A 
ATOM     16  C   UNL     1       2.615   3.449  20.528  0.00  0.00    +0.000 A 
ATOM     17  C   UNL     1       2.142   4.568  21.275  0.00  0.00    +0.000 A 
ATOM     18  C   UNL     1       1.927   5.647  20.457  0.00  0.00    +0.000 A 
ATOM     19 CL   UNL     1       1.360   7.195  20.932  0.00  0.00    +0.000 Cl
ATOM     20  S   UNL     1       2.270   5.344  18.828  0.00  0.00    +0.000 S 
ENDBRANCH  12  15
ENDBRANCH   1  12
TORSDOF 3
ENDMDL
MODEL 5
REMARK VINA RESULT:      -6.8      2.482      3.259
REMARK  Name = 
REMARK  5 active torsions:
REMARK  status: ('A' for Active; 'I' for Inactive)
REMARK    1  A    between atoms: C_1  and  C_2
REMARK    2  A    between atoms: C_2  and  C_3
REMARK    3  A    between atoms: C_8  and  N_9
REMARK    4  A    between atoms: N_9  and  S_10
REMARK    5  A    between atoms: S_10  and  C_13
REMARK                            x       y       z     vdW  Elec       q    Type
REMARK                         _______ _______ _______ _____ _____    ______ ____
ROOT
ATOM      1  N   UNL     1       5.405   4.223  16.789  0.00  0.00    +0.000 NA
ATOM      2  H   UNL     1       5.681   3.242  16.849  0.00  0.00    +0.000 HD
ENDROOT
BRANCH   1  10
ATOM      3  C   UNL     1       2.641   3.547  17.214  0.00  0.00    +0.000 C 
ATOM      4  C   UNL     1       3.505   3.996  18.401  0.00  0.00    +0.000 C 
ATOM      5  C   UNL     1       2.619   4.851  19.335  0.00  0.00    +0.000 C 
ATOM      6  C   UNL     1       4.051   2.787  19.177  0.00  0.00    +0.000 C 
ATOM      7  N   UNL     1       5.237   3.282  19.805  0.00  0.00    +0.000 N 
ATOM      8  C   UNL     1       5.672   4.476  19.259  0.00  0.00    +0.000 C 
ATOM      9  O   UNL     1       6.583   5.140  19.721  0.00  0.00    +0.000 OA
ATOM     10  C   UNL     1       4.813   4.779  18.029  0.00  0.00    +0.000 C 
ATOM     11  H   UNL     1       5.674   2.910  20.640  0.00  0.00    +0.000 HD
ENDBRANCH   1  10
BRANCH   1  12
ATOM     12  S   UNL     1       6.619   5.066  15.984  0.00  0.00    +0.000 S 
ATOM     13  O   UNL     1       6.301   6.475  15.959  0.00  0.00    +0.000 OA
ATOM     14  O   UNL     1       7.866   4.591  16.541  0.00  0.00    +0.000 OA
BRANCH  12  15
ATOM     15  C   UNL     1       6.640   4.570  14.287  0.00  0.00    +0.000 A 
ATOM     16  C   UNL     1       7.499   4.864  13.242  0.00  0.00    +0.000 A 
ATOM     17  C   UNL     1       7.126   4.204  12.033  0.00  0.00    +0.000 A 
ATOM     18  C   UNL     1       6.005   3.437  12.220  0.00  0.00    +0.000 A 
ATOM     19 CL   UNL     1       5.212   2.478  11.039  0.00  0.00    +0.000 Cl
ATOM     20  S   UNL     1       5.394   3.499  13.797  0.00  0.00    +0.000 S 
ENDBRANCH  12  15
ENDBRANCH   1  12
TORSDOF 3
ENDMDL
MODEL 6
REMARK VINA RESULT:      -6.8      3.614      5.732
REMARK  Name = 
REMARK  5 active torsions:
REMARK  status: ('A' for Active; 'I' for Inactive)
REMARK    1  A    between atoms: C_1  and  C_2
REMARK    2  A    between atoms: C_2  and  C_3
REMARK    3  A    between atoms: C_8  and  N_9
REMARK    4  A    between atoms: N_9  and  S_10
REMARK    5  A    between atoms: S_10  and  C_13
REMARK                            x       y       z     vdW  Elec       q    Type
REMARK                         _______ _______ _______ _____ _____    ______ ____
ROOT
ATOM      1  N   UNL     1       4.787   3.586  17.516  0.00  0.00    +0.000 NA
ATOM      2  H   UNL     1       4.942   2.709  17.017  0.00  0.00    +0.000 HD
ENDROOT
BRANCH   1  10
ATOM      3  C   UNL     1       6.180   5.357  19.304  0.00  0.00    +0.000 C 
ATOM      4  C   UNL     1       6.477   5.409  17.799  0.00  0.00    +0.000 C 
ATOM      5  C   UNL     1       6.722   6.886  17.416  0.00  0.00    +0.000 C 
ATOM      6  C   UNL     1       7.722   4.576  17.452  0.00  0.00    +0.000 C 
ATOM      7  N   UNL     1       7.533   4.223  16.079  0.00  0.00    +0.000 N 
ATOM      8  C   UNL     1       6.231   4.411  15.653  0.00  0.00    +0.000 C 
ATOM      9  O   UNL     1       5.874   4.299  14.494  0.00  0.00    +0.000 OA
ATOM     10  C   UNL     1       5.380   4.782  16.870  0.00  0.00    +0.000 C 
ATOM     11  H   UNL     1       8.259   3.981  15.416  0.00  0.00    +0.000 HD
ENDBRANCH   1  10
BRANCH   1  12
ATOM     12  S   UNL     1       3.189   3.619  18.043  0.00  0.00    +0.000 S 
ATOM     13  O   UNL     1       2.304   3.342  16.936  0.00  0.00    +0.000 OA
ATOM     14  O   UNL     1       3.153   2.820  19.247  0.00  0.00    +0.000 OA
BRANCH  12  15
ATOM     15  C   UNL     1       2.783   5.263  18.555  0.00  0.00    +0.000 A 
ATOM     16  C   UNL     1       2.830   6.480  17.899  0.00  0.00    +0.000 A 
ATOM     17  C   UNL     1       2.376   7.555  18.720  0.00  0.00    +0.000 A 
ATOM     18  C   UNL     1       2.002   7.101  19.958  0.00  0.00    +0.000 A 
ATOM     19 CL   UNL     1       1.397   8.047  21.256  0.00  0.00    +0.000 Cl
ATOM     20  S   UNL     1       2.190   5.431  20.155  0.00  0.00    +0.000 S 
ENDBRANCH  12  15
ENDBRANCH   1  12
TORSDOF 3
ENDMDL
MODEL 7
REMARK VINA RESULT:      -6.8      1.630      2.271
REMARK  Name = 
REMARK  5 active torsions:
REMARK  status: ('A' for Active; 'I' for Inactive)
REMARK    1  A    between atoms: C_1  and  C_2
REMARK    2  A    between atoms: C_2  and  C_3
REMARK    3  A    between atoms: C_8  and  N_9
REMARK    4  A    between atoms: N_9  and  S_10
REMARK    5  A    between atoms: S_10  and  C_13
REMARK                            x       y       z     vdW  Elec       q    Type
REMARK                         _______ _______ _______ _____ _____    ______ ____
ROOT
ATOM      1  N   UNL     1       4.299   3.979  19.366  0.00  0.00    +0.000 NA
ATOM      2  H   UNL     1       4.660   3.636  20.257  0.00  0.00    +0.000 HD
ENDROOT
BRANCH   1  10
ATOM      3  C   UNL     1       3.021   1.524  18.579  0.00  0.00    +0.000 C 
ATOM      4  C   UNL     1       2.210   2.603  19.311  0.00  0.00    +0.000 C 
ATOM      5  C   UNL     1       0.786   2.611  18.711  0.00  0.00    +0.000 C 
ATOM      6  C   UNL     1       2.130   2.308  20.817  0.00  0.00    +0.000 C 
ATOM      7  N   UNL     1       1.917   3.592  21.412  0.00  0.00    +0.000 N 
ATOM      8  C   UNL     1       2.200   4.635  20.549  0.00  0.00    +0.000 C 
ATOM      9  O   UNL     1       1.967   5.804  20.799  0.00  0.00    +0.000 OA
ATOM     10  C   UNL     1       2.821   4.047  19.279  0.00  0.00    +0.000 C 
ATOM     11  H   UNL     1       1.488   3.773  22.312  0.00  0.00    +0.000 HD
ENDBRANCH   1  10
BRANCH   1  12
ATOM     12  S   UNL     1       5.233   5.295  18.887  0.00  0.00    +0.000 S 
ATOM     13  O   UNL     1       4.391   6.457  18.725  0.00  0.00    +0.000 OA
ATOM     14  O   UNL     1       6.372   5.315  19.777  0.00  0.00    +0.000 OA
BRANCH  12  15
ATOM     15  C   UNL     1       5.895   4.979  17.278  0.00  0.00    +0.000 A 
ATOM     16  C   UNL     1       7.160   5.149  16.744  0.00  0.00    +0.000 A 
ATOM     17  C   UNL     1       7.233   4.728  15.382  0.00  0.00    +0.000 A 
ATOM     18  C   UNL     1       6.020   4.255  14.951  0.00  0.00    +0.000 A 
ATOM     19 CL   UNL     1       5.656   3.649  13.387  0.00  0.00    +0.000 Cl
ATOM     20  S   UNL     1       4.810   4.314  16.131  0.00  0.00    +0.000 S 
ENDBRANCH  12  15
ENDBRANCH   1  12
TORSDOF 3
ENDMDL
MODEL 8
REMARK VINA RESULT:      -6.7      1.837      2.529
REMARK  Name = 
REMARK  5 active torsions:
REMARK  status: ('A' for Active; 'I' for Inactive)
REMARK    1  A    between atoms: C_1  and  C_2
REMARK    2  A    between atoms: C_2  and  C_3
REMARK    3  A    between atoms: C_8  and  N_9
REMARK    4  A    between atoms: N_9  and  S_10
REMARK    5  A    between atoms: S_10  and  C_13
REMARK                            x       y       z     vdW  Elec       q    Type
REMARK                         _______ _______ _______ _____ _____    ______ ____
ROOT
ATOM      1  N   UNL     1       4.188   3.949  19.457  0.00  0.00    +0.000 NA
ATOM      2  H   UNL     1       4.519   3.751  20.402  0.00  0.00    +0.000 HD
ENDROOT
BRANCH   1  10
ATOM      3  C   UNL     1       2.994   1.485  18.575  0.00  0.00    +0.000 C 
ATOM      4  C   UNL     1       2.132   2.534  19.292  0.00  0.00    +0.000 C 
ATOM      5  C   UNL     1       0.733   2.526  18.634  0.00  0.00    +0.000 C 
ATOM      6  C   UNL     1       1.996   2.210  20.788  0.00  0.00    +0.000 C 
ATOM      7  N   UNL     1       1.733   3.478  21.396  0.00  0.00    +0.000 N 
ATOM      8  C   UNL     1       2.030   4.542  20.564  0.00  0.00    +0.000 C 
ATOM      9  O   UNL     1       1.763   5.701  20.825  0.00  0.00    +0.000 OA
ATOM     10  C   UNL     1       2.713   3.990  19.311  0.00  0.00    +0.000 C 
ATOM     11  H   UNL     1       1.264   3.634  22.280  0.00  0.00    +0.000 HD
ENDBRANCH   1  10
BRANCH   1  12
ATOM     12  S   UNL     1       5.133   5.185  18.814  0.00  0.00    +0.000 S 
ATOM     13  O   UNL     1       4.363   6.405  18.750  0.00  0.00    +0.000 OA
ATOM     14  O   UNL     1       6.391   5.131  19.524  0.00  0.00    +0.000 OA
BRANCH  12  15
ATOM     15  C   UNL     1       5.523   4.799  17.132  0.00  0.00    +0.000 A 
ATOM     16  C   UNL     1       4.902   3.992  16.195  0.00  0.00    +0.000 A 
ATOM     17  C   UNL     1       5.578   4.005  14.938  0.00  0.00    +0.000 A 
ATOM     18  C   UNL     1       6.677   4.824  14.981  0.00  0.00    +0.000 A 
ATOM     19 CL   UNL     1       7.773   5.134  13.699  0.00  0.00    +0.000 Cl
ATOM     20  S   UNL     1       6.914   5.563  16.485  0.00  0.00    +0.000 S 
ENDBRANCH  12  15
ENDBRANCH   1  12
TORSDOF 3
ENDMDL
MODEL 9
REMARK VINA RESULT:      -6.7      3.361      5.820
REMARK  Name = 
REMARK  5 active torsions:
REMARK  status: ('A' for Active; 'I' for Inactive)
REMARK    1  A    between atoms: C_1  and  C_2
REMARK    2  A    between atoms: C_2  and  C_3
REMARK    3  A    between atoms: C_8  and  N_9
REMARK    4  A    between atoms: N_9  and  S_10
REMARK    5  A    between atoms: S_10  and  C_13
REMARK                            x       y       z     vdW  Elec       q    Type
REMARK                         _______ _______ _______ _____ _____    ______ ____
ROOT
ATOM      1  N   UNL     1       4.244   6.207  18.204  0.00  0.00    +0.000 NA
ATOM      2  H   UNL     1       4.852   6.566  18.941  0.00  0.00    +0.000 HD
ENDROOT
BRANCH   1  10
ATOM      3  C   UNL     1       5.350   6.337  15.551  0.00  0.00    +0.000 C 
ATOM      4  C   UNL     1       5.645   5.120  16.440  0.00  0.00    +0.000 C 
ATOM      5  C   UNL     1       5.671   3.868  15.533  0.00  0.00    +0.000 C 
ATOM      6  C   UNL     1       7.001   5.268  17.148  0.00  0.00    +0.000 C 
ATOM      7  N   UNL     1       6.874   4.453  18.316  0.00  0.00    +0.000 N 
ATOM      8  C   UNL     1       5.561   4.122  18.598  0.00  0.00    +0.000 C 
ATOM      9  O   UNL     1       5.231   3.334  19.466  0.00  0.00    +0.000 OA
ATOM     10  C   UNL     1       4.658   4.900  17.638  0.00  0.00    +0.000 C 
ATOM     11  H   UNL     1       7.632   4.030  18.839  0.00  0.00    +0.000 HD
ENDBRANCH   1  10
BRANCH   1  12
ATOM     12  S   UNL     1       2.645   6.454  18.670  0.00  0.00    +0.000 S 
ATOM     13  O   UNL     1       2.599   7.358  19.795  0.00  0.00    +0.000 OA
ATOM     14  O   UNL     1       1.918   6.737  17.452  0.00  0.00    +0.000 OA
BRANCH  12  15
ATOM     15  C   UNL     1       1.978   4.932  19.275  0.00  0.00    +0.000 A 
ATOM     16  C   UNL     1       1.323   3.888  18.646  0.00  0.00    +0.000 A 
ATOM     17  C   UNL     1       0.982   2.839  19.551  0.00  0.00    +0.000 A 
ATOM     18  C   UNL     1       1.398   3.136  20.823  0.00  0.00    +0.000 A 
ATOM     19 CL   UNL     1       1.197   2.161  22.220  0.00  0.00    +0.000 Cl
ATOM     20  S   UNL     1       2.173   4.634  20.952  0.00  0.00    +0.000 S 
ENDBRANCH  12  15
ENDBRANCH   1  12
TORSDOF 3
ENDMDL
