MODEL 1
REMARK VINA RESULT:      -8.1      0.000      0.000
REMARK  Name = 
REMARK  5 active torsions:
REMARK  status: ('A' for Active; 'I' for Inactive)
REMARK    1  A    between atoms: C_5  and  C_6
REMARK    2  A    between atoms: C_6  and  S_7
REMARK    3  A    between atoms: S_7  and  C_8
REMARK    4  A    between atoms: C_11  and  C_12
REMARK    5  A    between atoms: N_18  and  C_19
REMARK                            x       y       z     vdW  Elec       q    Type
REMARK                         _______ _______ _______ _____ _____    ______ ____
ROOT
ATOM      1  C   UNL     1       4.209   5.639  17.641  0.00  0.00    +0.000 A 
ATOM      2  N   UNL     1       4.533   6.743  17.005  0.00  0.00    +0.000 NA
ATOM      3  N   UNL     1       3.687   7.734  17.417  0.00  0.00    +0.000 NA
ATOM      4  C   UNL     1       2.875   7.244  18.341  0.00  0.00    +0.000 A 
ATOM      5  N   UNL     1       3.110   5.866  18.470  0.00  0.00    +0.000 N 
ENDROOT
BRANCH   4   6
ATOM      6  C   UNL     1       1.964   8.062  19.144  0.00  0.00    +0.000 A 
ATOM      7  C   UNL     1       1.236   9.116  18.605  0.00  0.00    +0.000 A 
ATOM      8  N   UNL     1       0.341   9.841  19.328  0.00  0.00    +0.000 NA
ATOM      9  C   UNL     1       0.215   9.478  20.627  0.00  0.00    +0.000 A 
ATOM     10  C   UNL     1       0.952   8.449  21.178  0.00  0.00    +0.000 A 
ATOM     11  N   UNL     1       1.851   7.738  20.458  0.00  0.00    +0.000 NA
ENDBRANCH   4   6
BRANCH   5  12
ATOM     12  C   UNL     1       2.381   4.938  19.283  0.00  0.00    +0.000 A 
ATOM     13  C   UNL     1       2.702   4.776  20.641  0.00  0.00    +0.000 A 
ATOM     14  C   UNL     1       2.104   3.767  21.400  0.00  0.00    +0.000 A 
ATOM     15  C   UNL     1       1.137   2.947  20.828  0.00  0.00    +0.000 A 
ATOM     16  C   UNL     1       0.765   3.140  19.500  0.00  0.00    +0.000 A 
ATOM     17  C   UNL     1       1.388   4.124  18.726  0.00  0.00    +0.000 A 
ENDBRANCH   5  12
BRANCH   1  18
ATOM     18  S   UNL     1       4.910   4.085  17.280  0.00  0.00    +0.000 S 
BRANCH  18  19
ATOM     19  C   UNL     1       6.592   4.535  16.735  0.00  0.00    +0.000 C 
BRANCH  19  24
ATOM     20  F   UNL     1       7.200   4.396  11.105  0.00  0.00    +0.000 F 
ATOM     21  C   UNL     1       7.049   4.437  12.436  0.00  0.00    +0.000 A 
ATOM     22  C   UNL     1       7.851   5.278  13.193  0.00  0.00    +0.000 A 
ATOM     23  C   UNL     1       7.696   5.309  14.582  0.00  0.00    +0.000 A 
ATOM     24  C   UNL     1       6.737   4.504  15.225  0.00  0.00    +0.000 A 
ATOM     25  C   UNL     1       5.942   3.657  14.433  0.00  0.00    +0.000 A 
ATOM     26  C   UNL     1       6.100   3.621  13.043  0.00  0.00    +0.000 A 
ENDBRANCH  19  24
ENDBRANCH  18  19
ENDBRANCH   1  18
TORSDOF 5
ENDMDL
MODEL 2
REMARK VINA RESULT:      -8.0      0.578      1.648
REMARK  Name = 
REMARK  5 active torsions:
REMARK  status: ('A' for Active; 'I' for Inactive)
REMARK    1  A    between atoms: C_5  and  C_6
REMARK    2  A    between atoms: C_6  and  S_7
REMARK    3  A    between atoms: S_7  and  C_8
REMARK    4  A    between atoms: C_11  and  C_12
REMARK    5  A    between atoms: N_18  and  C_19
REMARK                            x       y       z     vdW  Elec       q    Type
REMARK                         _______ _______ _______ _____ _____    ______ ____
ROOT
ATOM      1  C   UNL     1       4.259   5.561  17.482  0.00  0.00    +0.000 A 
ATOM      2  N   UNL     1       4.525   6.693  16.868  0.00  0.00    +0.000 NA
ATOM      3  N   UNL     1       3.686   7.651  17.363  0.00  0.00    +0.000 NA
ATOM      4  C   UNL     1       2.938   7.114  18.313  0.00  0.00    +0.000 A 
ATOM      5  N   UNL     1       3.205   5.736  18.379  0.00  0.00    +0.000 N 
ENDROOT
BRANCH   4   6
ATOM      6  C   UNL     1       2.059   7.884  19.196  0.00  0.00    +0.000 A 
ATOM      7  C   UNL     1       1.850   7.540  20.526  0.00  0.00    +0.000 A 
ATOM      8  N   UNL     1       1.085   8.284  21.369  0.00  0.00    +0.000 NA
ATOM      9  C   UNL     1       0.519   9.386  20.819  0.00  0.00    +0.000 A 
ATOM     10  C   UNL     1       0.701   9.721  19.493  0.00  0.00    +0.000 A 
ATOM     11  N   UNL     1       1.453   8.971  18.653  0.00  0.00    +0.000 NA
ENDBRANCH   4   6
BRANCH   5  12
ATOM     12  C   UNL     1       2.541   4.767  19.198  0.00  0.00    +0.000 A 
ATOM     13  C   UNL     1       1.431   4.059  18.707  0.00  0.00    +0.000 A 
ATOM     14  C   UNL     1       0.686   3.229  19.548  0.00  0.00    +0.000 A 
ATOM     15  C   UNL     1       1.073   3.050  20.872  0.00  0.00    +0.000 A 
ATOM     16  C   UNL     1       2.209   3.697  21.353  0.00  0.00    +0.000 A 
ATOM     17  C   UNL     1       2.936   4.559  20.526  0.00  0.00    +0.000 A 
ENDBRANCH   5  12
BRANCH   1  18
ATOM     18  S   UNL     1       4.966   4.035  17.025  0.00  0.00    +0.000 S 
BRANCH  18  19
ATOM     19  C   UNL     1       6.654   4.521  16.533  0.00  0.00    +0.000 C 
BRANCH  19  24
ATOM     20  F   UNL     1       7.277   4.525  10.903  0.00  0.00    +0.000 F 
ATOM     21  C   UNL     1       7.137   4.516  12.236  0.00  0.00    +0.000 A 
ATOM     22  C   UNL     1       6.193   3.686  12.821  0.00  0.00    +0.000 A 
ATOM     23  C   UNL     1       6.043   3.688  14.211  0.00  0.00    +0.000 A 
ATOM     24  C   UNL     1       6.839   4.515  15.027  0.00  0.00    +0.000 A 
ATOM     25  C   UNL     1       7.783   5.350  14.405  0.00  0.00    +0.000 A 
ATOM     26  C   UNL     1       7.929   5.353  13.013  0.00  0.00    +0.000 A 
ENDBRANCH  19  24
ENDBRANCH  18  19
ENDBRANCH   1  18
TORSDOF 5
ENDMDL
MODEL 3
REMARK VINA RESULT:      -7.9      3.746      6.506
REMARK  Name = 
REMARK  5 active torsions:
REMARK  status: ('A' for Active; 'I' for Inactive)
REMARK    1  A    between atoms: C_5  and  C_6
REMARK    2  A    between atoms: C_6  and  S_7
REMARK    3  A    between atoms: S_7  and  C_8
REMARK    4  A    between atoms: C_11  and  C_12
REMARK    5  A    between atoms: N_18  and  C_19
REMARK                            x       y       z     vdW  Elec       q    Type
REMARK                         _______ _______ _______ _____ _____    ______ ____
ROOT
ATOM      1  C   UNL     1       4.696   4.193  16.583  0.00  0.00    +0.000 A 
ATOM      2  N   UNL     1       5.764   3.857  15.893  0.00  0.00    +0.000 NA
ATOM      3  N   UNL     1       6.722   4.808  16.105  0.00  0.00    +0.000 NA
ATOM      4  C   UNL     1       6.254   5.702  16.962  0.00  0.00    +0.000 A 
ATOM      5  N   UNL     1       4.911   5.402  17.244  0.00  0.00    +0.000 N 
ENDROOT
BRANCH   4   6
ATOM      6  C   UNL     1       7.067   6.759  17.567  0.00  0.00    +0.000 A 
ATOM      7  C   UNL     1       7.871   6.536  18.680  0.00  0.00    +0.000 A 
ATOM      8  N   UNL     1       8.676   7.495  19.210  0.00  0.00    +0.000 NA
ATOM      9  C   UNL     1       8.633   8.699  18.590  0.00  0.00    +0.000 A 
ATOM     10  C   UNL     1       7.820   8.935  17.500  0.00  0.00    +0.000 A 
ATOM     11  N   UNL     1       7.009   7.982  16.982  0.00  0.00    +0.000 NA
ENDBRANCH   4   6
BRANCH   5  12
ATOM     12  C   UNL     1       4.004   6.173  18.042  0.00  0.00    +0.000 A 
ATOM     13  C   UNL     1       3.589   5.706  19.300  0.00  0.00    +0.000 A 
ATOM     14  C   UNL     1       2.589   6.372  20.013  0.00  0.00    +0.000 A 
ATOM     15  C   UNL     1       2.035   7.542  19.506  0.00  0.00    +0.000 A 
ATOM     16  C   UNL     1       2.484   8.049  18.290  0.00  0.00    +0.000 A 
ATOM     17  C   UNL     1       3.457   7.365  17.554  0.00  0.00    +0.000 A 
ENDBRANCH   5  12
BRANCH   1  18
ATOM     18  S   UNL     1       3.173   3.357  16.455  0.00  0.00    +0.000 S 
BRANCH  18  19
ATOM     19  C   UNL     1       3.395   1.965  17.612  0.00  0.00    +0.000 C 
BRANCH  19  24
ATOM     20  F   UNL     1       0.972   2.977  22.631  0.00  0.00    +0.000 F 
ATOM     21  C   UNL     1       1.543   2.727  21.445  0.00  0.00    +0.000 A 
ATOM     22  C   UNL     1       2.900   2.449  21.381  0.00  0.00    +0.000 A 
ATOM     23  C   UNL     1       3.493   2.199  20.140  0.00  0.00    +0.000 A 
ATOM     24  C   UNL     1       2.735   2.220  18.954  0.00  0.00    +0.000 A 
ATOM     25  C   UNL     1       1.363   2.511  19.049  0.00  0.00    +0.000 A 
ATOM     26  C   UNL     1       0.769   2.767  20.291  0.00  0.00    +0.000 A 
ENDBRANCH  19  24
ENDBRANCH  18  19
ENDBRANCH   1  18
TORSDOF 5
ENDMDL
MODEL 4
REMARK VINA RESULT:      -7.9      0.896      1.521
REMARK  Name = 
REMARK  5 active torsions:
REMARK  status: ('A' for Active; 'I' for Inactive)
REMARK    1  A    between atoms: C_5  and  C_6
REMARK    2  A    between atoms: C_6  and  S_7
REMARK    3  A    between atoms: S_7  and  C_8
REMARK    4  A    between atoms: C_11  and  C_12
REMARK    5  A    between atoms: N_18  and  C_19
REMARK                            x       y       z     vdW  Elec       q    Type
REMARK                         _______ _______ _______ _____ _____    ______ ____
ROOT
ATOM      1  C   UNL     1       4.707   5.933  17.901  0.00  0.00    +0.000 A 
ATOM      2  N   UNL     1       5.120   7.030  17.304  0.00  0.00    +0.000 NA
ATOM      3  N   UNL     1       4.149   7.981  17.445  0.00  0.00    +0.000 NA
ATOM      4  C   UNL     1       3.163   7.479  18.171  0.00  0.00    +0.000 A 
ATOM      5  N   UNL     1       3.428   6.124  18.426  0.00  0.00    +0.000 N 
ENDROOT
BRANCH   4   6
ATOM      6  C   UNL     1       2.042   8.270  18.684  0.00  0.00    +0.000 A 
ATOM      7  C   UNL     1       1.698   8.289  20.031  0.00  0.00    +0.000 A 
ATOM      8  N   UNL     1       0.699   9.067  20.526  0.00  0.00    +0.000 NA
ATOM      9  C   UNL     1       0.040   9.818  19.611  0.00  0.00    +0.000 A 
ATOM     10  C   UNL     1       0.358   9.786  18.268  0.00  0.00    +0.000 A 
ATOM     11  N   UNL     1       1.346   9.000  17.777  0.00  0.00    +0.000 NA
ENDBRANCH   4   6
BRANCH   5  12
ATOM     12  C   UNL     1       2.571   5.186  19.087  0.00  0.00    +0.000 A 
ATOM     13  C   UNL     1       2.650   5.006  20.478  0.00  0.00    +0.000 A 
ATOM     14  C   UNL     1       1.930   3.986  21.107  0.00  0.00    +0.000 A 
ATOM     15  C   UNL     1       1.080   3.174  20.364  0.00  0.00    +0.000 A 
ATOM     16  C   UNL     1       0.945   3.385  18.994  0.00  0.00    +0.000 A 
ATOM     17  C   UNL     1       1.692   4.379  18.354  0.00  0.00    +0.000 A 
ENDBRANCH   5  12
BRANCH   1  18
ATOM     18  S   UNL     1       5.553   4.414  17.804  0.00  0.00    +0.000 S 
BRANCH  18  19
ATOM     19  C   UNL     1       4.814   3.652  16.321  0.00  0.00    +0.000 C 
BRANCH  19  24
ATOM     20  F   UNL     1       7.719   4.806  11.597  0.00  0.00    +0.000 F 
ATOM     21  C   UNL     1       7.038   4.523  12.716  0.00  0.00    +0.000 A 
ATOM     22  C   UNL     1       5.899   3.735  12.646  0.00  0.00    +0.000 A 
ATOM     23  C   UNL     1       5.186   3.452  13.815  0.00  0.00    +0.000 A 
ATOM     24  C   UNL     1       5.608   3.951  15.062  0.00  0.00    +0.000 A 
ATOM     25  C   UNL     1       6.762   4.753  15.102  0.00  0.00    +0.000 A 
ATOM     26  C   UNL     1       7.473   5.041  13.930  0.00  0.00    +0.000 A 
ENDBRANCH  19  24
ENDBRANCH  18  19
ENDBRANCH   1  18
TORSDOF 5
ENDMDL
MODEL 5
REMARK VINA RESULT:      -7.7      2.379      3.143
REMARK  Name = 
REMARK  5 active torsions:
REMARK  status: ('A' for Active; 'I' for Inactive)
REMARK    1  A    between atoms: C_5  and  C_6
REMARK    2  A    between atoms: C_6  and  S_7
REMARK    3  A    between atoms: S_7  and  C_8
REMARK    4  A    between atoms: C_11  and  C_12
REMARK    5  A    between atoms: N_18  and  C_19
REMARK                            x       y       z     vdW  Elec       q    Type
REMARK                         _______ _______ _______ _____ _____    ______ ____
ROOT
ATOM      1  C   UNL     1       3.867   5.507  17.569  0.00  0.00    +0.000 A 
ATOM      2  N   UNL     1       4.116   6.611  16.899  0.00  0.00    +0.000 NA
ATOM      3  N   UNL     1       3.350   7.611  17.428  0.00  0.00    +0.000 NA
ATOM      4  C   UNL     1       2.666   7.127  18.453  0.00  0.00    +0.000 A 
ATOM      5  N   UNL     1       2.896   5.744  18.543  0.00  0.00    +0.000 N 
ENDROOT
BRANCH   4   6
ATOM      6  C   UNL     1       1.886   7.952  19.378  0.00  0.00    +0.000 A 
ATOM      7  C   UNL     1       1.770   7.652  20.730  0.00  0.00    +0.000 A 
ATOM      8  N   UNL     1       1.100   8.446  21.607  0.00  0.00    +0.000 NA
ATOM      9  C   UNL     1       0.530   9.551  21.071  0.00  0.00    +0.000 A 
ATOM     10  C   UNL     1       0.618   9.844  19.725  0.00  0.00    +0.000 A 
ATOM     11  N   UNL     1       1.276   9.045  18.852  0.00  0.00    +0.000 NA
ENDBRANCH   4   6
BRANCH   5  12
ATOM     12  C   UNL     1       2.273   4.822  19.444  0.00  0.00    +0.000 A 
ATOM     13  C   UNL     1       2.761   4.664  20.752  0.00  0.00    +0.000 A 
ATOM     14  C   UNL     1       2.260   3.659  21.584  0.00  0.00    +0.000 A 
ATOM     15  C   UNL     1       1.227   2.840  21.141  0.00  0.00    +0.000 A 
ATOM     16  C   UNL     1       0.692   3.029  19.870  0.00  0.00    +0.000 A 
ATOM     17  C   UNL     1       1.216   4.008  19.020  0.00  0.00    +0.000 A 
ENDBRANCH   5  12
BRANCH   1  18
ATOM     18  S   UNL     1       4.489   3.946  17.108  0.00  0.00    +0.000 S 
BRANCH  18  19
ATOM     19  C   UNL     1       6.070   4.378  16.308  0.00  0.00    +0.000 C 
BRANCH  19  24
ATOM     20  F   UNL     1       8.919   8.296  19.245  0.00  0.00    +0.000 F 
ATOM     21  C   UNL     1       8.254   7.365  18.546  0.00  0.00    +0.000 A 
ATOM     22  C   UNL     1       7.780   7.668  17.278  0.00  0.00    +0.000 A 
ATOM     23  C   UNL     1       7.079   6.697  16.557  0.00  0.00    +0.000 A 
ATOM     24  C   UNL     1       6.849   5.416  17.095  0.00  0.00    +0.000 A 
ATOM     25  C   UNL     1       7.336   5.140  18.384  0.00  0.00    +0.000 A 
ATOM     26  C   UNL     1       8.034   6.114  19.109  0.00  0.00    +0.000 A 
ENDBRANCH  19  24
ENDBRANCH  18  19
ENDBRANCH   1  18
TORSDOF 5
ENDMDL
MODEL 6
REMARK VINA RESULT:      -7.6      4.571      7.653
REMARK  Name = 
REMARK  5 active torsions:
REMARK  status: ('A' for Active; 'I' for Inactive)
REMARK    1  A    between atoms: C_5  and  C_6
REMARK    2  A    between atoms: C_6  and  S_7
REMARK    3  A    between atoms: S_7  and  C_8
REMARK    4  A    between atoms: C_11  and  C_12
REMARK    5  A    between atoms: N_18  and  C_19
REMARK                            x       y       z     vdW  Elec       q    Type
REMARK                         _______ _______ _______ _____ _____    ______ ____
ROOT
ATOM      1  C   UNL     1       0.413   9.434  21.439  0.00  0.00    +0.000 A 
ATOM      2  N   UNL     1       0.458   9.037  22.691  0.00  0.00    +0.000 NA
ATOM      3  N   UNL     1      -0.103  10.013  23.466  0.00  0.00    +0.000 NA
ATOM      4  C   UNL     1      -0.532  10.987  22.680  0.00  0.00    +0.000 A 
ATOM      5  N   UNL     1      -0.151  10.708  21.358  0.00  0.00    +0.000 N 
ENDROOT
BRANCH   4   6
ATOM      6  C   UNL     1      -1.354  12.108  23.142  0.00  0.00    +0.000 A 
ATOM      7  C   UNL     1      -2.722  11.991  23.357  0.00  0.00    +0.000 A 
ATOM      8  N   UNL     1      -3.481  13.009  23.845  0.00  0.00    +0.000 NA
ATOM      9  C   UNL     1      -2.816  14.162  24.094  0.00  0.00    +0.000 A 
ATOM     10  C   UNL     1      -1.462  14.295  23.859  0.00  0.00    +0.000 A 
ATOM     11  N   UNL     1      -0.711  13.284  23.362  0.00  0.00    +0.000 NA
ENDBRANCH   4   6
BRANCH   5  12
ATOM     12  C   UNL     1      -0.326  11.550  20.212  0.00  0.00    +0.000 A 
ATOM     13  C   UNL     1      -1.428  11.371  19.358  0.00  0.00    +0.000 A 
ATOM     14  C   UNL     1      -1.523  12.082  18.159  0.00  0.00    +0.000 A 
ATOM     15  C   UNL     1      -0.551  13.020  17.827  0.00  0.00    +0.000 A 
ATOM     16  C   UNL     1       0.512  13.251  18.696  0.00  0.00    +0.000 A 
ATOM     17  C   UNL     1       0.632  12.515  19.879  0.00  0.00    +0.000 A 
ENDBRANCH   5  12
BRANCH   1  18
ATOM     18  S   UNL     1       1.188   8.577  20.135  0.00  0.00    +0.000 S 
BRANCH  18  19
ATOM     19  C   UNL     1       1.853   7.103  20.979  0.00  0.00    +0.000 C 
BRANCH  19  24
ATOM     20  F   UNL     1       1.854   2.545  17.616  0.00  0.00    +0.000 F 
ATOM     21  C   UNL     1       1.864   3.621  18.416  0.00  0.00    +0.000 A 
ATOM     22  C   UNL     1       1.327   3.533  19.691  0.00  0.00    +0.000 A 
ATOM     23  C   UNL     1       1.330   4.660  20.518  0.00  0.00    +0.000 A 
ATOM     24  C   UNL     1       1.873   5.882  20.078  0.00  0.00    +0.000 A 
ATOM     25  C   UNL     1       2.405   5.944  18.778  0.00  0.00    +0.000 A 
ATOM     26  C   UNL     1       2.397   4.816  17.948  0.00  0.00    +0.000 A 
ENDBRANCH  19  24
ENDBRANCH  18  19
ENDBRANCH   1  18
TORSDOF 5
ENDMDL
MODEL 7
REMARK VINA RESULT:      -7.6      4.257      7.103
REMARK  Name = 
REMARK  5 active torsions:
REMARK  status: ('A' for Active; 'I' for Inactive)
REMARK    1  A    between atoms: C_5  and  C_6
REMARK    2  A    between atoms: C_6  and  S_7
REMARK    3  A    between atoms: S_7  and  C_8
REMARK    4  A    between atoms: C_11  and  C_12
REMARK    5  A    between atoms: N_18  and  C_19
REMARK                            x       y       z     vdW  Elec       q    Type
REMARK                         _______ _______ _______ _____ _____    ______ ____
ROOT
ATOM      1  C   UNL     1       0.873   9.074  21.273  0.00  0.00    +0.000 A 
ATOM      2  N   UNL     1       1.189   8.932  22.542  0.00  0.00    +0.000 NA
ATOM      3  N   UNL     1       0.621   9.961  23.238  0.00  0.00    +0.000 NA
ATOM      4  C   UNL     1      -0.081  10.707  22.400  0.00  0.00    +0.000 A 
ATOM      5  N   UNL     1       0.112  10.229  21.093  0.00  0.00    +0.000 N 
ENDROOT
BRANCH   4   6
ATOM      6  C   UNL     1      -0.979  11.785  22.820  0.00  0.00    +0.000 A 
ATOM      7  C   UNL     1      -2.332  11.578  23.062  0.00  0.00    +0.000 A 
ATOM      8  N   UNL     1      -3.159  12.559  23.512  0.00  0.00    +0.000 NA
ATOM      9  C   UNL     1      -2.579  13.770  23.695  0.00  0.00    +0.000 A 
ATOM     10  C   UNL     1      -1.242  13.990  23.433  0.00  0.00    +0.000 A 
ATOM     11  N   UNL     1      -0.423  13.014  22.973  0.00  0.00    +0.000 NA
ENDBRANCH   4   6
BRANCH   5  12
ATOM     12  C   UNL     1      -0.382  10.809  19.880  0.00  0.00    +0.000 A 
ATOM     13  C   UNL     1       0.041  12.087  19.477  0.00  0.00    +0.000 A 
ATOM     14  C   UNL     1      -0.552  12.721  18.382  0.00  0.00    +0.000 A 
ATOM     15  C   UNL     1      -1.530  12.066  17.643  0.00  0.00    +0.000 A 
ATOM     16  C   UNL     1      -1.912  10.774  17.995  0.00  0.00    +0.000 A 
ATOM     17  C   UNL     1      -1.350  10.149  19.113  0.00  0.00    +0.000 A 
ENDBRANCH   5  12
BRANCH   1  18
ATOM     18  S   UNL     1       1.543   8.086  20.004  0.00  0.00    +0.000 S 
BRANCH  18  19
ATOM     19  C   UNL     1       1.754   6.476  20.834  0.00  0.00    +0.000 C 
BRANCH  19  24
ATOM     20  F   UNL     1       2.238   2.212  17.137  0.00  0.00    +0.000 F 
ATOM     21  C   UNL     1       2.132   3.217  18.017  0.00  0.00    +0.000 A 
ATOM     22  C   UNL     1       1.386   3.043  19.173  0.00  0.00    +0.000 A 
ATOM     23  C   UNL     1       1.271   4.097  20.083  0.00  0.00    +0.000 A 
ATOM     24  C   UNL     1       1.903   5.333  19.847  0.00  0.00    +0.000 A 
ATOM     25  C   UNL     1       2.647   5.484  18.664  0.00  0.00    +0.000 A 
ATOM     26  C   UNL     1       2.759   4.429  17.750  0.00  0.00    +0.000 A 
ENDBRANCH  19  24
ENDBRANCH  18  19
ENDBRANCH   1  18
TORSDOF 5
ENDMDL
MODEL 8
REMARK VINA RESULT:      -7.6      4.499      7.488
REMARK  Name = 
REMARK  5 active torsions:
REMARK  status: ('A' for Active; 'I' for Inactive)
REMARK    1  A    between atoms: C_5  and  C_6
REMARK    2  A    between atoms: C_6  and  S_7
REMARK    3  A    between atoms: S_7  and  C_8
REMARK    4  A    between atoms: C_11  and  C_12
REMARK    5  A    between atoms: N_18  and  C_19
REMARK                            x       y       z     vdW  Elec       q    Type
REMARK                         _______ _______ _______ _____ _____    ______ ____
ROOT
ATOM      1  C   UNL     1       0.550   9.307  21.487  0.00  0.00    +0.000 A 
ATOM      2  N   UNL     1       0.570   8.966  22.757  0.00  0.00    +0.000 NA
ATOM      3  N   UNL     1      -0.069   9.942  23.468  0.00  0.00    +0.000 NA
ATOM      4  C   UNL     1      -0.522  10.857  22.626  0.00  0.00    +0.000 A 
ATOM      5  N   UNL     1      -0.078  10.543  21.331  0.00  0.00    +0.000 N 
ENDROOT
BRANCH   4   6
ATOM      6  C   UNL     1      -1.418  11.949  23.010  0.00  0.00    +0.000 A 
ATOM      7  C   UNL     1      -1.016  13.280  23.005  0.00  0.00    +0.000 A 
ATOM      8  N   UNL     1      -1.860  14.306  23.300  0.00  0.00    +0.000 NA
ATOM      9  C   UNL     1      -3.126  13.944  23.619  0.00  0.00    +0.000 A 
ATOM     10  C   UNL     1      -3.526  12.623  23.650  0.00  0.00    +0.000 A 
ATOM     11  N   UNL     1      -2.681  11.604  23.368  0.00  0.00    +0.000 NA
ENDBRANCH   4   6
BRANCH   5  12
ATOM     12  C   UNL     1      -0.257  11.325  20.144  0.00  0.00    +0.000 A 
ATOM     13  C   UNL     1       0.658  12.339  19.814  0.00  0.00    +0.000 A 
ATOM     14  C   UNL     1       0.408  13.206  18.747  0.00  0.00    +0.000 A 
ATOM     15  C   UNL     1      -0.727  13.034  17.962  0.00  0.00    +0.000 A 
ATOM     16  C   UNL     1      -1.609  11.993  18.241  0.00  0.00    +0.000 A 
ATOM     17  C   UNL     1      -1.383  11.147  19.331  0.00  0.00    +0.000 A 
ENDBRANCH   5  12
BRANCH   1  18
ATOM     18  S   UNL     1       1.416   8.440  20.249  0.00  0.00    +0.000 S 
BRANCH  18  19
ATOM     19  C   UNL     1       1.807   6.864  21.079  0.00  0.00    +0.000 C 
BRANCH  19  24
ATOM     20  F   UNL     1       1.959   2.521  17.445  0.00  0.00    +0.000 F 
ATOM     21  C   UNL     1       1.932   3.545  18.310  0.00  0.00    +0.000 A 
ATOM     22  C   UNL     1       1.259   3.409  19.515  0.00  0.00    +0.000 A 
ATOM     23  C   UNL     1       1.225   4.483  20.408  0.00  0.00    +0.000 A 
ATOM     24  C   UNL     1       1.867   5.699  20.108  0.00  0.00    +0.000 A 
ATOM     25  C   UNL     1       2.537   5.811  18.877  0.00  0.00    +0.000 A 
ATOM     26  C   UNL     1       2.566   4.737  17.979  0.00  0.00    +0.000 A 
ENDBRANCH  19  24
ENDBRANCH  18  19
ENDBRANCH   1  18
TORSDOF 5
ENDMDL
MODEL 9
REMARK VINA RESULT:      -7.5      0.716      1.444
REMARK  Name = 
REMARK  5 active torsions:
REMARK  status: ('A' for Active; 'I' for Inactive)
REMARK    1  A    between atoms: C_5  and  C_6
REMARK    2  A    between atoms: C_6  and  S_7
REMARK    3  A    between atoms: S_7  and  C_8
REMARK    4  A    between atoms: C_11  and  C_12
REMARK    5  A    between atoms: N_18  and  C_19
REMARK                            x       y       z     vdW  Elec       q    Type
REMARK                         _______ _______ _______ _____ _____    ______ ____
ROOT
ATOM      1  C   UNL     1       3.932   6.245  17.733  0.00  0.00    +0.000 A 
ATOM      2  N   UNL     1       4.139   7.424  17.190  0.00  0.00    +0.000 NA
ATOM      3  N   UNL     1       3.225   8.297  17.708  0.00  0.00    +0.000 NA
ATOM      4  C   UNL     1       2.488   7.660  18.604  0.00  0.00    +0.000 A 
ATOM      5  N   UNL     1       2.844   6.301  18.604  0.00  0.00    +0.000 N 
ENDROOT
BRANCH   4   6
ATOM      6  C   UNL     1       1.535   8.321  19.498  0.00  0.00    +0.000 A 
ATOM      7  C   UNL     1       1.453   8.024  20.854  0.00  0.00    +0.000 A 
ATOM      8  N   UNL     1       0.615   8.676  21.702  0.00  0.00    +0.000 NA
ATOM      9  C   UNL     1      -0.157   9.634  21.135  0.00  0.00    +0.000 A 
ATOM     10  C   UNL     1      -0.101   9.918  19.785  0.00  0.00    +0.000 A 
ATOM     11  N   UNL     1       0.726   9.258  18.940  0.00  0.00    +0.000 NA
ENDBRANCH   4   6
BRANCH   5  12
ATOM     12  C   UNL     1       2.223   5.246  19.349  0.00  0.00    +0.000 A 
ATOM     13  C   UNL     1       2.575   5.017  20.689  0.00  0.00    +0.000 A 
ATOM     14  C   UNL     1       2.091   3.899  21.372  0.00  0.00    +0.000 A 
ATOM     15  C   UNL     1       1.206   3.029  20.745  0.00  0.00    +0.000 A 
ATOM     16  C   UNL     1       0.800   3.281  19.437  0.00  0.00    +0.000 A 
ATOM     17  C   UNL     1       1.311   4.378  18.736  0.00  0.00    +0.000 A 
ENDBRANCH   5  12
BRANCH   1  18
ATOM     18  S   UNL     1       4.752   4.796  17.218  0.00  0.00    +0.000 S 
BRANCH  18  19
ATOM     19  C   UNL     1       6.277   5.458  16.469  0.00  0.00    +0.000 C 
BRANCH  19  24
ATOM     20  F   UNL     1       7.005   3.613  11.163  0.00  0.00    +0.000 F 
ATOM     21  C   UNL     1       6.839   4.041  12.422  0.00  0.00    +0.000 A 
ATOM     22  C   UNL     1       5.765   3.580  13.168  0.00  0.00    +0.000 A 
ATOM     23  C   UNL     1       5.590   4.038  14.477  0.00  0.00    +0.000 A 
ATOM     24  C   UNL     1       6.489   4.956  15.053  0.00  0.00    +0.000 A 
ATOM     25  C   UNL     1       7.565   5.411  14.271  0.00  0.00    +0.000 A 
ATOM     26  C   UNL     1       7.737   4.957  12.957  0.00  0.00    +0.000 A 
ENDBRANCH  19  24
ENDBRANCH  18  19
ENDBRANCH   1  18
TORSDOF 5
ENDMDL
