MODEL 1
REMARK VINA RESULT:      -6.0      0.000      0.000
REMARK  Name = 
REMARK  5 active torsions:
REMARK  status: ('A' for Active; 'I' for Inactive)
REMARK    1  A    between atoms: C_1  and  C_2
REMARK    2  A    between atoms: C_7  and  C_8
REMARK    3  A    between atoms: C_8  and  C_9
REMARK    4  A    between atoms: C_8  and  C_10
REMARK    5  A    between atoms: C_8  and  O_11
REMARK                            x       y       z     vdW  Elec       q    Type
REMARK                         _______ _______ _______ _____ _____    ______ ____
ROOT
ATOM      1  C   UNL     1       0.579   2.491  18.737  0.00  0.00    +0.000 C 
ATOM      2  C   UNL     1       1.902   3.161  18.986  0.00  0.00    +0.000 C 
ATOM      3  C   UNL     1       2.973   2.445  19.375  0.00  0.00    +0.000 C 
ATOM      4  C   UNL     1       4.324   2.920  19.716  0.00  0.00    +0.000 C 
ATOM      5  O   UNL     1       5.145   2.141  20.185  0.00  0.00    +0.000 OA
ATOM      6  O   UNL     1       4.574   4.241  19.639  0.00  0.00    +0.000 OA
ATOM      7  C   UNL     1       4.448   5.016  18.416  0.00  0.00    +0.000 C 
ATOM      8  C   UNL     1       3.065   4.978  17.761  0.00  0.00    +0.000 C 
ATOM      9  C   UNL     1       1.940   4.642  18.725  0.00  0.00    +0.000 C 
ENDROOT
BRANCH   7  10
ATOM     10  C   UNL     1       5.647   4.762  17.448  0.00  0.00    +0.000 C 
ATOM     11  C   UNL     1       5.318   3.865  16.250  0.00  0.00    +0.000 C 
ATOM     12  C   UNL     1       6.242   6.083  16.943  0.00  0.00    +0.000 C 
BRANCH  10  13
ATOM     13  O   UNL     1       6.685   4.102  18.190  0.00  0.00    +0.000 OA
ATOM     14  H   UNL     1       7.211   3.587  17.549  0.00  0.00    +0.000 HD
ENDBRANCH  10  13
ENDBRANCH   7  10
TORSDOF 2
ENDMDL
MODEL 2
REMARK VINA RESULT:      -6.0      1.922      4.172
REMARK  Name = 
REMARK  5 active torsions:
REMARK  status: ('A' for Active; 'I' for Inactive)
REMARK    1  A    between atoms: C_1  and  C_2
REMARK    2  A    between atoms: C_7  and  C_8
REMARK    3  A    between atoms: C_8  and  C_9
REMARK    4  A    between atoms: C_8  and  C_10
REMARK    5  A    between atoms: C_8  and  O_11
REMARK                            x       y       z     vdW  Elec       q    Type
REMARK                         _______ _______ _______ _____ _____    ______ ____
ROOT
ATOM      1  C   UNL     1       5.201   4.931  16.341  0.00  0.00    +0.000 C 
ATOM      2  C   UNL     1       4.436   4.033  17.275  0.00  0.00    +0.000 C 
ATOM      3  C   UNL     1       4.987   3.614  18.429  0.00  0.00    +0.000 C 
ATOM      4  C   UNL     1       4.426   2.700  19.438  0.00  0.00    +0.000 C 
ATOM      5  O   UNL     1       5.123   2.316  20.369  0.00  0.00    +0.000 OA
ATOM      6  O   UNL     1       3.196   2.194  19.227  0.00  0.00    +0.000 OA
ATOM      7  C   UNL     1       2.001   3.009  19.083  0.00  0.00    +0.000 C 
ATOM      8  C   UNL     1       2.050   4.043  17.955  0.00  0.00    +0.000 C 
ATOM      9  C   UNL     1       3.033   3.697  16.849  0.00  0.00    +0.000 C 
ENDROOT
BRANCH   7  10
ATOM     10  C   UNL     1       1.508   3.555  20.460  0.00  0.00    +0.000 C 
ATOM     11  C   UNL     1       1.698   2.587  21.633  0.00  0.00    +0.000 C 
ATOM     12  C   UNL     1       2.173   4.895  20.797  0.00  0.00    +0.000 C 
BRANCH  10  13
ATOM     13  O   UNL     1       0.098   3.812  20.356  0.00  0.00    +0.000 OA
ATOM     14  H   UNL     1      -0.157   3.638  19.430  0.00  0.00    +0.000 HD
ENDBRANCH  10  13
ENDBRANCH   7  10
TORSDOF 2
ENDMDL
MODEL 3
REMARK VINA RESULT:      -5.9      1.535      1.960
REMARK  Name = 
REMARK  5 active torsions:
REMARK  status: ('A' for Active; 'I' for Inactive)
REMARK    1  A    between atoms: C_1  and  C_2
REMARK    2  A    between atoms: C_7  and  C_8
REMARK    3  A    between atoms: C_8  and  C_9
REMARK    4  A    between atoms: C_8  and  C_10
REMARK    5  A    between atoms: C_8  and  O_11
REMARK                            x       y       z     vdW  Elec       q    Type
REMARK                         _______ _______ _______ _____ _____    ______ ____
ROOT
ATOM      1  C   UNL     1       1.228   4.358  17.645  0.00  0.00    +0.000 C 
ATOM      2  C   UNL     1       2.627   4.682  18.094  0.00  0.00    +0.000 C 
ATOM      3  C   UNL     1       3.417   3.729  18.622  0.00  0.00    +0.000 C 
ATOM      4  C   UNL     1       4.780   3.860  19.163  0.00  0.00    +0.000 C 
ATOM      5  O   UNL     1       5.304   2.910  19.732  0.00  0.00    +0.000 OA
ATOM      6  O   UNL     1       5.360   5.075  19.144  0.00  0.00    +0.000 OA
ATOM      7  C   UNL     1       5.610   5.831  17.929  0.00  0.00    +0.000 C 
ATOM      8  C   UNL     1       4.370   6.126  17.080  0.00  0.00    +0.000 C 
ATOM      9  C   UNL     1       3.070   6.102  17.865  0.00  0.00    +0.000 C 
ENDROOT
BRANCH   7  10
ATOM     10  C   UNL     1       6.834   5.267  17.141  0.00  0.00    +0.000 C 
ATOM     11  C   UNL     1       7.920   4.636  18.018  0.00  0.00    +0.000 C 
ATOM     12  C   UNL     1       6.390   4.255  16.077  0.00  0.00    +0.000 C 
BRANCH  10  13
ATOM     13  O   UNL     1       7.449   6.358  16.436  0.00  0.00    +0.000 OA
ATOM     14  H   UNL     1       6.810   7.096  16.438  0.00  0.00    +0.000 HD
ENDBRANCH  10  13
ENDBRANCH   7  10
TORSDOF 2
ENDMDL
MODEL 4
REMARK VINA RESULT:      -5.9      1.851      2.690
REMARK  Name = 
REMARK  5 active torsions:
REMARK  status: ('A' for Active; 'I' for Inactive)
REMARK    1  A    between atoms: C_1  and  C_2
REMARK    2  A    between atoms: C_7  and  C_8
REMARK    3  A    between atoms: C_8  and  C_9
REMARK    4  A    between atoms: C_8  and  C_10
REMARK    5  A    between atoms: C_8  and  O_11
REMARK                            x       y       z     vdW  Elec       q    Type
REMARK                         _______ _______ _______ _____ _____    ______ ____
ROOT
ATOM      1  C   UNL     1       1.426   2.672  21.491  0.00  0.00    +0.000 C 
ATOM      2  C   UNL     1       1.802   3.335  20.194  0.00  0.00    +0.000 C 
ATOM      3  C   UNL     1       2.078   4.651  20.150  0.00  0.00    +0.000 C 
ATOM      4  C   UNL     1       2.408   5.484  18.982  0.00  0.00    +0.000 C 
ATOM      5  O   UNL     1       2.497   6.700  19.105  0.00  0.00    +0.000 OA
ATOM      6  O   UNL     1       2.460   4.895  17.772  0.00  0.00    +0.000 OA
ATOM      7  C   UNL     1       3.367   3.808  17.442  0.00  0.00    +0.000 C 
ATOM      8  C   UNL     1       3.244   2.566  18.328  0.00  0.00    +0.000 C 
ATOM      9  C   UNL     1       1.889   2.424  19.000  0.00  0.00    +0.000 C 
ENDROOT
BRANCH   7  10
ATOM     10  C   UNL     1       4.824   4.323  17.221  0.00  0.00    +0.000 C 
ATOM     11  C   UNL     1       4.922   5.658  16.476  0.00  0.00    +0.000 C 
ATOM     12  C   UNL     1       5.584   4.428  18.550  0.00  0.00    +0.000 C 
BRANCH  10  13
ATOM     13  O   UNL     1       5.523   3.350  16.427  0.00  0.00    +0.000 OA
ATOM     14  H   UNL     1       5.542   3.689  15.511  0.00  0.00    +0.000 HD
ENDBRANCH  10  13
ENDBRANCH   7  10
TORSDOF 2
ENDMDL
MODEL 5
REMARK VINA RESULT:      -5.9      1.290      1.479
REMARK  Name = 
REMARK  5 active torsions:
REMARK  status: ('A' for Active; 'I' for Inactive)
REMARK    1  A    between atoms: C_1  and  C_2
REMARK    2  A    between atoms: C_7  and  C_8
REMARK    3  A    between atoms: C_8  and  C_9
REMARK    4  A    between atoms: C_8  and  C_10
REMARK    5  A    between atoms: C_8  and  O_11
REMARK                            x       y       z     vdW  Elec       q    Type
REMARK                         _______ _______ _______ _____ _____    ______ ____
ROOT
ATOM      1  C   UNL     1       1.244   4.148  17.513  0.00  0.00    +0.000 C 
ATOM      2  C   UNL     1       2.561   4.525  18.133  0.00  0.00    +0.000 C 
ATOM      3  C   UNL     1       3.388   3.581  18.617  0.00  0.00    +0.000 C 
ATOM      4  C   UNL     1       4.681   3.752  19.301  0.00  0.00    +0.000 C 
ATOM      5  O   UNL     1       5.240   2.783  19.800  0.00  0.00    +0.000 OA
ATOM      6  O   UNL     1       5.144   5.002  19.486  0.00  0.00    +0.000 OA
ATOM      7  C   UNL     1       5.426   5.927  18.401  0.00  0.00    +0.000 C 
ATOM      8  C   UNL     1       4.244   6.226  17.476  0.00  0.00    +0.000 C 
ATOM      9  C   UNL     1       2.888   5.994  18.121  0.00  0.00    +0.000 C 
ENDROOT
BRANCH   7  10
ATOM     10  C   UNL     1       6.762   5.572  17.674  0.00  0.00    +0.000 C 
ATOM     11  C   UNL     1       6.587   4.783  16.372  0.00  0.00    +0.000 C 
ATOM     12  C   UNL     1       7.595   6.830  17.396  0.00  0.00    +0.000 C 
BRANCH  10  13
ATOM     13  O   UNL     1       7.543   4.751  18.557  0.00  0.00    +0.000 OA
ATOM     14  H   UNL     1       8.365   5.241  18.752  0.00  0.00    +0.000 HD
ENDBRANCH  10  13
ENDBRANCH   7  10
TORSDOF 2
ENDMDL
MODEL 6
REMARK VINA RESULT:      -5.8      1.791      4.438
REMARK  Name = 
REMARK  5 active torsions:
REMARK  status: ('A' for Active; 'I' for Inactive)
REMARK    1  A    between atoms: C_1  and  C_2
REMARK    2  A    between atoms: C_7  and  C_8
REMARK    3  A    between atoms: C_8  and  C_9
REMARK    4  A    between atoms: C_8  and  C_10
REMARK    5  A    between atoms: C_8  and  O_11
REMARK                            x       y       z     vdW  Elec       q    Type
REMARK                         _______ _______ _______ _____ _____    ______ ____
ROOT
ATOM      1  C   UNL     1       5.214   6.195  15.781  0.00  0.00    +0.000 C 
ATOM      2  C   UNL     1       4.725   5.608  17.078  0.00  0.00    +0.000 C 
ATOM      3  C   UNL     1       3.841   6.274  17.843  0.00  0.00    +0.000 C 
ATOM      4  C   UNL     1       3.290   5.895  19.154  0.00  0.00    +0.000 C 
ATOM      5  O   UNL     1       2.595   6.688  19.777  0.00  0.00    +0.000 OA
ATOM      6  O   UNL     1       3.689   4.731  19.702  0.00  0.00    +0.000 OA
ATOM      7  C   UNL     1       3.490   3.435  19.077  0.00  0.00    +0.000 C 
ATOM      8  C   UNL     1       4.101   3.284  17.681  0.00  0.00    +0.000 C 
ATOM      9  C   UNL     1       5.251   4.238  17.410  0.00  0.00    +0.000 C 
ENDROOT
BRANCH   7  10
ATOM     10  C   UNL     1       2.010   2.954  19.207  0.00  0.00    +0.000 C 
ATOM     11  C   UNL     1       1.380   3.201  20.582  0.00  0.00    +0.000 C 
ATOM     12  C   UNL     1       1.124   3.582  18.124  0.00  0.00    +0.000 C 
BRANCH  10  13
ATOM     13  O   UNL     1       1.983   1.535  18.985  0.00  0.00    +0.000 OA
ATOM     14  H   UNL     1       1.367   1.154  19.640  0.00  0.00    +0.000 HD
ENDBRANCH  10  13
ENDBRANCH   7  10
TORSDOF 2
ENDMDL
MODEL 7
REMARK VINA RESULT:      -5.8      1.963      3.028
REMARK  Name = 
REMARK  5 active torsions:
REMARK  status: ('A' for Active; 'I' for Inactive)
REMARK    1  A    between atoms: C_1  and  C_2
REMARK    2  A    between atoms: C_7  and  C_8
REMARK    3  A    between atoms: C_8  and  C_9
REMARK    4  A    between atoms: C_8  and  C_10
REMARK    5  A    between atoms: C_8  and  O_11
REMARK                            x       y       z     vdW  Elec       q    Type
REMARK                         _______ _______ _______ _____ _____    ______ ____
ROOT
ATOM      1  C   UNL     1       1.208   3.716  18.675  0.00  0.00    +0.000 C 
ATOM      2  C   UNL     1       2.377   4.361  17.983  0.00  0.00    +0.000 C 
ATOM      3  C   UNL     1       2.645   5.667  18.159  0.00  0.00    +0.000 C 
ATOM      4  C   UNL     1       3.700   6.483  17.535  0.00  0.00    +0.000 C 
ATOM      5  O   UNL     1       3.715   7.696  17.707  0.00  0.00    +0.000 OA
ATOM      6  O   UNL     1       4.539   5.887  16.667  0.00  0.00    +0.000 OA
ATOM      7  C   UNL     1       5.401   4.771  17.016  0.00  0.00    +0.000 C 
ATOM      8  C   UNL     1       4.680   3.537  17.565  0.00  0.00    +0.000 C 
ATOM      9  C   UNL     1       3.223   3.441  17.144  0.00  0.00    +0.000 C 
ENDROOT
BRANCH   7  10
ATOM     10  C   UNL     1       6.639   5.237  17.845  0.00  0.00    +0.000 C 
ATOM     11  C   UNL     1       7.273   6.546  17.361  0.00  0.00    +0.000 C 
ATOM     12  C   UNL     1       6.295   5.362  19.335  0.00  0.00    +0.000 C 
BRANCH  10  13
ATOM     13  O   UNL     1       7.651   4.222  17.743  0.00  0.00    +0.000 OA
ATOM     14  H   UNL     1       8.346   4.570  17.152  0.00  0.00    +0.000 HD
ENDBRANCH  10  13
ENDBRANCH   7  10
TORSDOF 2
ENDMDL
MODEL 8
REMARK VINA RESULT:      -5.7      2.142      2.849
REMARK  Name = 
REMARK  5 active torsions:
REMARK  status: ('A' for Active; 'I' for Inactive)
REMARK    1  A    between atoms: C_1  and  C_2
REMARK    2  A    between atoms: C_7  and  C_8
REMARK    3  A    between atoms: C_8  and  C_9
REMARK    4  A    between atoms: C_8  and  C_10
REMARK    5  A    between atoms: C_8  and  O_11
REMARK                            x       y       z     vdW  Elec       q    Type
REMARK                         _______ _______ _______ _____ _____    ______ ____
ROOT
ATOM      1  C   UNL     1       1.362   2.708  21.629  0.00  0.00    +0.000 C 
ATOM      2  C   UNL     1       1.666   3.543  20.415  0.00  0.00    +0.000 C 
ATOM      3  C   UNL     1       2.017   4.836  20.542  0.00  0.00    +0.000 C 
ATOM      4  C   UNL     1       2.298   5.821  19.485  0.00  0.00    +0.000 C 
ATOM      5  O   UNL     1       2.470   6.998  19.777  0.00  0.00    +0.000 OA
ATOM      6  O   UNL     1       2.212   5.422  18.201  0.00  0.00    +0.000 OA
ATOM      7  C   UNL     1       3.020   4.358  17.632  0.00  0.00    +0.000 C 
ATOM      8  C   UNL     1       2.898   3.001  18.331  0.00  0.00    +0.000 C 
ATOM      9  C   UNL     1       1.597   2.823  19.096  0.00  0.00    +0.000 C 
ENDROOT
BRANCH   7  10
ATOM     10  C   UNL     1       4.483   4.830  17.356  0.00  0.00    +0.000 C 
ATOM     11  C   UNL     1       5.483   4.485  18.464  0.00  0.00    +0.000 C 
ATOM     12  C   UNL     1       5.000   4.284  16.019  0.00  0.00    +0.000 C 
BRANCH  10  13
ATOM     13  O   UNL     1       4.472   6.262  17.235  0.00  0.00    +0.000 OA
ATOM     14  H   UNL     1       3.921   6.480  16.459  0.00  0.00    +0.000 HD
ENDBRANCH  10  13
ENDBRANCH   7  10
TORSDOF 2
ENDMDL
MODEL 9
REMARK VINA RESULT:      -5.7      1.522      4.281
REMARK  Name = 
REMARK  5 active torsions:
REMARK  status: ('A' for Active; 'I' for Inactive)
REMARK    1  A    between atoms: C_1  and  C_2
REMARK    2  A    between atoms: C_7  and  C_8
REMARK    3  A    between atoms: C_8  and  C_9
REMARK    4  A    between atoms: C_8  and  C_10
REMARK    5  A    between atoms: C_8  and  O_11
REMARK                            x       y       z     vdW  Elec       q    Type
REMARK                         _______ _______ _______ _____ _____    ______ ____
ROOT
ATOM      1  C   UNL     1       7.336   4.995  15.075  0.00  0.00    +0.000 C 
ATOM      2  C   UNL     1       6.602   4.612  16.331  0.00  0.00    +0.000 C 
ATOM      3  C   UNL     1       6.907   5.187  17.508  0.00  0.00    +0.000 C 
ATOM      4  C   UNL     1       6.345   4.911  18.840  0.00  0.00    +0.000 C 
ATOM      5  O   UNL     1       6.838   5.435  19.831  0.00  0.00    +0.000 OA
ATOM      6  O   UNL     1       5.390   3.968  18.947  0.00  0.00    +0.000 OA
ATOM      7  C   UNL     1       4.112   4.032  18.257  0.00  0.00    +0.000 C 
ATOM      8  C   UNL     1       4.200   4.137  16.733  0.00  0.00    +0.000 C 
ATOM      9  C   UNL     1       5.500   3.602  16.156  0.00  0.00    +0.000 C 
ENDROOT
BRANCH   7  10
ATOM     10  C   UNL     1       3.142   5.049  18.936  0.00  0.00    +0.000 C 
ATOM     11  C   UNL     1       2.991   6.379  18.190  0.00  0.00    +0.000 C 
ATOM     12  C   UNL     1       1.755   4.432  19.156  0.00  0.00    +0.000 C 
BRANCH  10  13
ATOM     13  O   UNL     1       3.663   5.359  20.239  0.00  0.00    +0.000 OA
ATOM     14  H   UNL     1       4.504   5.837  20.104  0.00  0.00    +0.000 HD
ENDBRANCH  10  13
ENDBRANCH   7  10
TORSDOF 2
ENDMDL
