MODEL 1
REMARK VINA RESULT:      -7.7      0.000      0.000
REMARK  Name = 
REMARK  5 active torsions:
REMARK  status: ('A' for Active; 'I' for Inactive)
REMARK    1  A    between atoms: C_2  and  C_3
REMARK    2  A    between atoms: C_3  and  C_4
REMARK    3  A    between atoms: C_4  and  O_5
REMARK    4  A    between atoms: C_10  and  O_11
REMARK    5  A    between atoms: C_16  and  O_17
REMARK                            x       y       z     vdW  Elec       q    Type
REMARK                         _______ _______ _______ _____ _____    ______ ____
ROOT
ATOM      1  C   UNL     1       4.302   3.589  18.410  0.00  0.00    +0.000 C 
ATOM      2  C   UNL     1       4.948   4.174  17.159  0.00  0.00    +0.000 A 
ATOM      3  C   UNL     1       5.765   3.348  16.352  0.00  0.00    +0.000 A 
ATOM      4  C   UNL     1       6.313   3.805  15.159  0.00  0.00    +0.000 A 
ATOM      5  C   UNL     1       6.068   5.109  14.751  0.00  0.00    +0.000 A 
ATOM      6  C   UNL     1       5.276   5.951  15.540  0.00  0.00    +0.000 A 
ATOM      7  C   UNL     1       4.703   5.499  16.743  0.00  0.00    +0.000 A 
ATOM      8  C   UNL     1       3.830   6.375  17.572  0.00  0.00    +0.000 C 
ATOM      9  O   UNL     1       3.573   7.538  17.263  0.00  0.00    +0.000 OA
ATOM     10  C   UNL     1       3.225   5.861  18.829  0.00  0.00    +0.000 A 
ATOM     11  C   UNL     1       2.399   6.687  19.616  0.00  0.00    +0.000 A 
ATOM     12  C   UNL     1       1.826   6.221  20.797  0.00  0.00    +0.000 A 
ATOM     13  C   UNL     1       2.086   4.928  21.223  0.00  0.00    +0.000 A 
ATOM     14  C   UNL     1       2.913   4.109  20.461  0.00  0.00    +0.000 A 
ATOM     15  C   UNL     1       3.478   4.551  19.239  0.00  0.00    +0.000 A 
ENDROOT
BRANCH   1  16
ATOM     16  O   UNL     1       5.345   3.140  19.296  0.00  0.00    +0.000 OA
ATOM     17  H   UNL     1       5.870   3.901  19.592  0.00  0.00    +0.000 HD
ENDBRANCH   1  16
BRANCH   6  18
ATOM     18  O   UNL     1       5.065   7.222  15.093  0.00  0.00    +0.000 OA
ATOM     19  H   UNL     1       4.117   7.430  15.089  0.00  0.00    +0.000 HD
ENDBRANCH   6  18
BRANCH  11  20
ATOM     20  O   UNL     1       2.101   7.985  19.282  0.00  0.00    +0.000 OA
ATOM     21  H   UNL     1       2.795   8.554  19.679  0.00  0.00    +0.000 HD
ENDBRANCH  11  20
BRANCH   1  22
ATOM     22  C   UNL     1       3.432   2.340  18.033  0.00  0.00    +0.000 C 
BRANCH  22  24
ATOM     23  C   UNL     1       0.977   2.174  18.538  0.00  0.00    +0.000 C 
ATOM     24  C   UNL     1       1.972   2.624  17.764  0.00  0.00    +0.000 C 
ENDBRANCH  22  24
ENDBRANCH   1  22
TORSDOF 5
ENDMDL
MODEL 2
REMARK VINA RESULT:      -7.5      1.892      5.587
REMARK  Name = 
REMARK  5 active torsions:
REMARK  status: ('A' for Active; 'I' for Inactive)
REMARK    1  A    between atoms: C_2  and  C_3
REMARK    2  A    between atoms: C_3  and  C_4
REMARK    3  A    between atoms: C_4  and  O_5
REMARK    4  A    between atoms: C_10  and  O_11
REMARK    5  A    between atoms: C_16  and  O_17
REMARK                            x       y       z     vdW  Elec       q    Type
REMARK                         _______ _______ _______ _____ _____    ______ ____
ROOT
ATOM      1  C   UNL     1       3.273   5.956  18.580  0.00  0.00    +0.000 C 
ATOM      2  C   UNL     1       2.566   4.741  19.169  0.00  0.00    +0.000 A 
ATOM      3  C   UNL     1       1.555   4.933  20.140  0.00  0.00    +0.000 A 
ATOM      4  C   UNL     1       0.821   3.868  20.650  0.00  0.00    +0.000 A 
ATOM      5  C   UNL     1       1.093   2.580  20.212  0.00  0.00    +0.000 A 
ATOM      6  C   UNL     1       2.100   2.362  19.265  0.00  0.00    +0.000 A 
ATOM      7  C   UNL     1       2.841   3.430  18.727  0.00  0.00    +0.000 A 
ATOM      8  C   UNL     1       3.890   3.214  17.693  0.00  0.00    +0.000 C 
ATOM      9  O   UNL     1       4.176   2.097  17.261  0.00  0.00    +0.000 OA
ATOM     10  C   UNL     1       4.643   4.366  17.131  0.00  0.00    +0.000 A 
ATOM     11  C   UNL     1       5.635   4.165  16.154  0.00  0.00    +0.000 A 
ATOM     12  C   UNL     1       6.351   5.235  15.619  0.00  0.00    +0.000 A 
ATOM     13  C   UNL     1       6.101   6.521  16.070  0.00  0.00    +0.000 A 
ATOM     14  C   UNL     1       5.133   6.729  17.048  0.00  0.00    +0.000 A 
ATOM     15  C   UNL     1       4.371   5.660  17.579  0.00  0.00    +0.000 A 
ENDROOT
BRANCH   1  16
ATOM     16  O   UNL     1       3.930   6.665  19.647  0.00  0.00    +0.000 OA
ATOM     17  H   UNL     1       4.017   7.603  19.410  0.00  0.00    +0.000 HD
ENDBRANCH   1  16
BRANCH   6  18
ATOM     18  O   UNL     1       2.327   1.077  18.866  0.00  0.00    +0.000 OA
ATOM     19  H   UNL     1       2.667   0.546  19.604  0.00  0.00    +0.000 HD
ENDBRANCH   6  18
BRANCH  11  20
ATOM     20  O   UNL     1       5.962   2.926  15.661  0.00  0.00    +0.000 OA
ATOM     21  H   UNL     1       6.090   2.331  16.431  0.00  0.00    +0.000 HD
ENDBRANCH  11  20
BRANCH   1  22
ATOM     22  C   UNL     1       2.225   6.931  17.940  0.00  0.00    +0.000 C 
BRANCH  22  24
ATOM     23  C   UNL     1       1.849   9.413  17.854  0.00  0.00    +0.000 C 
ATOM     24  C   UNL     1       2.171   8.314  18.546  0.00  0.00    +0.000 C 
ENDBRANCH  22  24
ENDBRANCH   1  22
TORSDOF 5
ENDMDL
MODEL 3
REMARK VINA RESULT:      -7.4      2.160      5.133
REMARK  Name = 
REMARK  5 active torsions:
REMARK  status: ('A' for Active; 'I' for Inactive)
REMARK    1  A    between atoms: C_2  and  C_3
REMARK    2  A    between atoms: C_3  and  C_4
REMARK    3  A    between atoms: C_4  and  O_5
REMARK    4  A    between atoms: C_10  and  O_11
REMARK    5  A    between atoms: C_16  and  O_17
REMARK                            x       y       z     vdW  Elec       q    Type
REMARK                         _______ _______ _______ _____ _____    ______ ____
ROOT
ATOM      1  C   UNL     1       4.433   5.809  17.072  0.00  0.00    +0.000 C 
ATOM      2  C   UNL     1       3.612   4.748  17.795  0.00  0.00    +0.000 A 
ATOM      3  C   UNL     1       2.355   4.369  17.270  0.00  0.00    +0.000 A 
ATOM      4  C   UNL     1       1.601   3.350  17.841  0.00  0.00    +0.000 A 
ATOM      5  C   UNL     1       2.083   2.694  18.965  0.00  0.00    +0.000 A 
ATOM      6  C   UNL     1       3.317   3.061  19.514  0.00  0.00    +0.000 A 
ATOM      7  C   UNL     1       4.098   4.080  18.939  0.00  0.00    +0.000 A 
ATOM      8  C   UNL     1       5.428   4.454  19.492  0.00  0.00    +0.000 C 
ATOM      9  O   UNL     1       5.911   3.908  20.484  0.00  0.00    +0.000 OA
ATOM     10  C   UNL     1       6.237   5.523  18.851  0.00  0.00    +0.000 A 
ATOM     11  C   UNL     1       7.495   5.880  19.372  0.00  0.00    +0.000 A 
ATOM     12  C   UNL     1       8.264   6.881  18.783  0.00  0.00    +0.000 A 
ATOM     13  C   UNL     1       7.779   7.557  17.675  0.00  0.00    +0.000 A 
ATOM     14  C   UNL     1       6.530   7.223  17.161  0.00  0.00    +0.000 A 
ATOM     15  C   UNL     1       5.747   6.186  17.724  0.00  0.00    +0.000 A 
ENDROOT
BRANCH   1  16
ATOM     16  O   UNL     1       3.674   7.033  17.042  0.00  0.00    +0.000 OA
ATOM     17  H   UNL     1       3.899   7.536  16.242  0.00  0.00    +0.000 HD
ENDBRANCH   1  16
BRANCH   6  18
ATOM     18  O   UNL     1       3.745   2.383  20.617  0.00  0.00    +0.000 OA
ATOM     19  H   UNL     1       3.099   1.707  20.875  0.00  0.00    +0.000 HD
ENDBRANCH   6  18
BRANCH  11  20
ATOM     20  O   UNL     1       8.048   5.277  20.475  0.00  0.00    +0.000 OA
ATOM     21  H   UNL     1       8.804   5.834  20.762  0.00  0.00    +0.000 HD
ENDBRANCH  11  20
BRANCH   1  22
ATOM     22  C   UNL     1       4.687   5.374  15.587  0.00  0.00    +0.000 C 
BRANCH  22  24
ATOM     23  C   UNL     1       6.292   3.934  14.298  0.00  0.00    +0.000 C 
ATOM     24  C   UNL     1       5.582   4.169  15.408  0.00  0.00    +0.000 C 
ENDBRANCH  22  24
ENDBRANCH   1  22
TORSDOF 5
ENDMDL
MODEL 4
REMARK VINA RESULT:      -7.4      2.057      3.983
REMARK  Name = 
REMARK  5 active torsions:
REMARK  status: ('A' for Active; 'I' for Inactive)
REMARK    1  A    between atoms: C_2  and  C_3
REMARK    2  A    between atoms: C_3  and  C_4
REMARK    3  A    between atoms: C_4  and  O_5
REMARK    4  A    between atoms: C_10  and  O_11
REMARK    5  A    between atoms: C_16  and  O_17
REMARK                            x       y       z     vdW  Elec       q    Type
REMARK                         _______ _______ _______ _____ _____    ______ ____
ROOT
ATOM      1  C   UNL     1       2.768   5.720  18.467  0.00  0.00    +0.000 C 
ATOM      2  C   UNL     1       4.157   5.727  17.839  0.00  0.00    +0.000 A 
ATOM      3  C   UNL     1       4.469   6.701  16.861  0.00  0.00    +0.000 A 
ATOM      4  C   UNL     1       5.742   6.806  16.315  0.00  0.00    +0.000 A 
ATOM      5  C   UNL     1       6.734   5.925  16.723  0.00  0.00    +0.000 A 
ATOM      6  C   UNL     1       6.447   4.942  17.677  0.00  0.00    +0.000 A 
ATOM      7  C   UNL     1       5.167   4.833  18.250  0.00  0.00    +0.000 A 
ATOM      8  C   UNL     1       4.860   3.814  19.292  0.00  0.00    +0.000 C 
ATOM      9  O   UNL     1       5.696   3.008  19.698  0.00  0.00    +0.000 OA
ATOM     10  C   UNL     1       3.502   3.736  19.891  0.00  0.00    +0.000 A 
ATOM     11  C   UNL     1       3.208   2.774  20.876  0.00  0.00    +0.000 A 
ATOM     12  C   UNL     1       1.939   2.687  21.446  0.00  0.00    +0.000 A 
ATOM     13  C   UNL     1       0.937   3.547  21.025  0.00  0.00    +0.000 A 
ATOM     14  C   UNL     1       1.213   4.492  20.041  0.00  0.00    +0.000 A 
ATOM     15  C   UNL     1       2.505   4.619  19.473  0.00  0.00    +0.000 A 
ENDROOT
BRANCH   1  16
ATOM     16  O   UNL     1       1.796   5.507  17.427  0.00  0.00    +0.000 OA
ATOM     17  H   UNL     1       1.785   6.273  16.830  0.00  0.00    +0.000 HD
ENDBRANCH   1  16
BRANCH   6  18
ATOM     18  O   UNL     1       7.458   4.103  18.045  0.00  0.00    +0.000 OA
ATOM     19  H   UNL     1       7.112   3.360  18.565  0.00  0.00    +0.000 HD
ENDBRANCH   6  18
BRANCH  11  20
ATOM     20  O   UNL     1       4.132   1.870  21.341  0.00  0.00    +0.000 OA
ATOM     21  H   UNL     1       3.897   1.669  22.273  0.00  0.00    +0.000 HD
ENDBRANCH  11  20
BRANCH   1  22
ATOM     22  C   UNL     1       2.466   7.113  19.119  0.00  0.00    +0.000 C 
BRANCH  22  24
ATOM     23  C   UNL     1       2.096   9.285  17.912  0.00  0.00    +0.000 C 
ATOM     24  C   UNL     1       1.664   8.069  18.265  0.00  0.00    +0.000 C 
ENDBRANCH  22  24
ENDBRANCH   1  22
TORSDOF 5
ENDMDL
MODEL 5
REMARK VINA RESULT:      -7.2      2.124      3.764
REMARK  Name = 
REMARK  5 active torsions:
REMARK  status: ('A' for Active; 'I' for Inactive)
REMARK    1  A    between atoms: C_2  and  C_3
REMARK    2  A    between atoms: C_3  and  C_4
REMARK    3  A    between atoms: C_4  and  O_5
REMARK    4  A    between atoms: C_10  and  O_11
REMARK    5  A    between atoms: C_16  and  O_17
REMARK                            x       y       z     vdW  Elec       q    Type
REMARK                         _______ _______ _______ _____ _____    ______ ____
ROOT
ATOM      1  C   UNL     1       2.520   4.945  17.962  0.00  0.00    +0.000 C 
ATOM      2  C   UNL     1       3.959   5.058  17.470  0.00  0.00    +0.000 A 
ATOM      3  C   UNL     1       4.243   5.865  16.344  0.00  0.00    +0.000 A 
ATOM      4  C   UNL     1       5.545   6.070  15.902  0.00  0.00    +0.000 A 
ATOM      5  C   UNL     1       6.596   5.456  16.569  0.00  0.00    +0.000 A 
ATOM      6  C   UNL     1       6.340   4.639  17.676  0.00  0.00    +0.000 A 
ATOM      7  C   UNL     1       5.029   4.434  18.144  0.00  0.00    +0.000 A 
ATOM      8  C   UNL     1       4.748   3.596  19.342  0.00  0.00    +0.000 C 
ATOM      9  O   UNL     1       5.636   3.029  19.978  0.00  0.00    +0.000 OA
ATOM     10  C   UNL     1       3.353   3.414  19.823  0.00  0.00    +0.000 A 
ATOM     11  C   UNL     1       3.083   2.622  20.955  0.00  0.00    +0.000 A 
ATOM     12  C   UNL     1       1.782   2.441  21.417  0.00  0.00    +0.000 A 
ATOM     13  C   UNL     1       0.725   3.031  20.742  0.00  0.00    +0.000 A 
ATOM     14  C   UNL     1       0.979   3.803  19.612  0.00  0.00    +0.000 A 
ATOM     15  C   UNL     1       2.298   4.028  19.146  0.00  0.00    +0.000 A 
ENDROOT
BRANCH   1  16
ATOM     16  O   UNL     1       1.718   4.383  16.906  0.00  0.00    +0.000 OA
ATOM     17  H   UNL     1       2.255   3.764  16.385  0.00  0.00    +0.000 HD
ENDBRANCH   1  16
BRANCH   6  18
ATOM     18  O   UNL     1       7.408   4.061  18.297  0.00  0.00    +0.000 OA
ATOM     19  H   UNL     1       7.498   3.133  18.028  0.00  0.00    +0.000 HD
ENDBRANCH   6  18
BRANCH  11  20
ATOM     20  O   UNL     1       4.064   1.986  21.676  0.00  0.00    +0.000 OA
ATOM     21  H   UNL     1       4.102   1.058  21.359  0.00  0.00    +0.000 HD
ENDBRANCH  11  20
BRANCH   1  22
ATOM     22  C   UNL     1       1.948   6.369  18.283  0.00  0.00    +0.000 C 
BRANCH  22  24
ATOM     23  C   UNL     1       1.773   7.412  20.562  0.00  0.00    +0.000 C 
ATOM     24  C   UNL     1       2.517   7.034  19.515  0.00  0.00    +0.000 C 
ENDBRANCH  22  24
ENDBRANCH   1  22
TORSDOF 5
ENDMDL
MODEL 6
REMARK VINA RESULT:      -7.1      2.243      4.320
REMARK  Name = 
REMARK  5 active torsions:
REMARK  status: ('A' for Active; 'I' for Inactive)
REMARK    1  A    between atoms: C_2  and  C_3
REMARK    2  A    between atoms: C_3  and  C_4
REMARK    3  A    between atoms: C_4  and  O_5
REMARK    4  A    between atoms: C_10  and  O_11
REMARK    5  A    between atoms: C_16  and  O_17
REMARK                            x       y       z     vdW  Elec       q    Type
REMARK                         _______ _______ _______ _____ _____    ______ ____
ROOT
ATOM      1  C   UNL     1       4.490   5.677  17.021  0.00  0.00    +0.000 C 
ATOM      2  C   UNL     1       5.827   6.081  17.630  0.00  0.00    +0.000 A 
ATOM      3  C   UNL     1       6.561   7.139  17.044  0.00  0.00    +0.000 A 
ATOM      4  C   UNL     1       7.745   7.605  17.604  0.00  0.00    +0.000 A 
ATOM      5  C   UNL     1       8.233   7.010  18.759  0.00  0.00    +0.000 A 
ATOM      6  C   UNL     1       7.534   5.950  19.349  0.00  0.00    +0.000 A 
ATOM      7  C   UNL     1       6.327   5.478  18.803  0.00  0.00    +0.000 A 
ATOM      8  C   UNL     1       5.556   4.376  19.441  0.00  0.00    +0.000 C 
ATOM      9  O   UNL     1       5.934   3.811  20.468  0.00  0.00    +0.000 OA
ATOM     10  C   UNL     1       4.274   3.912  18.849  0.00  0.00    +0.000 A 
ATOM     11  C   UNL     1       3.543   2.870  19.450  0.00  0.00    +0.000 A 
ATOM     12  C   UNL     1       2.341   2.423  18.906  0.00  0.00    +0.000 A 
ATOM     13  C   UNL     1       1.860   2.996  17.739  0.00  0.00    +0.000 A 
ATOM     14  C   UNL     1       2.583   4.016  17.128  0.00  0.00    +0.000 A 
ATOM     15  C   UNL     1       3.790   4.508  17.683  0.00  0.00    +0.000 A 
ENDROOT
BRANCH   1  16
ATOM     16  O   UNL     1       4.715   5.248  15.664  0.00  0.00    +0.000 OA
ATOM     17  H   UNL     1       5.016   6.002  15.131  0.00  0.00    +0.000 HD
ENDBRANCH   1  16
BRANCH   6  18
ATOM     18  O   UNL     1       8.055   5.402  20.484  0.00  0.00    +0.000 OA
ATOM     19  H   UNL     1       8.912   5.805  20.695  0.00  0.00    +0.000 HD
ENDBRANCH   6  18
BRANCH  11  20
ATOM     20  O   UNL     1       3.950   2.233  20.597  0.00  0.00    +0.000 OA
ATOM     21  H   UNL     1       4.743   2.709  20.927  0.00  0.00    +0.000 HD
ENDBRANCH  11  20
BRANCH   1  22
ATOM     22  C   UNL     1       3.524   6.911  16.972  0.00  0.00    +0.000 C 
BRANCH  22  24
ATOM     23  C   UNL     1       2.144   8.395  18.456  0.00  0.00    +0.000 C 
ATOM     24  C   UNL     1       2.952   7.339  18.304  0.00  0.00    +0.000 C 
ENDBRANCH  22  24
ENDBRANCH   1  22
TORSDOF 5
ENDMDL
MODEL 7
REMARK VINA RESULT:      -7.0      4.765      8.424
REMARK  Name = 
REMARK  5 active torsions:
REMARK  status: ('A' for Active; 'I' for Inactive)
REMARK    1  A    between atoms: C_2  and  C_3
REMARK    2  A    between atoms: C_3  and  C_4
REMARK    3  A    between atoms: C_4  and  O_5
REMARK    4  A    between atoms: C_10  and  O_11
REMARK    5  A    between atoms: C_16  and  O_17
REMARK                            x       y       z     vdW  Elec       q    Type
REMARK                         _______ _______ _______ _____ _____    ______ ____
ROOT
ATOM      1  C   UNL     1       0.289  11.036  19.071  0.00  0.00    +0.000 C 
ATOM      2  C   UNL     1      -0.280  11.334  20.453  0.00  0.00    +0.000 A 
ATOM      3  C   UNL     1      -1.036  12.513  20.650  0.00  0.00    +0.000 A 
ATOM      4  C   UNL     1      -1.647  12.795  21.867  0.00  0.00    +0.000 A 
ATOM      5  C   UNL     1      -1.503  11.907  22.924  0.00  0.00    +0.000 A 
ATOM      6  C   UNL     1      -0.746  10.741  22.759  0.00  0.00    +0.000 A 
ATOM      7  C   UNL     1      -0.135  10.435  21.530  0.00  0.00    +0.000 A 
ATOM      8  C   UNL     1       0.642   9.180  21.332  0.00  0.00    +0.000 C 
ATOM      9  O   UNL     1       0.804   8.352  22.229  0.00  0.00    +0.000 OA
ATOM     10  C   UNL     1       1.262   8.877  20.016  0.00  0.00    +0.000 A 
ATOM     11  C   UNL     1       1.997   7.692  19.826  0.00  0.00    +0.000 A 
ATOM     12  C   UNL     1       2.585   7.395  18.598  0.00  0.00    +0.000 A 
ATOM     13  C   UNL     1       2.466   8.289  17.546  0.00  0.00    +0.000 A 
ATOM     14  C   UNL     1       1.754   9.470  17.727  0.00  0.00    +0.000 A 
ATOM     15  C   UNL     1       1.120   9.776  18.956  0.00  0.00    +0.000 A 
ENDROOT
BRANCH   1  16
ATOM     16  O   UNL     1       1.186  12.102  18.706  0.00  0.00    +0.000 OA
ATOM     17  H   UNL     1       1.724  11.828  17.946  0.00  0.00    +0.000 HD
ENDBRANCH   1  16
BRANCH   6  18
ATOM     18  O   UNL     1      -0.638   9.901  23.828  0.00  0.00    +0.000 OA
ATOM     19  H   UNL     1      -0.163  10.334  24.556  0.00  0.00    +0.000 HD
ENDBRANCH   6  18
BRANCH  11  20
ATOM     20  O   UNL     1       2.182   6.758  20.816  0.00  0.00    +0.000 OA
ATOM     21  H   UNL     1       2.230   5.879  20.380  0.00  0.00    +0.000 HD
ENDBRANCH  11  20
BRANCH   1  22
ATOM     22  C   UNL     1      -0.864  11.005  18.009  0.00  0.00    +0.000 C 
BRANCH  22  24
ATOM     23  C   UNL     1      -3.042   9.852  17.518  0.00  0.00    +0.000 C 
ATOM     24  C   UNL     1      -1.889   9.910  18.195  0.00  0.00    +0.000 C 
ENDBRANCH  22  24
ENDBRANCH   1  22
TORSDOF 5
ENDMDL
MODEL 8
REMARK VINA RESULT:      -6.9      1.469      4.697
REMARK  Name = 
REMARK  5 active torsions:
REMARK  status: ('A' for Active; 'I' for Inactive)
REMARK    1  A    between atoms: C_2  and  C_3
REMARK    2  A    between atoms: C_3  and  C_4
REMARK    3  A    between atoms: C_4  and  O_5
REMARK    4  A    between atoms: C_10  and  O_11
REMARK    5  A    between atoms: C_16  and  O_17
REMARK                            x       y       z     vdW  Elec       q    Type
REMARK                         _______ _______ _______ _____ _____    ______ ____
ROOT
ATOM      1  C   UNL     1       3.236   3.317  17.611  0.00  0.00    +0.000 C 
ATOM      2  C   UNL     1       2.495   4.174  18.631  0.00  0.00    +0.000 A 
ATOM      3  C   UNL     1       1.482   3.586  19.423  0.00  0.00    +0.000 A 
ATOM      4  C   UNL     1       0.831   4.298  20.424  0.00  0.00    +0.000 A 
ATOM      5  C   UNL     1       1.169   5.626  20.646  0.00  0.00    +0.000 A 
ATOM      6  C   UNL     1       2.157   6.236  19.865  0.00  0.00    +0.000 A 
ATOM      7  C   UNL     1       2.835   5.524  18.858  0.00  0.00    +0.000 A 
ATOM      8  C   UNL     1       3.912   6.152  18.045  0.00  0.00    +0.000 C 
ATOM      9  O   UNL     1       4.260   7.323  18.196  0.00  0.00    +0.000 OA
ATOM     10  C   UNL     1       4.623   5.367  17.001  0.00  0.00    +0.000 A 
ATOM     11  C   UNL     1       5.641   5.958  16.230  0.00  0.00    +0.000 A 
ATOM     12  C   UNL     1       6.315   5.237  15.247  0.00  0.00    +0.000 A 
ATOM     13  C   UNL     1       5.965   3.918  15.003  0.00  0.00    +0.000 A 
ATOM     14  C   UNL     1       4.949   3.329  15.748  0.00  0.00    +0.000 A 
ATOM     15  C   UNL     1       4.275   4.034  16.776  0.00  0.00    +0.000 A 
ENDROOT
BRANCH   1  16
ATOM     16  O   UNL     1       2.281   2.814  16.657  0.00  0.00    +0.000 OA
ATOM     17  H   UNL     1       1.893   3.555  16.164  0.00  0.00    +0.000 HD
ENDBRANCH   1  16
BRANCH   6  18
ATOM     18  O   UNL     1       2.453   7.541  20.125  0.00  0.00    +0.000 OA
ATOM     19  H   UNL     1       3.407   7.654  20.264  0.00  0.00    +0.000 HD
ENDBRANCH   6  18
BRANCH  11  20
ATOM     20  O   UNL     1       6.042   7.262  16.390  0.00  0.00    +0.000 OA
ATOM     21  H   UNL     1       6.512   7.524  15.569  0.00  0.00    +0.000 HD
ENDBRANCH  11  20
BRANCH   1  22
ATOM     22  C   UNL     1       3.890   2.081  18.320  0.00  0.00    +0.000 C 
BRANCH  22  24
ATOM     23  C   UNL     1       4.493   1.837  20.747  0.00  0.00    +0.000 C 
ATOM     24  C   UNL     1       4.708   2.398  19.551  0.00  0.00    +0.000 C 
ENDBRANCH  22  24
ENDBRANCH   1  22
TORSDOF 5
ENDMDL
MODEL 9
REMARK VINA RESULT:      -6.8      1.547      2.243
REMARK  Name = 
REMARK  5 active torsions:
REMARK  status: ('A' for Active; 'I' for Inactive)
REMARK    1  A    between atoms: C_2  and  C_3
REMARK    2  A    between atoms: C_3  and  C_4
REMARK    3  A    between atoms: C_4  and  O_5
REMARK    4  A    between atoms: C_10  and  O_11
REMARK    5  A    between atoms: C_16  and  O_17
REMARK                            x       y       z     vdW  Elec       q    Type
REMARK                         _______ _______ _______ _____ _____    ______ ____
ROOT
ATOM      1  C   UNL     1       2.918   5.240  19.469  0.00  0.00    +0.000 C 
ATOM      2  C   UNL     1       3.836   5.135  18.257  0.00  0.00    +0.000 A 
ATOM      3  C   UNL     1       4.492   3.910  17.991  0.00  0.00    +0.000 A 
ATOM      4  C   UNL     1       5.275   3.731  16.856  0.00  0.00    +0.000 A 
ATOM      5  C   UNL     1       5.433   4.784  15.965  0.00  0.00    +0.000 A 
ATOM      6  C   UNL     1       4.808   6.011  16.214  0.00  0.00    +0.000 A 
ATOM      7  C   UNL     1       4.001   6.202  17.350  0.00  0.00    +0.000 A 
ATOM      8  C   UNL     1       3.302   7.491  17.607  0.00  0.00    +0.000 C 
ATOM      9  O   UNL     1       3.400   8.460  16.853  0.00  0.00    +0.000 OA
ATOM     10  C   UNL     1       2.441   7.656  18.807  0.00  0.00    +0.000 A 
ATOM     11  C   UNL     1       1.780   8.874  19.053  0.00  0.00    +0.000 A 
ATOM     12  C   UNL     1       0.971   9.044  20.174  0.00  0.00    +0.000 A 
ATOM     13  C   UNL     1       0.828   8.006  21.081  0.00  0.00    +0.000 A 
ATOM     14  C   UNL     1       1.490   6.803  20.856  0.00  0.00    +0.000 A 
ATOM     15  C   UNL     1       2.289   6.597  19.705  0.00  0.00    +0.000 A 
ENDROOT
BRANCH   1  16
ATOM     16  O   UNL     1       3.695   4.985  20.655  0.00  0.00    +0.000 OA
ATOM     17  H   UNL     1       3.649   5.754  21.246  0.00  0.00    +0.000 HD
ENDBRANCH   1  16
BRANCH   6  18
ATOM     18  O   UNL     1       4.995   7.012  15.306  0.00  0.00    +0.000 OA
ATOM     19  H   UNL     1       4.171   7.506  15.169  0.00  0.00    +0.000 HD
ENDBRANCH   6  18
BRANCH  11  20
ATOM     20  O   UNL     1       1.877   9.961  18.219  0.00  0.00    +0.000 OA
ATOM     21  H   UNL     1       1.793   9.630  17.299  0.00  0.00    +0.000 HD
ENDBRANCH  11  20
BRANCH   1  22
ATOM     22  C   UNL     1       1.798   4.146  19.393  0.00  0.00    +0.000 C 
BRANCH  22  24
ATOM     23  C   UNL     1       1.298   2.802  21.455  0.00  0.00    +0.000 C 
ATOM     24  C   UNL     1       1.982   2.964  20.316  0.00  0.00    +0.000 C 
ENDBRANCH  22  24
ENDBRANCH   1  22
TORSDOF 5
ENDMDL
