MODEL 1
REMARK VINA RESULT:      -7.8      0.000      0.000
REMARK  Name = 
REMARK  11 active torsions:
REMARK  status: ('A' for Active; 'I' for Inactive)
REMARK    1  A    between atoms: C_1  and  C_2
REMARK    2  A    between atoms: C_2  and  O_3
REMARK    3  A    between atoms: O_3  and  C_4
REMARK    4  A    between atoms: C_7  and  N_8
REMARK    5  A    between atoms: N_8  and  C_9
REMARK    6  A    between atoms: N_8  and  S_10
REMARK    7  A    between atoms: S_10  and  C_13
REMARK    8  A    between atoms: C_15  and  C_16
REMARK    9  A    between atoms: C_18  and  C_19
REMARK   10  A    between atoms: C_24  and  O_25
REMARK   11  A    between atoms: O_25  and  C_26
REMARK                            x       y       z     vdW  Elec       q    Type
REMARK                         _______ _______ _______ _____ _____    ______ ____
ROOT
ATOM      1  S   UNL     1       3.971   3.018  18.893  0.00  0.00    +0.000 S 
ATOM      2  O   UNL     1       4.270   3.080  20.305  0.00  0.00    +0.000 OA
ATOM      3  O   UNL     1       3.915   1.713  18.259  0.00  0.00    +0.000 OA
ENDROOT
BRANCH   1   4
ATOM      4  C   UNL     1       5.178   3.978  17.964  0.00  0.00    +0.000 A 
ATOM      5  C   UNL     1       5.017   3.830  16.556  0.00  0.00    +0.000 A 
ATOM      6  C   UNL     1       5.927   4.334  15.615  0.00  0.00    +0.000 A 
ATOM      7  C   UNL     1       7.010   5.055  16.092  0.00  0.00    +0.000 A 
ATOM      8  C   UNL     1       7.173   5.231  17.468  0.00  0.00    +0.000 A 
ATOM      9  C   UNL     1       6.285   4.693  18.434  0.00  0.00    +0.000 A 
BRANCH   6  10
ATOM     10  C   UNL     1       5.757   4.028  14.200  0.00  0.00    +0.000 A 
ATOM     11  C   UNL     1       4.689   3.682  13.410  0.00  0.00    +0.000 A 
ATOM     12  C   UNL     1       5.243   3.420  12.140  0.00  0.00    +0.000 A 
ATOM     13  C   UNL     1       4.551   2.945  10.923  0.00  0.00    +0.000 C 
ATOM     14  N   UNL     1       6.566   3.634  12.135  0.00  0.00    +0.000 NA
ATOM     15  O   UNL     1       6.884   4.020  13.428  0.00  0.00    +0.000 OA
ENDBRANCH   6  10
BRANCH   9  16
ATOM     16  O   UNL     1       6.751   5.063  19.655  0.00  0.00    +0.000 OA
ATOM     17  C   UNL     1       7.974   5.716  19.896  0.00  0.00    +0.000 C 
ENDBRANCH   9  16
ENDBRANCH   1   4
BRANCH   1  18
ATOM     18  N   UNL     1       2.482   3.785  18.636  0.00  0.00    +0.000 N 
ATOM     19  C   UNL     1       1.312   2.998  18.251  0.00  0.00    +0.000 C 
BRANCH  18  23
ATOM     20  C   UNL     1       1.830   7.708  20.056  0.00  0.00    +0.000 A 
ATOM     21  C   UNL     1       1.513   6.598  20.841  0.00  0.00    +0.000 A 
ATOM     22  C   UNL     1       1.752   5.308  20.369  0.00  0.00    +0.000 A 
ATOM     23  C   UNL     1       2.299   5.120  19.101  0.00  0.00    +0.000 A 
ATOM     24  C   UNL     1       2.637   6.224  18.318  0.00  0.00    +0.000 A 
ATOM     25  C   UNL     1       2.384   7.520  18.789  0.00  0.00    +0.000 A 
BRANCH  20  26
ATOM     26  O   UNL     1       1.531   8.911  20.631  0.00  0.00    +0.000 OA
BRANCH  26  28
ATOM     27  C   UNL     1       0.135   9.902  22.276  0.00  0.00    +0.000 C 
ATOM     28  C   UNL     1       1.260   8.911  22.032  0.00  0.00    +0.000 C 
ENDBRANCH  26  28
ENDBRANCH  20  26
ENDBRANCH  18  23
ENDBRANCH   1  18
TORSDOF 7
ENDMDL
MODEL 2
REMARK VINA RESULT:      -7.6      2.037      7.987
REMARK  Name = 
REMARK  11 active torsions:
REMARK  status: ('A' for Active; 'I' for Inactive)
REMARK    1  A    between atoms: C_1  and  C_2
REMARK    2  A    between atoms: C_2  and  O_3
REMARK    3  A    between atoms: O_3  and  C_4
REMARK    4  A    between atoms: C_7  and  N_8
REMARK    5  A    between atoms: N_8  and  C_9
REMARK    6  A    between atoms: N_8  and  S_10
REMARK    7  A    between atoms: S_10  and  C_13
REMARK    8  A    between atoms: C_15  and  C_16
REMARK    9  A    between atoms: C_18  and  C_19
REMARK   10  A    between atoms: C_24  and  O_25
REMARK   11  A    between atoms: O_25  and  C_26
REMARK                            x       y       z     vdW  Elec       q    Type
REMARK                         _______ _______ _______ _____ _____    ______ ____
ROOT
ATOM      1  S   UNL     1       6.015   4.990  18.724  0.00  0.00    +0.000 S 
ATOM      2  O   UNL     1       6.582   3.693  18.433  0.00  0.00    +0.000 OA
ATOM      3  O   UNL     1       6.642   5.799  19.754  0.00  0.00    +0.000 OA
ENDROOT
BRANCH   1   4
ATOM      4  C   UNL     1       4.288   4.815  19.202  0.00  0.00    +0.000 A 
ATOM      5  C   UNL     1       3.640   6.074  19.354  0.00  0.00    +0.000 A 
ATOM      6  C   UNL     1       2.348   6.224  19.880  0.00  0.00    +0.000 A 
ATOM      7  C   UNL     1       1.658   5.070  20.221  0.00  0.00    +0.000 A 
ATOM      8  C   UNL     1       2.268   3.825  20.059  0.00  0.00    +0.000 A 
ATOM      9  C   UNL     1       3.588   3.660  19.567  0.00  0.00    +0.000 A 
BRANCH   6  10
ATOM     10  C   UNL     1       1.808   7.555  20.122  0.00  0.00    +0.000 A 
ATOM     11  C   UNL     1       1.210   8.172  21.193  0.00  0.00    +0.000 A 
ATOM     12  C   UNL     1       0.828   9.443  20.716  0.00  0.00    +0.000 A 
ATOM     13  C   UNL     1       0.086  10.501  21.433  0.00  0.00    +0.000 C 
ATOM     14  N   UNL     1       1.207   9.616  19.443  0.00  0.00    +0.000 NA
ATOM     15  O   UNL     1       1.825   8.432  19.075  0.00  0.00    +0.000 OA
ENDBRANCH   6  10
BRANCH   9  16
ATOM     16  O   UNL     1       3.842   2.325  19.543  0.00  0.00    +0.000 OA
ATOM     17  C   UNL     1       3.583   1.468  18.458  0.00  0.00    +0.000 C 
ENDBRANCH   9  16
ENDBRANCH   1   4
BRANCH   1  18
ATOM     18  N   UNL     1       6.002   5.893  17.290  0.00  0.00    +0.000 N 
ATOM     19  C   UNL     1       6.236   7.336  17.334  0.00  0.00    +0.000 C 
BRANCH  18  23
ATOM     20  C   UNL     1       6.296   3.979  13.538  0.00  0.00    +0.000 A 
ATOM     21  C   UNL     1       7.347   4.753  14.034  0.00  0.00    +0.000 A 
ATOM     22  C   UNL     1       7.246   5.364  15.283  0.00  0.00    +0.000 A 
ATOM     23  C   UNL     1       6.085   5.213  16.041  0.00  0.00    +0.000 A 
ATOM     24  C   UNL     1       5.038   4.425  15.562  0.00  0.00    +0.000 A 
ATOM     25  C   UNL     1       5.137   3.823  14.299  0.00  0.00    +0.000 A 
BRANCH  20  26
ATOM     26  O   UNL     1       6.519   3.452  12.297  0.00  0.00    +0.000 OA
BRANCH  26  28
ATOM     27  C   UNL     1       6.156   1.365  11.223  0.00  0.00    +0.000 C 
ATOM     28  C   UNL     1       5.492   2.626  11.750  0.00  0.00    +0.000 C 
ENDBRANCH  26  28
ENDBRANCH  20  26
ENDBRANCH  18  23
ENDBRANCH   1  18
TORSDOF 7
ENDMDL
MODEL 3
REMARK VINA RESULT:      -7.5      0.935      1.381
REMARK  Name = 
REMARK  11 active torsions:
REMARK  status: ('A' for Active; 'I' for Inactive)
REMARK    1  A    between atoms: C_1  and  C_2
REMARK    2  A    between atoms: C_2  and  O_3
REMARK    3  A    between atoms: O_3  and  C_4
REMARK    4  A    between atoms: C_7  and  N_8
REMARK    5  A    between atoms: N_8  and  C_9
REMARK    6  A    between atoms: N_8  and  S_10
REMARK    7  A    between atoms: S_10  and  C_13
REMARK    8  A    between atoms: C_15  and  C_16
REMARK    9  A    between atoms: C_18  and  C_19
REMARK   10  A    between atoms: C_24  and  O_25
REMARK   11  A    between atoms: O_25  and  C_26
REMARK                            x       y       z     vdW  Elec       q    Type
REMARK                         _______ _______ _______ _____ _____    ______ ____
ROOT
ATOM      1  S   UNL     1       3.974   2.842  18.883  0.00  0.00    +0.000 S 
ATOM      2  O   UNL     1       4.303   2.877  20.290  0.00  0.00    +0.000 OA
ATOM      3  O   UNL     1       3.978   1.557  18.207  0.00  0.00    +0.000 OA
ENDROOT
BRANCH   1   4
ATOM      4  C   UNL     1       5.100   3.901  17.960  0.00  0.00    +0.000 A 
ATOM      5  C   UNL     1       4.956   3.743  16.551  0.00  0.00    +0.000 A 
ATOM      6  C   UNL     1       5.823   4.322  15.613  0.00  0.00    +0.000 A 
ATOM      7  C   UNL     1       6.842   5.130  16.095  0.00  0.00    +0.000 A 
ATOM      8  C   UNL     1       6.986   5.315  17.472  0.00  0.00    +0.000 A 
ATOM      9  C   UNL     1       6.143   4.704  18.435  0.00  0.00    +0.000 A 
BRANCH   6  10
ATOM     10  C   UNL     1       5.684   4.006  14.198  0.00  0.00    +0.000 A 
ATOM     11  C   UNL     1       4.624   3.718  13.375  0.00  0.00    +0.000 A 
ATOM     12  C   UNL     1       5.204   3.402  12.128  0.00  0.00    +0.000 A 
ATOM     13  C   UNL     1       4.525   2.954  10.894  0.00  0.00    +0.000 C 
ATOM     14  N   UNL     1       6.537   3.531  12.168  0.00  0.00    +0.000 NA
ATOM     15  O   UNL     1       6.834   3.914  13.466  0.00  0.00    +0.000 OA
ENDBRANCH   6  10
BRANCH   9  16
ATOM     16  O   UNL     1       6.574   5.109  19.658  0.00  0.00    +0.000 OA
ATOM     17  C   UNL     1       7.842   5.649  19.936  0.00  0.00    +0.000 C 
ENDBRANCH   9  16
ENDBRANCH   1   4
BRANCH   1  18
ATOM     18  N   UNL     1       2.437   3.529  18.685  0.00  0.00    +0.000 N 
ATOM     19  C   UNL     1       1.265   2.666  18.548  0.00  0.00    +0.000 C 
BRANCH  18  23
ATOM     20  C   UNL     1       1.988   7.654  19.470  0.00  0.00    +0.000 A 
ATOM     21  C   UNL     1       2.249   7.192  18.179  0.00  0.00    +0.000 A 
ATOM     22  C   UNL     1       2.375   5.826  17.928  0.00  0.00    +0.000 A 
ATOM     23  C   UNL     1       2.253   4.912  18.974  0.00  0.00    +0.000 A 
ATOM     24  C   UNL     1       1.972   5.362  20.264  0.00  0.00    +0.000 A 
ATOM     25  C   UNL     1       1.860   6.737  20.515  0.00  0.00    +0.000 A 
BRANCH  20  26
ATOM     26  O   UNL     1       1.904   9.013  19.579  0.00  0.00    +0.000 OA
BRANCH  26  28
ATOM     27  C   UNL     1       0.846  11.000  18.823  0.00  0.00    +0.000 C 
ATOM     28  C   UNL     1       1.579   9.740  18.395  0.00  0.00    +0.000 C 
ENDBRANCH  26  28
ENDBRANCH  20  26
ENDBRANCH  18  23
ENDBRANCH   1  18
TORSDOF 7
ENDMDL
MODEL 4
REMARK VINA RESULT:      -7.2      2.225      7.612
REMARK  Name = 
REMARK  11 active torsions:
REMARK  status: ('A' for Active; 'I' for Inactive)
REMARK    1  A    between atoms: C_1  and  C_2
REMARK    2  A    between atoms: C_2  and  O_3
REMARK    3  A    between atoms: O_3  and  C_4
REMARK    4  A    between atoms: C_7  and  N_8
REMARK    5  A    between atoms: N_8  and  C_9
REMARK    6  A    between atoms: N_8  and  S_10
REMARK    7  A    between atoms: S_10  and  C_13
REMARK    8  A    between atoms: C_15  and  C_16
REMARK    9  A    between atoms: C_18  and  C_19
REMARK   10  A    between atoms: C_24  and  O_25
REMARK   11  A    between atoms: O_25  and  C_26
REMARK                            x       y       z     vdW  Elec       q    Type
REMARK                         _______ _______ _______ _____ _____    ______ ____
ROOT
ATOM      1  S   UNL     1       6.878   5.244  18.522  0.00  0.00    +0.000 S 
ATOM      2  O   UNL     1       7.580   4.006  18.269  0.00  0.00    +0.000 OA
ATOM      3  O   UNL     1       7.398   6.132  19.547  0.00  0.00    +0.000 OA
ENDROOT
BRANCH   1   4
ATOM      4  C   UNL     1       5.168   4.902  18.970  0.00  0.00    +0.000 A 
ATOM      5  C   UNL     1       4.342   6.058  18.866  0.00  0.00    +0.000 A 
ATOM      6  C   UNL     1       3.014   6.105  19.315  0.00  0.00    +0.000 A 
ATOM      7  C   UNL     1       2.474   4.942  19.842  0.00  0.00    +0.000 A 
ATOM      8  C   UNL     1       3.261   3.791  19.932  0.00  0.00    +0.000 A 
ATOM      9  C   UNL     1       4.617   3.739  19.519  0.00  0.00    +0.000 A 
BRANCH   6  10
ATOM     10  C   UNL     1       2.280   7.363  19.291  0.00  0.00    +0.000 A 
ATOM     11  C   UNL     1       2.047   8.325  18.339  0.00  0.00    +0.000 A 
ATOM     12  C   UNL     1       1.341   9.343  19.013  0.00  0.00    +0.000 A 
ATOM     13  C   UNL     1       0.891  10.646  18.481  0.00  0.00    +0.000 C 
ATOM     14  N   UNL     1       1.114   9.010  20.291  0.00  0.00    +0.000 NA
ATOM     15  O   UNL     1       1.700   7.766  20.461  0.00  0.00    +0.000 OA
ENDBRANCH   6  10
BRANCH   9  16
ATOM     16  O   UNL     1       5.057   2.475  19.750  0.00  0.00    +0.000 OA
ATOM     17  C   UNL     1       4.303   1.303  19.554  0.00  0.00    +0.000 C 
ENDBRANCH   9  16
ENDBRANCH   1   4
BRANCH   1  18
ATOM     18  N   UNL     1       6.804   6.114  17.069  0.00  0.00    +0.000 N 
ATOM     19  C   UNL     1       7.234   7.511  17.032  0.00  0.00    +0.000 C 
BRANCH  18  23
ATOM     20  C   UNL     1       6.343   4.116  13.378  0.00  0.00    +0.000 A 
ATOM     21  C   UNL     1       7.481   4.878  13.645  0.00  0.00    +0.000 A 
ATOM     22  C   UNL     1       7.632   5.517  14.875  0.00  0.00    +0.000 A 
ATOM     23  C   UNL     1       6.635   5.406  15.844  0.00  0.00    +0.000 A 
ATOM     24  C   UNL     1       5.503   4.630  15.594  0.00  0.00    +0.000 A 
ATOM     25  C   UNL     1       5.348   4.000  14.351  0.00  0.00    +0.000 A 
BRANCH  20  26
ATOM     26  O   UNL     1       6.315   3.558  12.131  0.00  0.00    +0.000 OA
BRANCH  26  28
ATOM     27  C   UNL     1       4.152   3.284  11.188  0.00  0.00    +0.000 C 
ATOM     28  C   UNL     1       5.307   2.580  11.880  0.00  0.00    +0.000 C 
ENDBRANCH  26  28
ENDBRANCH  20  26
ENDBRANCH  18  23
ENDBRANCH   1  18
TORSDOF 7
ENDMDL
MODEL 5
REMARK VINA RESULT:      -7.2      2.281      7.676
REMARK  Name = 
REMARK  11 active torsions:
REMARK  status: ('A' for Active; 'I' for Inactive)
REMARK    1  A    between atoms: C_1  and  C_2
REMARK    2  A    between atoms: C_2  and  O_3
REMARK    3  A    between atoms: O_3  and  C_4
REMARK    4  A    between atoms: C_7  and  N_8
REMARK    5  A    between atoms: N_8  and  C_9
REMARK    6  A    between atoms: N_8  and  S_10
REMARK    7  A    between atoms: S_10  and  C_13
REMARK    8  A    between atoms: C_15  and  C_16
REMARK    9  A    between atoms: C_18  and  C_19
REMARK   10  A    between atoms: C_24  and  O_25
REMARK   11  A    between atoms: O_25  and  C_26
REMARK                            x       y       z     vdW  Elec       q    Type
REMARK                         _______ _______ _______ _____ _____    ______ ____
ROOT
ATOM      1  S   UNL     1       6.156   5.064  18.709  0.00  0.00    +0.000 S 
ATOM      2  O   UNL     1       6.538   3.699  18.425  0.00  0.00    +0.000 OA
ATOM      3  O   UNL     1       6.845   5.763  19.779  0.00  0.00    +0.000 OA
ENDROOT
BRANCH   1   4
ATOM      4  C   UNL     1       4.401   5.143  19.103  0.00  0.00    +0.000 A 
ATOM      5  C   UNL     1       3.836   6.414  18.796  0.00  0.00    +0.000 A 
ATOM      6  C   UNL     1       2.536   6.793  19.160  0.00  0.00    +0.000 A 
ATOM      7  C   UNL     1       1.752   5.852  19.809  0.00  0.00    +0.000 A 
ATOM      8  C   UNL     1       2.280   4.592  20.099  0.00  0.00    +0.000 A 
ATOM      9  C   UNL     1       3.606   4.208  19.775  0.00  0.00    +0.000 A 
BRANCH   6  10
ATOM     10  C   UNL     1       2.079   8.156  18.922  0.00  0.00    +0.000 A 
ATOM     11  C   UNL     1       1.186   8.995  19.541  0.00  0.00    +0.000 A 
ATOM     12  C   UNL     1       1.141  10.146  18.728  0.00  0.00    +0.000 A 
ATOM     13  C   UNL     1       0.292  11.345  18.891  0.00  0.00    +0.000 C 
ATOM     14  N   UNL     1       1.988  10.043  17.695  0.00  0.00    +0.000 NA
ATOM     15  O   UNL     1       2.578   8.795  17.822  0.00  0.00    +0.000 OA
ENDBRANCH   6  10
BRANCH   9  16
ATOM     16  O   UNL     1       3.767   2.928  20.200  0.00  0.00    +0.000 OA
ATOM     17  C   UNL     1       3.821   1.795  19.368  0.00  0.00    +0.000 C 
ENDBRANCH   9  16
ENDBRANCH   1   4
BRANCH   1  18
ATOM     18  N   UNL     1       6.346   5.969  17.289  0.00  0.00    +0.000 N 
ATOM     19  C   UNL     1       6.860   7.336  17.358  0.00  0.00    +0.000 C 
BRANCH  18  23
ATOM     20  C   UNL     1       6.312   4.086  13.510  0.00  0.00    +0.000 A 
ATOM     21  C   UNL     1       7.466   4.703  13.994  0.00  0.00    +0.000 A 
ATOM     22  C   UNL     1       7.471   5.304  15.252  0.00  0.00    +0.000 A 
ATOM     23  C   UNL     1       6.314   5.301  16.030  0.00  0.00    +0.000 A 
ATOM     24  C   UNL     1       5.162   4.670  15.563  0.00  0.00    +0.000 A 
ATOM     25  C   UNL     1       5.155   4.078  14.292  0.00  0.00    +0.000 A 
BRANCH  20  26
ATOM     26  O   UNL     1       6.438   3.551  12.259  0.00  0.00    +0.000 OA
BRANCH  26  28
ATOM     27  C   UNL     1       6.050   1.452  11.219  0.00  0.00    +0.000 C 
ATOM     28  C   UNL     1       5.395   2.686  11.814  0.00  0.00    +0.000 C 
ENDBRANCH  26  28
ENDBRANCH  20  26
ENDBRANCH  18  23
ENDBRANCH   1  18
TORSDOF 7
ENDMDL
MODEL 6
REMARK VINA RESULT:      -7.2      1.994      7.831
REMARK  Name = 
REMARK  11 active torsions:
REMARK  status: ('A' for Active; 'I' for Inactive)
REMARK    1  A    between atoms: C_1  and  C_2
REMARK    2  A    between atoms: C_2  and  O_3
REMARK    3  A    between atoms: O_3  and  C_4
REMARK    4  A    between atoms: C_7  and  N_8
REMARK    5  A    between atoms: N_8  and  C_9
REMARK    6  A    between atoms: N_8  and  S_10
REMARK    7  A    between atoms: S_10  and  C_13
REMARK    8  A    between atoms: C_15  and  C_16
REMARK    9  A    between atoms: C_18  and  C_19
REMARK   10  A    between atoms: C_24  and  O_25
REMARK   11  A    between atoms: O_25  and  C_26
REMARK                            x       y       z     vdW  Elec       q    Type
REMARK                         _______ _______ _______ _____ _____    ______ ____
ROOT
ATOM      1  S   UNL     1       5.938   4.940  18.688  0.00  0.00    +0.000 S 
ATOM      2  O   UNL     1       6.456   3.648  18.299  0.00  0.00    +0.000 OA
ATOM      3  O   UNL     1       6.622   5.666  19.743  0.00  0.00    +0.000 OA
ENDROOT
BRANCH   1   4
ATOM      4  C   UNL     1       4.223   4.782  19.214  0.00  0.00    +0.000 A 
ATOM      5  C   UNL     1       3.589   6.048  19.370  0.00  0.00    +0.000 A 
ATOM      6  C   UNL     1       2.313   6.213  19.929  0.00  0.00    +0.000 A 
ATOM      7  C   UNL     1       1.623   5.069  20.300  0.00  0.00    +0.000 A 
ATOM      8  C   UNL     1       2.220   3.816  20.135  0.00  0.00    +0.000 A 
ATOM      9  C   UNL     1       3.524   3.636  19.609  0.00  0.00    +0.000 A 
BRANCH   6  10
ATOM     10  C   UNL     1       1.789   7.551  20.172  0.00  0.00    +0.000 A 
ATOM     11  C   UNL     1       1.188   8.171  21.239  0.00  0.00    +0.000 A 
ATOM     12  C   UNL     1       0.831   9.450  20.764  0.00  0.00    +0.000 A 
ATOM     13  C   UNL     1       0.096  10.515  21.479  0.00  0.00    +0.000 C 
ATOM     14  N   UNL     1       1.227   9.624  19.497  0.00  0.00    +0.000 NA
ATOM     15  O   UNL     1       1.831   8.433  19.130  0.00  0.00    +0.000 OA
ENDBRANCH   6  10
BRANCH   9  16
ATOM     16  O   UNL     1       3.767   2.300  19.592  0.00  0.00    +0.000 OA
ATOM     17  C   UNL     1       3.602   1.458  18.477  0.00  0.00    +0.000 C 
ENDBRANCH   9  16
ENDBRANCH   1   4
BRANCH   1  18
ATOM     18  N   UNL     1       5.904   5.929  17.313  0.00  0.00    +0.000 N 
ATOM     19  C   UNL     1       6.040   7.378  17.453  0.00  0.00    +0.000 C 
BRANCH  18  23
ATOM     20  C   UNL     1       6.347   4.067  13.549  0.00  0.00    +0.000 A 
ATOM     21  C   UNL     1       5.194   3.879  14.312  0.00  0.00    +0.000 A 
ATOM     22  C   UNL     1       5.050   4.515  15.544  0.00  0.00    +0.000 A 
ATOM     23  C   UNL     1       6.068   5.336  16.027  0.00  0.00    +0.000 A 
ATOM     24  C   UNL     1       7.216   5.546  15.263  0.00  0.00    +0.000 A 
ATOM     25  C   UNL     1       7.364   4.895  14.030  0.00  0.00    +0.000 A 
BRANCH  20  26
ATOM     26  O   UNL     1       6.366   3.375  12.371  0.00  0.00    +0.000 OA
BRANCH  26  28
ATOM     27  C   UNL     1       4.322   3.454  11.165  0.00  0.00    +0.000 C 
ATOM     28  C   UNL     1       5.210   2.601  12.055  0.00  0.00    +0.000 C 
ENDBRANCH  26  28
ENDBRANCH  20  26
ENDBRANCH  18  23
ENDBRANCH   1  18
TORSDOF 7
ENDMDL
MODEL 7
REMARK VINA RESULT:      -7.1      2.491      8.022
REMARK  Name = 
REMARK  11 active torsions:
REMARK  status: ('A' for Active; 'I' for Inactive)
REMARK    1  A    between atoms: C_1  and  C_2
REMARK    2  A    between atoms: C_2  and  O_3
REMARK    3  A    between atoms: O_3  and  C_4
REMARK    4  A    between atoms: C_7  and  N_8
REMARK    5  A    between atoms: N_8  and  C_9
REMARK    6  A    between atoms: N_8  and  S_10
REMARK    7  A    between atoms: S_10  and  C_13
REMARK    8  A    between atoms: C_15  and  C_16
REMARK    9  A    between atoms: C_18  and  C_19
REMARK   10  A    between atoms: C_24  and  O_25
REMARK   11  A    between atoms: O_25  and  C_26
REMARK                            x       y       z     vdW  Elec       q    Type
REMARK                         _______ _______ _______ _____ _____    ______ ____
ROOT
ATOM      1  S   UNL     1       1.895   4.392  19.523  0.00  0.00    +0.000 S 
ATOM      2  O   UNL     1       1.352   3.814  18.315  0.00  0.00    +0.000 OA
ATOM      3  O   UNL     1       1.141   4.244  20.756  0.00  0.00    +0.000 OA
ENDROOT
BRANCH   1   4
ATOM      4  C   UNL     1       2.154   6.160  19.299  0.00  0.00    +0.000 A 
ATOM      5  C   UNL     1       1.549   6.928  20.335  0.00  0.00    +0.000 A 
ATOM      6  C   UNL     1       1.458   8.328  20.310  0.00  0.00    +0.000 A 
ATOM      7  C   UNL     1       2.035   8.988  19.236  0.00  0.00    +0.000 A 
ATOM      8  C   UNL     1       2.652   8.253  18.221  0.00  0.00    +0.000 A 
ATOM      9  C   UNL     1       2.717   6.837  18.212  0.00  0.00    +0.000 A 
BRANCH   6  10
ATOM     10  C   UNL     1       0.710   9.030  21.345  0.00  0.00    +0.000 A 
ATOM     11  C   UNL     1      -0.424   9.804  21.358  0.00  0.00    +0.000 A 
ATOM     12  C   UNL     1      -0.538  10.263  22.686  0.00  0.00    +0.000 A 
ATOM     13  C   UNL     1      -1.546  11.187  23.248  0.00  0.00    +0.000 C 
ATOM     14  N   UNL     1       0.440   9.767  23.456  0.00  0.00    +0.000 NA
ATOM     15  O   UNL     1       1.218   8.990  22.613  0.00  0.00    +0.000 OA
ENDBRANCH   6  10
BRANCH   9  16
ATOM     16  O   UNL     1       3.385   6.475  17.086  0.00  0.00    +0.000 OA
ATOM     17  C   UNL     1       4.453   7.185  16.510  0.00  0.00    +0.000 C 
ENDBRANCH   9  16
ENDBRANCH   1   4
BRANCH   1  18
ATOM     18  N   UNL     1       3.436   3.734  19.775  0.00  0.00    +0.000 N 
ATOM     19  C   UNL     1       3.627   2.681  20.771  0.00  0.00    +0.000 C 
BRANCH  18  23
ATOM     20  C   UNL     1       6.456   4.321  16.882  0.00  0.00    +0.000 A 
ATOM     21  C   UNL     1       5.287   3.626  16.569  0.00  0.00    +0.000 A 
ATOM     22  C   UNL     1       4.288   3.455  17.527  0.00  0.00    +0.000 A 
ATOM     23  C   UNL     1       4.459   3.972  18.811  0.00  0.00    +0.000 A 
ATOM     24  C   UNL     1       5.615   4.685  19.127  0.00  0.00    +0.000 A 
ATOM     25  C   UNL     1       6.624   4.842  18.166  0.00  0.00    +0.000 A 
BRANCH  20  26
ATOM     26  O   UNL     1       7.358   4.401  15.859  0.00  0.00    +0.000 OA
BRANCH  26  28
ATOM     27  C   UNL     1       6.494   3.973  13.689  0.00  0.00    +0.000 C 
ATOM     28  C   UNL     1       6.928   5.053  14.665  0.00  0.00    +0.000 C 
ENDBRANCH  26  28
ENDBRANCH  20  26
ENDBRANCH  18  23
ENDBRANCH   1  18
TORSDOF 7
ENDMDL
MODEL 8
REMARK VINA RESULT:      -7.0      2.295      7.467
REMARK  Name = 
REMARK  11 active torsions:
REMARK  status: ('A' for Active; 'I' for Inactive)
REMARK    1  A    between atoms: C_1  and  C_2
REMARK    2  A    between atoms: C_2  and  O_3
REMARK    3  A    between atoms: O_3  and  C_4
REMARK    4  A    between atoms: C_7  and  N_8
REMARK    5  A    between atoms: N_8  and  C_9
REMARK    6  A    between atoms: N_8  and  S_10
REMARK    7  A    between atoms: S_10  and  C_13
REMARK    8  A    between atoms: C_15  and  C_16
REMARK    9  A    between atoms: C_18  and  C_19
REMARK   10  A    between atoms: C_24  and  O_25
REMARK   11  A    between atoms: O_25  and  C_26
REMARK                            x       y       z     vdW  Elec       q    Type
REMARK                         _______ _______ _______ _____ _____    ______ ____
ROOT
ATOM      1  S   UNL     1       6.463   5.098  18.476  0.00  0.00    +0.000 S 
ATOM      2  O   UNL     1       6.987   3.772  18.237  0.00  0.00    +0.000 OA
ATOM      3  O   UNL     1       6.937   5.826  19.640  0.00  0.00    +0.000 OA
ENDROOT
BRANCH   1   4
ATOM      4  C   UNL     1       4.669   5.035  18.617  0.00  0.00    +0.000 A 
ATOM      5  C   UNL     1       4.070   6.317  18.451  0.00  0.00    +0.000 A 
ATOM      6  C   UNL     1       2.709   6.573  18.680  0.00  0.00    +0.000 A 
ATOM      7  C   UNL     1       1.907   5.500  19.038  0.00  0.00    +0.000 A 
ATOM      8  C   UNL     1       2.472   4.231  19.185  0.00  0.00    +0.000 A 
ATOM      9  C   UNL     1       3.852   3.964  18.997  0.00  0.00    +0.000 A 
BRANCH   6  10
ATOM     10  C   UNL     1       2.202   7.937  18.613  0.00  0.00    +0.000 A 
ATOM     11  C   UNL     1       1.434   8.721  19.438  0.00  0.00    +0.000 A 
ATOM     12  C   UNL     1       1.223   9.914  18.716  0.00  0.00    +0.000 A 
ATOM     13  C   UNL     1       0.408  11.084  19.107  0.00  0.00    +0.000 C 
ATOM     14  N   UNL     1       1.859   9.886  17.538  0.00  0.00    +0.000 NA
ATOM     15  O   UNL     1       2.475   8.646  17.478  0.00  0.00    +0.000 OA
ENDBRANCH   6  10
BRANCH   9  16
ATOM     16  O   UNL     1       4.036   2.637  19.218  0.00  0.00    +0.000 OA
ATOM     17  C   UNL     1       4.405   2.061  20.447  0.00  0.00    +0.000 C 
ENDBRANCH   9  16
ENDBRANCH   1   4
BRANCH   1  18
ATOM     18  N   UNL     1       6.780   6.044  17.106  0.00  0.00    +0.000 N 
ATOM     19  C   UNL     1       7.485   7.317  17.246  0.00  0.00    +0.000 C 
BRANCH  18  23
ATOM     20  C   UNL     1       6.347   4.210  13.327  0.00  0.00    +0.000 A 
ATOM     21  C   UNL     1       5.305   4.195  14.256  0.00  0.00    +0.000 A 
ATOM     22  C   UNL     1       5.453   4.821  15.493  0.00  0.00    +0.000 A 
ATOM     23  C   UNL     1       6.651   5.458  15.813  0.00  0.00    +0.000 A 
ATOM     24  C   UNL     1       7.690   5.496  14.884  0.00  0.00    +0.000 A 
ATOM     25  C   UNL     1       7.545   4.853  13.646  0.00  0.00    +0.000 A 
BRANCH  20  26
ATOM     26  O   UNL     1       6.077   3.547  12.164  0.00  0.00    +0.000 OA
BRANCH  26  28
ATOM     27  C   UNL     1       4.085   3.511  10.871  0.00  0.00    +0.000 C 
ATOM     28  C   UNL     1       4.807   2.905  12.063  0.00  0.00    +0.000 C 
ENDBRANCH  26  28
ENDBRANCH  20  26
ENDBRANCH  18  23
ENDBRANCH   1  18
TORSDOF 7
ENDMDL
MODEL 9
REMARK VINA RESULT:      -6.9      0.979      1.070
REMARK  Name = 
REMARK  11 active torsions:
REMARK  status: ('A' for Active; 'I' for Inactive)
REMARK    1  A    between atoms: C_1  and  C_2
REMARK    2  A    between atoms: C_2  and  O_3
REMARK    3  A    between atoms: O_3  and  C_4
REMARK    4  A    between atoms: C_7  and  N_8
REMARK    5  A    between atoms: N_8  and  C_9
REMARK    6  A    between atoms: N_8  and  S_10
REMARK    7  A    between atoms: S_10  and  C_13
REMARK    8  A    between atoms: C_15  and  C_16
REMARK    9  A    between atoms: C_18  and  C_19
REMARK   10  A    between atoms: C_24  and  O_25
REMARK   11  A    between atoms: O_25  and  C_26
REMARK                            x       y       z     vdW  Elec       q    Type
REMARK                         _______ _______ _______ _____ _____    ______ ____
ROOT
ATOM      1  S   UNL     1       4.338   3.538  18.354  0.00  0.00    +0.000 S 
ATOM      2  O   UNL     1       4.784   3.902  19.680  0.00  0.00    +0.000 OA
ATOM      3  O   UNL     1       4.195   2.127  18.040  0.00  0.00    +0.000 OA
ENDROOT
BRANCH   1   4
ATOM      4  C   UNL     1       5.457   4.218  17.119  0.00  0.00    +0.000 A 
ATOM      5  C   UNL     1       5.030   3.935  15.789  0.00  0.00    +0.000 A 
ATOM      6  C   UNL     1       5.805   4.204  14.652  0.00  0.00    +0.000 A 
ATOM      7  C   UNL     1       7.030   4.825  14.843  0.00  0.00    +0.000 A 
ATOM      8  C   UNL     1       7.457   5.130  16.137  0.00  0.00    +0.000 A 
ATOM      9  C   UNL     1       6.704   4.828  17.299  0.00  0.00    +0.000 A 
BRANCH   6  10
ATOM     10  C   UNL     1       5.350   3.766  13.338  0.00  0.00    +0.000 A 
ATOM     11  C   UNL     1       4.270   4.062  12.544  0.00  0.00    +0.000 A 
ATOM     12  C   UNL     1       4.384   3.197  11.436  0.00  0.00    +0.000 A 
ATOM     13  C   UNL     1       3.452   3.046  10.299  0.00  0.00    +0.000 C 
ATOM     14  N   UNL     1       5.489   2.445  11.519  0.00  0.00    +0.000 NA
ATOM     15  O   UNL     1       6.095   2.807  12.712  0.00  0.00    +0.000 OA
ENDBRANCH   6  10
BRANCH   9  16
ATOM     16  O   UNL     1       7.420   5.268  18.366  0.00  0.00    +0.000 OA
ATOM     17  C   UNL     1       7.881   6.584  18.549  0.00  0.00    +0.000 C 
ENDBRANCH   9  16
ENDBRANCH   1   4
BRANCH   1  18
ATOM     18  N   UNL     1       2.843   4.286  18.077  0.00  0.00    +0.000 N 
ATOM     19  C   UNL     1       1.772   3.551  17.407  0.00  0.00    +0.000 C 
BRANCH  18  23
ATOM     20  C   UNL     1       1.813   7.803  20.174  0.00  0.00    +0.000 A 
ATOM     21  C   UNL     1       1.660   6.546  20.761  0.00  0.00    +0.000 A 
ATOM     22  C   UNL     1       2.022   5.393  20.066  0.00  0.00    +0.000 A 
ATOM     23  C   UNL     1       2.531   5.491  18.772  0.00  0.00    +0.000 A 
ATOM     24  C   UNL     1       2.706   6.744  18.184  0.00  0.00    +0.000 A 
ATOM     25  C   UNL     1       2.327   7.901  18.880  0.00  0.00    +0.000 A 
BRANCH  20  26
ATOM     26  O   UNL     1       1.405   8.846  20.956  0.00  0.00    +0.000 OA
BRANCH  26  28
ATOM     27  C   UNL     1      -0.418  10.365  21.062  0.00  0.00    +0.000 C 
ATOM     28  C   UNL     1       0.013   8.922  21.263  0.00  0.00    +0.000 C 
ENDBRANCH  26  28
ENDBRANCH  20  26
ENDBRANCH  18  23
ENDBRANCH   1  18
TORSDOF 7
ENDMDL
