MODEL 1
REMARK VINA RESULT:      -7.4      0.000      0.000
REMARK  Name = 
REMARK  5 active torsions:
REMARK  status: ('A' for Active; 'I' for Inactive)
REMARK    1  A    between atoms: C_1  and  O_2
REMARK    2  A    between atoms: O_2  and  C_3
REMARK    3  A    between atoms: C_3  and  C_4
REMARK    4  A    between atoms: C_4  and  N_5
REMARK    5  A    between atoms: C_13  and  C_15
REMARK                            x       y       z     vdW  Elec       q    Type
REMARK                         _______ _______ _______ _____ _____    ______ ____
ROOT
ATOM      1  N   UNL     1       6.895   5.638  18.037  0.00  0.00    +0.000 NA
ATOM      2  C   UNL     1       7.118   4.568  17.061  0.00  0.00    +0.000 C 
ATOM      3  C   UNL     1       5.914   4.279  16.162  0.00  0.00    +0.000 C 
ATOM      4  C   UNL     1       4.631   4.065  16.959  0.00  0.00    +0.000 C 
ATOM      5  C   UNL     1       4.377   5.152  18.016  0.00  0.00    +0.000 C 
ATOM      6  C   UNL     1       3.282   4.661  18.980  0.00  0.00    +0.000 C 
ATOM      7  C   UNL     1       2.634   5.924  19.506  0.00  0.00    +0.000 C 
ATOM      8  N   UNL     1       2.731   6.875  18.417  0.00  0.00    +0.000 N 
ATOM      9  C   UNL     1       2.205   8.167  18.348  0.00  0.00    +0.000 C 
ATOM     10  O   UNL     1       2.454   8.915  17.399  0.00  0.00    +0.000 OA
ATOM     11  C   UNL     1       3.729   6.437  17.439  0.00  0.00    +0.000 C 
ATOM     12  C   UNL     1       5.678   5.395  18.817  0.00  0.00    +0.000 C 
ENDROOT
BRANCH   9  13
ATOM     13  C   UNL     1       1.405   8.722  19.478  0.00  0.00    +0.000 A 
ATOM     14  C   UNL     1       0.479   9.742  19.206  0.00  0.00    +0.000 A 
ATOM     15  C   UNL     1      -0.234  10.354  20.244  0.00  0.00    +0.000 A 
ATOM     16  C   UNL     1      -0.028   9.965  21.564  0.00  0.00    +0.000 A 
ATOM     17  C   UNL     1       0.841   8.914  21.844  0.00  0.00    +0.000 A 
ATOM     18  C   UNL     1       1.513   8.272  20.801  0.00  0.00    +0.000 A 
ENDBRANCH   9  13
BRANCH   1  19
ATOM     19  C   UNL     1       7.058   6.990  17.468  0.00  0.00    +0.000 C 
BRANCH  19  20
ATOM     20  C   UNL     1       8.146   7.810  18.187  0.00  0.00    +0.000 C 
BRANCH  20  22
ATOM     21  C   UNL     1       8.904   9.966  18.676  0.00  0.00    +0.000 C 
ATOM     22  O   UNL     1       8.141   9.175  17.766  0.00  0.00    +0.000 OA
ENDBRANCH  20  22
ENDBRANCH  19  20
ENDBRANCH   1  19
TORSDOF 4
ENDMDL
MODEL 2
REMARK VINA RESULT:      -7.3      0.147      1.035
REMARK  Name = 
REMARK  5 active torsions:
REMARK  status: ('A' for Active; 'I' for Inactive)
REMARK    1  A    between atoms: C_1  and  O_2
REMARK    2  A    between atoms: O_2  and  C_3
REMARK    3  A    between atoms: C_3  and  C_4
REMARK    4  A    between atoms: C_4  and  N_5
REMARK    5  A    between atoms: C_13  and  C_15
REMARK                            x       y       z     vdW  Elec       q    Type
REMARK                         _______ _______ _______ _____ _____    ______ ____
ROOT
ATOM      1  N   UNL     1       6.957   5.634  18.012  0.00  0.00    +0.000 NA
ATOM      2  C   UNL     1       7.191   4.548  17.057  0.00  0.00    +0.000 C 
ATOM      3  C   UNL     1       5.996   4.241  16.153  0.00  0.00    +0.000 C 
ATOM      4  C   UNL     1       4.706   4.038  16.941  0.00  0.00    +0.000 C 
ATOM      5  C   UNL     1       4.440   5.143  17.977  0.00  0.00    +0.000 C 
ATOM      6  C   UNL     1       3.338   4.667  18.939  0.00  0.00    +0.000 C 
ATOM      7  C   UNL     1       2.682   5.938  19.438  0.00  0.00    +0.000 C 
ATOM      8  N   UNL     1       2.787   6.870  18.334  0.00  0.00    +0.000 N 
ATOM      9  C   UNL     1       2.261   8.160  18.238  0.00  0.00    +0.000 C 
ATOM     10  O   UNL     1       2.516   8.892  17.278  0.00  0.00    +0.000 OA
ATOM     11  C   UNL     1       3.796   6.417  17.373  0.00  0.00    +0.000 C 
ATOM     12  C   UNL     1       5.734   5.402  18.786  0.00  0.00    +0.000 C 
ENDROOT
BRANCH   9  13
ATOM     13  C   UNL     1       1.449   8.733  19.350  0.00  0.00    +0.000 A 
ATOM     14  C   UNL     1       1.620   8.213  20.642  0.00  0.00    +0.000 A 
ATOM     15  C   UNL     1       0.821   8.658  21.703  0.00  0.00    +0.000 A 
ATOM     16  C   UNL     1      -0.163   9.618  21.488  0.00  0.00    +0.000 A 
ATOM     17  C   UNL     1      -0.305  10.188  20.224  0.00  0.00    +0.000 A 
ATOM     18  C   UNL     1       0.529   9.778  19.181  0.00  0.00    +0.000 A 
ENDBRANCH   9  13
BRANCH   1  19
ATOM     19  C   UNL     1       7.123   6.976  17.422  0.00  0.00    +0.000 C 
BRANCH  19  20
ATOM     20  C   UNL     1       8.148   7.839  18.184  0.00  0.00    +0.000 C 
BRANCH  20  22
ATOM     21  C   UNL     1       8.920   9.993  18.653  0.00  0.00    +0.000 C 
ATOM     22  O   UNL     1       7.988   9.228  17.891  0.00  0.00    +0.000 OA
ENDBRANCH  20  22
ENDBRANCH  19  20
ENDBRANCH   1  19
TORSDOF 4
ENDMDL
MODEL 3
REMARK VINA RESULT:      -7.2      3.140      4.880
REMARK  Name = 
REMARK  5 active torsions:
REMARK  status: ('A' for Active; 'I' for Inactive)
REMARK    1  A    between atoms: C_1  and  O_2
REMARK    2  A    between atoms: O_2  and  C_3
REMARK    3  A    between atoms: C_3  and  C_4
REMARK    4  A    between atoms: C_4  and  N_5
REMARK    5  A    between atoms: C_13  and  C_15
REMARK                            x       y       z     vdW  Elec       q    Type
REMARK                         _______ _______ _______ _____ _____    ______ ____
ROOT
ATOM      1  N   UNL     1       2.100   4.064  18.261  0.00  0.00    +0.000 NA
ATOM      2  C   UNL     1       3.401   3.427  18.483  0.00  0.00    +0.000 C 
ATOM      3  C   UNL     1       4.396   4.288  19.263  0.00  0.00    +0.000 C 
ATOM      4  C   UNL     1       4.541   5.688  18.674  0.00  0.00    +0.000 C 
ATOM      5  C   UNL     1       3.195   6.379  18.397  0.00  0.00    +0.000 C 
ATOM      6  C   UNL     1       3.441   7.601  17.495  0.00  0.00    +0.000 C 
ATOM      7  C   UNL     1       2.308   8.554  17.815  0.00  0.00    +0.000 C 
ATOM      8  N   UNL     1       2.007   8.319  19.212  0.00  0.00    +0.000 N 
ATOM      9  C   UNL     1       1.100   9.000  20.028  0.00  0.00    +0.000 C 
ATOM     10  O   UNL     1       0.860   8.627  21.179  0.00  0.00    +0.000 OA
ATOM     11  C   UNL     1       2.570   7.040  19.652  0.00  0.00    +0.000 C 
ATOM     12  C   UNL     1       2.259   5.392  17.661  0.00  0.00    +0.000 C 
ENDROOT
BRANCH   9  13
ATOM     13  C   UNL     1       0.313  10.149  19.493  0.00  0.00    +0.000 A 
ATOM     14  C   UNL     1      -0.974   9.902  18.989  0.00  0.00    +0.000 A 
ATOM     15  C   UNL     1      -1.718  10.931  18.398  0.00  0.00    +0.000 A 
ATOM     16  C   UNL     1      -1.188  12.213  18.295  0.00  0.00    +0.000 A 
ATOM     17  C   UNL     1       0.062  12.488  18.845  0.00  0.00    +0.000 A 
ATOM     18  C   UNL     1       0.780  11.471  19.479  0.00  0.00    +0.000 A 
ENDBRANCH   9  13
BRANCH   1  19
ATOM     19  C   UNL     1       1.197   3.966  19.424  0.00  0.00    +0.000 C 
BRANCH  19  20
ATOM     20  C   UNL     1       1.115   2.538  19.996  0.00  0.00    +0.000 C 
BRANCH  20  22
ATOM     21  C   UNL     1       2.186   3.423  21.875  0.00  0.00    +0.000 C 
ATOM     22  O   UNL     1       1.161   2.540  21.424  0.00  0.00    +0.000 OA
ENDBRANCH  20  22
ENDBRANCH  19  20
ENDBRANCH   1  19
TORSDOF 4
ENDMDL
MODEL 4
REMARK VINA RESULT:      -7.2      3.142      4.816
REMARK  Name = 
REMARK  5 active torsions:
REMARK  status: ('A' for Active; 'I' for Inactive)
REMARK    1  A    between atoms: C_1  and  O_2
REMARK    2  A    between atoms: O_2  and  C_3
REMARK    3  A    between atoms: C_3  and  C_4
REMARK    4  A    between atoms: C_4  and  N_5
REMARK    5  A    between atoms: C_13  and  C_15
REMARK                            x       y       z     vdW  Elec       q    Type
REMARK                         _______ _______ _______ _____ _____    ______ ____
ROOT
ATOM      1  N   UNL     1       2.056   3.983  18.177  0.00  0.00    +0.000 NA
ATOM      2  C   UNL     1       3.363   3.331  18.293  0.00  0.00    +0.000 C 
ATOM      3  C   UNL     1       4.396   4.134  19.085  0.00  0.00    +0.000 C 
ATOM      4  C   UNL     1       4.519   5.572  18.592  0.00  0.00    +0.000 C 
ATOM      5  C   UNL     1       3.165   6.282  18.428  0.00  0.00    +0.000 C 
ATOM      6  C   UNL     1       3.374   7.565  17.605  0.00  0.00    +0.000 C 
ATOM      7  C   UNL     1       2.260   8.493  18.043  0.00  0.00    +0.000 C 
ATOM      8  N   UNL     1       2.022   8.159  19.432  0.00  0.00    +0.000 N 
ATOM      9  C   UNL     1       1.156   8.781  20.335  0.00  0.00    +0.000 C 
ATOM     10  O   UNL     1       0.968   8.327  21.466  0.00  0.00    +0.000 OA
ATOM     11  C   UNL     1       2.601   6.852  19.754  0.00  0.00    +0.000 C 
ATOM     12  C   UNL     1       2.192   5.350  17.666  0.00  0.00    +0.000 C 
ENDROOT
BRANCH   9  13
ATOM     13  C   UNL     1       0.349   9.965  19.920  0.00  0.00    +0.000 A 
ATOM     14  C   UNL     1       0.801  11.244  20.281  0.00  0.00    +0.000 A 
ATOM     15  C   UNL     1       0.035  12.380  19.990  0.00  0.00    +0.000 A 
ATOM     16  C   UNL     1      -1.191  12.255  19.344  0.00  0.00    +0.000 A 
ATOM     17  C   UNL     1      -1.624  10.999  18.925  0.00  0.00    +0.000 A 
ATOM     18  C   UNL     1      -0.834   9.875  19.173  0.00  0.00    +0.000 A 
ENDBRANCH   9  13
BRANCH   1  19
ATOM     19  C   UNL     1       1.207   3.803  19.369  0.00  0.00    +0.000 C 
BRANCH  19  20
ATOM     20  C   UNL     1       1.303   2.384  19.960  0.00  0.00    +0.000 C 
BRANCH  20  22
ATOM     21  C   UNL     1       2.173   3.504  21.817  0.00  0.00    +0.000 C 
ATOM     22  O   UNL     1       1.365   2.410  21.387  0.00  0.00    +0.000 OA
ENDBRANCH  20  22
ENDBRANCH  19  20
ENDBRANCH   1  19
TORSDOF 4
ENDMDL
MODEL 5
REMARK VINA RESULT:      -6.9      3.419      7.643
REMARK  Name = 
REMARK  5 active torsions:
REMARK  status: ('A' for Active; 'I' for Inactive)
REMARK    1  A    between atoms: C_1  and  O_2
REMARK    2  A    between atoms: O_2  and  C_3
REMARK    3  A    between atoms: C_3  and  C_4
REMARK    4  A    between atoms: C_4  and  N_5
REMARK    5  A    between atoms: C_13  and  C_15
REMARK                            x       y       z     vdW  Elec       q    Type
REMARK                         _______ _______ _______ _____ _____    ______ ____
ROOT
ATOM      1  N   UNL     1      -1.460  10.764  18.961  0.00  0.00    +0.000 NA
ATOM      2  C   UNL     1      -1.088  12.180  18.997  0.00  0.00    +0.000 C 
ATOM      3  C   UNL     1       0.419  12.431  19.063  0.00  0.00    +0.000 C 
ATOM      4  C   UNL     1       1.094  11.637  20.176  0.00  0.00    +0.000 C 
ATOM      5  C   UNL     1       0.705  10.149  20.191  0.00  0.00    +0.000 C 
ATOM      6  C   UNL     1       1.143   9.535  21.532  0.00  0.00    +0.000 C 
ATOM      7  C   UNL     1       1.362   8.066  21.233  0.00  0.00    +0.000 C 
ATOM      8  N   UNL     1       1.817   8.030  19.858  0.00  0.00    +0.000 N 
ATOM      9  C   UNL     1       2.246   6.926  19.118  0.00  0.00    +0.000 C 
ATOM     10  O   UNL     1       2.507   7.016  17.915  0.00  0.00    +0.000 OA
ATOM     11  C   UNL     1       1.506   9.290  19.179  0.00  0.00    +0.000 C 
ATOM     12  C   UNL     1      -0.832  10.025  20.061  0.00  0.00    +0.000 C 
ENDROOT
BRANCH   9  13
ATOM     13  C   UNL     1       2.304   5.571  19.740  0.00  0.00    +0.000 A 
ATOM     14  C   UNL     1       3.505   4.849  19.663  0.00  0.00    +0.000 A 
ATOM     15  C   UNL     1       3.584   3.540  20.155  0.00  0.00    +0.000 A 
ATOM     16  C   UNL     1       2.468   2.933  20.723  0.00  0.00    +0.000 A 
ATOM     17  C   UNL     1       1.286   3.658  20.862  0.00  0.00    +0.000 A 
ATOM     18  C   UNL     1       1.227   4.980  20.416  0.00  0.00    +0.000 A 
ENDBRANCH   9  13
BRANCH   1  19
ATOM     19  C   UNL     1      -1.353  10.167  17.616  0.00  0.00    +0.000 C 
BRANCH  19  20
ATOM     20  C   UNL     1      -2.404  10.719  16.634  0.00  0.00    +0.000 C 
BRANCH  20  22
ATOM     21  C   UNL     1      -3.175  10.170  14.498  0.00  0.00    +0.000 C 
ATOM     22  O   UNL     1      -2.962   9.684  15.822  0.00  0.00    +0.000 OA
ENDBRANCH  20  22
ENDBRANCH  19  20
ENDBRANCH   1  19
TORSDOF 4
ENDMDL
MODEL 6
REMARK VINA RESULT:      -6.9      1.144      1.347
REMARK  Name = 
REMARK  5 active torsions:
REMARK  status: ('A' for Active; 'I' for Inactive)
REMARK    1  A    between atoms: C_1  and  O_2
REMARK    2  A    between atoms: O_2  and  C_3
REMARK    3  A    between atoms: C_3  and  C_4
REMARK    4  A    between atoms: C_4  and  N_5
REMARK    5  A    between atoms: C_13  and  C_15
REMARK                            x       y       z     vdW  Elec       q    Type
REMARK                         _______ _______ _______ _____ _____    ______ ____
ROOT
ATOM      1  N   UNL     1       5.806   5.000  18.725  0.00  0.00    +0.000 NA
ATOM      2  C   UNL     1       5.835   4.013  17.643  0.00  0.00    +0.000 C 
ATOM      3  C   UNL     1       4.632   4.081  16.701  0.00  0.00    +0.000 C 
ATOM      4  C   UNL     1       3.303   4.065  17.450  0.00  0.00    +0.000 C 
ATOM      5  C   UNL     1       3.244   5.067  18.616  0.00  0.00    +0.000 C 
ATOM      6  C   UNL     1       2.036   4.725  19.504  0.00  0.00    +0.000 C 
ATOM      7  C   UNL     1       1.648   6.037  20.154  0.00  0.00    +0.000 C 
ATOM      8  N   UNL     1       1.984   7.051  19.176  0.00  0.00    +0.000 N 
ATOM      9  C   UNL     1       1.745   8.426  19.239  0.00  0.00    +0.000 C 
ATOM     10  O   UNL     1       2.181   9.197  18.380  0.00  0.00    +0.000 OA
ATOM     11  C   UNL     1       2.904   6.513  18.171  0.00  0.00    +0.000 C 
ATOM     12  C   UNL     1       4.537   4.944  19.457  0.00  0.00    +0.000 C 
ENDROOT
BRANCH   9  13
ATOM     13  C   UNL     1       1.038   9.020  20.410  0.00  0.00    +0.000 A 
ATOM     14  C   UNL     1       0.026   9.964  20.174  0.00  0.00    +0.000 A 
ATOM     15  C   UNL     1      -0.608  10.614  21.240  0.00  0.00    +0.000 A 
ATOM     16  C   UNL     1      -0.237  10.338  22.552  0.00  0.00    +0.000 A 
ATOM     17  C   UNL     1       0.722   9.360  22.806  0.00  0.00    +0.000 A 
ATOM     18  C   UNL     1       1.316   8.678  21.741  0.00  0.00    +0.000 A 
ENDBRANCH   9  13
BRANCH   1  19
ATOM     19  C   UNL     1       6.271   6.337  18.309  0.00  0.00    +0.000 C 
BRANCH  19  20
ATOM     20  C   UNL     1       7.400   6.275  17.263  0.00  0.00    +0.000 C 
BRANCH  20  22
ATOM     21  C   UNL     1       7.867   8.500  17.800  0.00  0.00    +0.000 C 
ATOM     22  O   UNL     1       7.701   7.568  16.734  0.00  0.00    +0.000 OA
ENDBRANCH  20  22
ENDBRANCH  19  20
ENDBRANCH   1  19
TORSDOF 4
ENDMDL
MODEL 7
REMARK VINA RESULT:      -6.9      3.112      7.633
REMARK  Name = 
REMARK  5 active torsions:
REMARK  status: ('A' for Active; 'I' for Inactive)
REMARK    1  A    between atoms: C_1  and  O_2
REMARK    2  A    between atoms: O_2  and  C_3
REMARK    3  A    between atoms: C_3  and  C_4
REMARK    4  A    between atoms: C_4  and  N_5
REMARK    5  A    between atoms: C_13  and  C_15
REMARK                            x       y       z     vdW  Elec       q    Type
REMARK                         _______ _______ _______ _____ _____    ______ ____
ROOT
ATOM      1  N   UNL     1      -1.465  10.716  19.195  0.00  0.00    +0.000 NA
ATOM      2  C   UNL     1      -1.242  12.066  19.719  0.00  0.00    +0.000 C 
ATOM      3  C   UNL     1       0.226  12.397  19.995  0.00  0.00    +0.000 C 
ATOM      4  C   UNL     1       0.912  11.335  20.848  0.00  0.00    +0.000 C 
ATOM      5  C   UNL     1       0.676   9.900  20.348  0.00  0.00    +0.000 C 
ATOM      6  C   UNL     1       1.096   8.914  21.453  0.00  0.00    +0.000 C 
ATOM      7  C   UNL     1       1.480   7.647  20.717  0.00  0.00    +0.000 C 
ATOM      8  N   UNL     1       2.015   8.100  19.450  0.00  0.00    +0.000 N 
ATOM      9  C   UNL     1       2.597   7.337  18.435  0.00  0.00    +0.000 C 
ATOM     10  O   UNL     1       2.917   7.838  17.353  0.00  0.00    +0.000 OA
ATOM     11  C   UNL     1       1.618   9.486  19.189  0.00  0.00    +0.000 C 
ATOM     12  C   UNL     1      -0.830   9.707  20.050  0.00  0.00    +0.000 C 
ENDROOT
BRANCH   9  13
ATOM     13  C   UNL     1       2.756   5.862  18.590  0.00  0.00    +0.000 A 
ATOM     14  C   UNL     1       1.846   5.017  17.937  0.00  0.00    +0.000 A 
ATOM     15  C   UNL     1       1.901   3.630  18.120  0.00  0.00    +0.000 A 
ATOM     16  C   UNL     1       2.857   3.069  18.962  0.00  0.00    +0.000 A 
ATOM     17  C   UNL     1       3.805   3.889  19.570  0.00  0.00    +0.000 A 
ATOM     18  C   UNL     1       3.778   5.267  19.344  0.00  0.00    +0.000 A 
ENDBRANCH   9  13
BRANCH   1  19
ATOM     19  C   UNL     1      -1.219  10.604  17.745  0.00  0.00    +0.000 C 
BRANCH  19  20
ATOM     20  C   UNL     1      -2.500  10.790  16.909  0.00  0.00    +0.000 C 
BRANCH  20  22
ATOM     21  C   UNL     1      -3.140  10.240  14.730  0.00  0.00    +0.000 C 
ATOM     22  O   UNL     1      -2.680   9.722  15.977  0.00  0.00    +0.000 OA
ENDBRANCH  20  22
ENDBRANCH  19  20
ENDBRANCH   1  19
TORSDOF 4
ENDMDL
MODEL 8
REMARK VINA RESULT:      -6.8      2.871      7.772
REMARK  Name = 
REMARK  5 active torsions:
REMARK  status: ('A' for Active; 'I' for Inactive)
REMARK    1  A    between atoms: C_1  and  O_2
REMARK    2  A    between atoms: O_2  and  C_3
REMARK    3  A    between atoms: C_3  and  C_4
REMARK    4  A    between atoms: C_4  and  N_5
REMARK    5  A    between atoms: C_13  and  C_15
REMARK                            x       y       z     vdW  Elec       q    Type
REMARK                         _______ _______ _______ _____ _____    ______ ____
ROOT
ATOM      1  N   UNL     1      -1.574  10.737  19.186  0.00  0.00    +0.000 NA
ATOM      2  C   UNL     1      -1.389  12.087  19.725  0.00  0.00    +0.000 C 
ATOM      3  C   UNL     1       0.073  12.482  19.938  0.00  0.00    +0.000 C 
ATOM      4  C   UNL     1       0.848  11.439  20.737  0.00  0.00    +0.000 C 
ATOM      5  C   UNL     1       0.656  10.003  20.221  0.00  0.00    +0.000 C 
ATOM      6  C   UNL     1       1.173   9.019  21.284  0.00  0.00    +0.000 C 
ATOM      7  C   UNL     1       1.579   7.785  20.506  0.00  0.00    +0.000 C 
ATOM      8  N   UNL     1       2.032   8.285  19.225  0.00  0.00    +0.000 N 
ATOM      9  C   UNL     1       2.598   7.568  18.168  0.00  0.00    +0.000 C 
ATOM     10  O   UNL     1       2.843   8.103  17.083  0.00  0.00    +0.000 OA
ATOM     11  C   UNL     1       1.559   9.654  19.010  0.00  0.00    +0.000 C 
ATOM     12  C   UNL     1      -0.853   9.745  19.990  0.00  0.00    +0.000 C 
ENDROOT
BRANCH   9  13
ATOM     13  C   UNL     1       2.833   6.100  18.286  0.00  0.00    +0.000 A 
ATOM     14  C   UNL     1       4.059   5.657  18.807  0.00  0.00    +0.000 A 
ATOM     15  C   UNL     1       4.361   4.290  18.859  0.00  0.00    +0.000 A 
ATOM     16  C   UNL     1       3.450   3.350  18.385  0.00  0.00    +0.000 A 
ATOM     17  C   UNL     1       2.206   3.770  17.921  0.00  0.00    +0.000 A 
ATOM     18  C   UNL     1       1.889   5.131  17.919  0.00  0.00    +0.000 A 
ENDBRANCH   9  13
BRANCH   1  19
ATOM     19  C   UNL     1      -1.394  10.663  17.724  0.00  0.00    +0.000 C 
BRANCH  19  20
ATOM     20  C   UNL     1      -2.644  11.118  16.946  0.00  0.00    +0.000 C 
BRANCH  20  22
ATOM     21  C   UNL     1      -3.101  10.209  14.843  0.00  0.00    +0.000 C 
ATOM     22  O   UNL     1      -3.255  10.031  16.250  0.00  0.00    +0.000 OA
ENDBRANCH  20  22
ENDBRANCH  19  20
ENDBRANCH   1  19
TORSDOF 4
ENDMDL
MODEL 9
REMARK VINA RESULT:      -6.8      3.837      7.589
REMARK  Name = 
REMARK  5 active torsions:
REMARK  status: ('A' for Active; 'I' for Inactive)
REMARK    1  A    between atoms: C_1  and  O_2
REMARK    2  A    between atoms: O_2  and  C_3
REMARK    3  A    between atoms: C_3  and  C_4
REMARK    4  A    between atoms: C_4  and  N_5
REMARK    5  A    between atoms: C_13  and  C_15
REMARK                            x       y       z     vdW  Elec       q    Type
REMARK                         _______ _______ _______ _____ _____    ______ ____
ROOT
ATOM      1  N   UNL     1      -1.205  10.720  18.936  0.00  0.00    +0.000 NA
ATOM      2  C   UNL     1      -0.703  12.092  19.043  0.00  0.00    +0.000 C 
ATOM      3  C   UNL     1       0.812  12.193  19.230  0.00  0.00    +0.000 C 
ATOM      4  C   UNL     1       1.318  11.312  20.367  0.00  0.00    +0.000 C 
ATOM      5  C   UNL     1       0.789   9.870  20.308  0.00  0.00    +0.000 C 
ATOM      6  C   UNL     1       1.059   9.186  21.660  0.00  0.00    +0.000 C 
ATOM      7  C   UNL     1       1.159   7.710  21.335  0.00  0.00    +0.000 C 
ATOM      8  N   UNL     1       1.715   7.660  19.998  0.00  0.00    +0.000 N 
ATOM      9  C   UNL     1       2.092   6.535  19.260  0.00  0.00    +0.000 C 
ATOM     10  O   UNL     1       2.454   6.627  18.084  0.00  0.00    +0.000 OA
ATOM     11  C   UNL     1       1.580   8.959  19.335  0.00  0.00    +0.000 C 
ATOM     12  C   UNL     1      -0.738   9.899  20.058  0.00  0.00    +0.000 C 
ENDROOT
BRANCH   9  13
ATOM     13  C   UNL     1       1.972   5.168  19.844  0.00  0.00    +0.000 A 
ATOM     14  C   UNL     1       1.343   4.168  19.087  0.00  0.00    +0.000 A 
ATOM     15  C   UNL     1       1.129   2.893  19.624  0.00  0.00    +0.000 A 
ATOM     16  C   UNL     1       1.530   2.601  20.924  0.00  0.00    +0.000 A 
ATOM     17  C   UNL     1       2.210   3.564  21.668  0.00  0.00    +0.000 A 
ATOM     18  C   UNL     1       2.466   4.818  21.109  0.00  0.00    +0.000 A 
ENDBRANCH   9  13
BRANCH   1  19
ATOM     19  C   UNL     1      -1.051  10.145  17.587  0.00  0.00    +0.000 C 
BRANCH  19  20
ATOM     20  C   UNL     1      -2.396   9.979  16.853  0.00  0.00    +0.000 C 
BRANCH  20  22
ATOM     21  C   UNL     1      -4.362  11.213  16.588  0.00  0.00    +0.000 C 
ATOM     22  O   UNL     1      -2.941  11.240  16.461  0.00  0.00    +0.000 OA
ENDBRANCH  20  22
ENDBRANCH  19  20
ENDBRANCH   1  19
TORSDOF 4
ENDMDL
