MODEL 1
REMARK VINA RESULT:      -8.6      0.000      0.000
REMARK  Name = 
REMARK  11 active torsions:
REMARK  status: ('A' for Active; 'I' for Inactive)
REMARK    1  A    between atoms: C_1  and  O_2
REMARK    2  A    between atoms: O_2  and  C_3
REMARK    3  A    between atoms: C_12  and  C_13
REMARK    4  A    between atoms: C_17  and  O_18
REMARK    5  A    between atoms: O_18  and  C_19
REMARK    6  A    between atoms: C_19  and  C_20
REMARK    7  A    between atoms: C_20  and  N_21
REMARK    8  A    between atoms: C_20  and  C_22
REMARK    9  A    between atoms: C_22  and  C_23
REMARK   10  A    between atoms: C_34  and  O_35
REMARK   11  A    between atoms: O_35  and  C_36
REMARK                            x       y       z     vdW  Elec       q    Type
REMARK                         _______ _______ _______ _____ _____    ______ ____
ROOT
ATOM      1  C   UNL     1       6.646   5.153  16.537  0.00  0.00    +0.000 A 
ATOM      2  C   UNL     1       5.810   4.088  16.906  0.00  0.00    +0.000 A 
ATOM      3  C   UNL     1       4.704   4.254  17.730  0.00  0.00    +0.000 A 
ATOM      4  N   UNL     1       3.981   3.172  18.049  0.00  0.00    +0.000 NA
ATOM      5  C   UNL     1       2.908   3.334  18.858  0.00  0.00    +0.000 A 
ATOM      6  C   UNL     1       2.472   4.557  19.369  0.00  0.00    +0.000 A 
ATOM      7  C   UNL     1       1.343   4.714  20.200  0.00  0.00    +0.000 A 
ATOM      8  N   UNL     1       0.585   3.628  20.639  0.00  0.00    +0.000 N 
ATOM      9  N   UNL     1       0.931   5.905  20.670  0.00  0.00    +0.000 NA
ATOM     10  C   UNL     1       1.632   7.008  20.325  0.00  0.00    +0.000 A 
ATOM     11  C   UNL     1       2.776   6.925  19.536  0.00  0.00    +0.000 A 
ATOM     12  C   UNL     1       3.225   5.691  19.025  0.00  0.00    +0.000 A 
ATOM     13  C   UNL     1       4.387   5.544  18.194  0.00  0.00    +0.000 A 
ATOM     14  C   UNL     1       5.233   6.620  17.804  0.00  0.00    +0.000 A 
ATOM     15  C   UNL     1       6.351   6.442  16.984  0.00  0.00    +0.000 A 
ATOM     16  H   UNL     1       0.242   3.055  19.877  0.00  0.00    +0.000 HD
ATOM     17  H   UNL     1      -0.183   4.006  21.192  0.00  0.00    +0.000 HD
ENDROOT
BRANCH  10  18
ATOM     18  C   UNL     1       1.117   8.294  20.822  0.00  0.00    +0.000 A 
ATOM     19  C   UNL     1       1.394   8.738  22.115  0.00  0.00    +0.000 A 
ATOM     20  N   UNL     1       0.976   9.919  22.632  0.00  0.00    +0.000 NA
ATOM     21  C   UNL     1       0.228  10.702  21.822  0.00  0.00    +0.000 A 
ATOM     22  C   UNL     1      -0.128  10.369  20.520  0.00  0.00    +0.000 A 
ATOM     23  C   UNL     1       0.323   9.147  20.029  0.00  0.00    +0.000 A 
BRANCH  22  24
ATOM     24  O   UNL     1      -0.890  11.282  19.853  0.00  0.00    +0.000 OA
BRANCH  24  25
ATOM     25  C   UNL     1      -0.842  12.645  20.297  0.00  0.00    +0.000 C 
BRANCH  25  26
ATOM     26  C   UNL     1      -0.295  13.506  19.136  0.00  0.00    +0.000 C 
BRANCH  26  27
ATOM     27  N   UNL     1      -0.877  13.066  17.854  0.00  0.00    +0.000 NA
ATOM     28  H   UNL     1      -0.702  12.074  17.705  0.00  0.00    +0.000 HD
ATOM     29  H   UNL     1      -0.386  13.552  17.099  0.00  0.00    +0.000 HD
ENDBRANCH  26  27
BRANCH  26  30
ATOM     30  C   UNL     1      -0.563  15.006  19.398  0.00  0.00    +0.000 C 
BRANCH  30  31
ATOM     31  C   UNL     1       0.390  15.955  18.708  0.00  0.00    +0.000 A 
ATOM     32  C   UNL     1      -0.078  17.137  18.123  0.00  0.00    +0.000 A 
ATOM     33  C   UNL     1       0.833  17.990  17.518  0.00  0.00    +0.000 A 
ATOM     34  N   UNL     1       2.161  17.755  17.457  0.00  0.00    +0.000 NA
ATOM     35  C   UNL     1       2.593  16.608  18.022  0.00  0.00    +0.000 A 
ATOM     36  C   UNL     1       1.763  15.695  18.652  0.00  0.00    +0.000 A 
ENDBRANCH  30  31
ENDBRANCH  26  30
ENDBRANCH  25  26
ENDBRANCH  24  25
ENDBRANCH  22  24
ENDBRANCH  10  18
BRANCH   1  38
ATOM     37  C   UNL     1       7.375   4.792  14.300  0.00  0.00    +0.000 C 
ATOM     38  O   UNL     1       7.662   4.784  15.694  0.00  0.00    +0.000 OA
ENDBRANCH   1  38
BRANCH  15  39
ATOM     39  O   UNL     1       7.151   7.470  16.570  0.00  0.00    +0.000 OA
ATOM     40  C   UNL     1       7.775   8.294  17.543  0.00  0.00    +0.000 C 
ENDBRANCH  15  39
TORSDOF 9
ENDMDL
MODEL 2
REMARK VINA RESULT:      -8.4      2.527      3.954
REMARK  Name = 
REMARK  11 active torsions:
REMARK  status: ('A' for Active; 'I' for Inactive)
REMARK    1  A    between atoms: C_1  and  O_2
REMARK    2  A    between atoms: O_2  and  C_3
REMARK    3  A    between atoms: C_12  and  C_13
REMARK    4  A    between atoms: C_17  and  O_18
REMARK    5  A    between atoms: O_18  and  C_19
REMARK    6  A    between atoms: C_19  and  C_20
REMARK    7  A    between atoms: C_20  and  N_21
REMARK    8  A    between atoms: C_20  and  C_22
REMARK    9  A    between atoms: C_22  and  C_23
REMARK   10  A    between atoms: C_34  and  O_35
REMARK   11  A    between atoms: O_35  and  C_36
REMARK                            x       y       z     vdW  Elec       q    Type
REMARK                         _______ _______ _______ _____ _____    ______ ____
ROOT
ATOM      1  C   UNL     1       6.645   4.991  16.371  0.00  0.00    +0.000 A 
ATOM      2  C   UNL     1       5.770   3.951  16.717  0.00  0.00    +0.000 A 
ATOM      3  C   UNL     1       4.675   4.139  17.550  0.00  0.00    +0.000 A 
ATOM      4  N   UNL     1       3.910   3.080  17.845  0.00  0.00    +0.000 NA
ATOM      5  C   UNL     1       2.848   3.263  18.663  0.00  0.00    +0.000 A 
ATOM      6  C   UNL     1       2.462   4.489  19.206  0.00  0.00    +0.000 A 
ATOM      7  C   UNL     1       1.344   4.670  20.046  0.00  0.00    +0.000 A 
ATOM      8  N   UNL     1       0.545   3.604  20.462  0.00  0.00    +0.000 N 
ATOM      9  N   UNL     1       0.981   5.863  20.549  0.00  0.00    +0.000 NA
ATOM     10  C   UNL     1       1.724   6.946  20.228  0.00  0.00    +0.000 A 
ATOM     11  C   UNL     1       2.861   6.838  19.431  0.00  0.00    +0.000 A 
ATOM     12  C   UNL     1       3.258   5.600  18.887  0.00  0.00    +0.000 A 
ATOM     13  C   UNL     1       4.410   5.429  18.048  0.00  0.00    +0.000 A 
ATOM     14  C   UNL     1       5.297   6.480  17.680  0.00  0.00    +0.000 A 
ATOM     15  C   UNL     1       6.404   6.279  16.851  0.00  0.00    +0.000 A 
ATOM     16  H   UNL     1       0.177   3.064  19.687  0.00  0.00    +0.000 HD
ATOM     17  H   UNL     1      -0.205   3.997  21.028  0.00  0.00    +0.000 HD
ENDROOT
BRANCH  10  18
ATOM     18  C   UNL     1       1.262   8.238  20.760  0.00  0.00    +0.000 A 
ATOM     19  C   UNL     1       1.479   8.597  22.090  0.00  0.00    +0.000 A 
ATOM     20  N   UNL     1       1.105   9.778  22.642  0.00  0.00    +0.000 NA
ATOM     21  C   UNL     1       0.467  10.650  21.829  0.00  0.00    +0.000 A 
ATOM     22  C   UNL     1       0.180  10.407  20.491  0.00  0.00    +0.000 A 
ATOM     23  C   UNL     1       0.581   9.183  19.965  0.00  0.00    +0.000 A 
BRANCH  22  24
ATOM     24  O   UNL     1      -0.473  11.403  19.827  0.00  0.00    +0.000 OA
BRANCH  24  25
ATOM     25  C   UNL     1      -1.896  11.293  19.690  0.00  0.00    +0.000 C 
BRANCH  25  26
ATOM     26  C   UNL     1      -2.336  12.210  18.526  0.00  0.00    +0.000 C 
BRANCH  26  27
ATOM     27  N   UNL     1      -1.184  12.528  17.661  0.00  0.00    +0.000 NA
ATOM     28  H   UNL     1      -0.962  11.739  17.059  0.00  0.00    +0.000 HD
ATOM     29  H   UNL     1      -0.366  12.662  18.260  0.00  0.00    +0.000 HD
ENDBRANCH  26  27
BRANCH  26  30
ATOM     30  C   UNL     1      -3.488  11.560  17.726  0.00  0.00    +0.000 C 
BRANCH  30  31
ATOM     31  C   UNL     1      -4.824  11.540  18.432  0.00  0.00    +0.000 A 
ATOM     32  C   UNL     1      -5.277  12.660  19.139  0.00  0.00    +0.000 A 
ATOM     33  C   UNL     1      -6.518  12.606  19.755  0.00  0.00    +0.000 A 
ATOM     34  N   UNL     1      -7.334  11.531  19.715  0.00  0.00    +0.000 NA
ATOM     35  C   UNL     1      -6.878  10.458  19.034  0.00  0.00    +0.000 A 
ATOM     36  C   UNL     1      -5.656  10.417  18.383  0.00  0.00    +0.000 A 
ENDBRANCH  30  31
ENDBRANCH  26  30
ENDBRANCH  25  26
ENDBRANCH  24  25
ENDBRANCH  22  24
ENDBRANCH  10  18
BRANCH   1  38
ATOM     37  C   UNL     1       7.387   4.750  14.121  0.00  0.00    +0.000 C 
ATOM     38  O   UNL     1       7.643   4.604  15.514  0.00  0.00    +0.000 OA
ENDBRANCH   1  38
BRANCH  15  39
ATOM     39  O   UNL     1       7.242   7.285  16.460  0.00  0.00    +0.000 OA
ATOM     40  C   UNL     1       7.782   8.156  17.442  0.00  0.00    +0.000 C 
ENDBRANCH  15  39
TORSDOF 9
ENDMDL
MODEL 3
REMARK VINA RESULT:      -8.3      1.011      1.404
REMARK  Name = 
REMARK  11 active torsions:
REMARK  status: ('A' for Active; 'I' for Inactive)
REMARK    1  A    between atoms: C_1  and  O_2
REMARK    2  A    between atoms: O_2  and  C_3
REMARK    3  A    between atoms: C_12  and  C_13
REMARK    4  A    between atoms: C_17  and  O_18
REMARK    5  A    between atoms: O_18  and  C_19
REMARK    6  A    between atoms: C_19  and  C_20
REMARK    7  A    between atoms: C_20  and  N_21
REMARK    8  A    between atoms: C_20  and  C_22
REMARK    9  A    between atoms: C_22  and  C_23
REMARK   10  A    between atoms: C_34  and  O_35
REMARK   11  A    between atoms: O_35  and  C_36
REMARK                            x       y       z     vdW  Elec       q    Type
REMARK                         _______ _______ _______ _____ _____    ______ ____
ROOT
ATOM      1  C   UNL     1       6.589   5.093  16.489  0.00  0.00    +0.000 A 
ATOM      2  C   UNL     1       5.786   3.993  16.829  0.00  0.00    +0.000 A 
ATOM      3  C   UNL     1       4.684   4.100  17.666  0.00  0.00    +0.000 A 
ATOM      4  N   UNL     1       3.993   2.989  17.954  0.00  0.00    +0.000 NA
ATOM      5  C   UNL     1       2.924   3.094  18.776  0.00  0.00    +0.000 A 
ATOM      6  C   UNL     1       2.458   4.287  19.331  0.00  0.00    +0.000 A 
ATOM      7  C   UNL     1       1.333   4.385  20.176  0.00  0.00    +0.000 A 
ATOM      8  N   UNL     1       0.608   3.264  20.585  0.00  0.00    +0.000 N 
ATOM      9  N   UNL     1       0.892   5.547  20.690  0.00  0.00    +0.000 NA
ATOM     10  C   UNL     1       1.559   6.680  20.376  0.00  0.00    +0.000 A 
ATOM     11  C   UNL     1       2.699   6.655  19.576  0.00  0.00    +0.000 A 
ATOM     12  C   UNL     1       3.177   5.452  19.020  0.00  0.00    +0.000 A 
ATOM     13  C   UNL     1       4.335   5.365  18.176  0.00  0.00    +0.000 A 
ATOM     14  C   UNL     1       5.148   6.477  17.815  0.00  0.00    +0.000 A 
ATOM     15  C   UNL     1       6.263   6.358  16.982  0.00  0.00    +0.000 A 
ATOM     16  H   UNL     1       0.275   2.708  19.806  0.00  0.00    +0.000 HD
ATOM     17  H   UNL     1      -0.165   3.601  21.155  0.00  0.00    +0.000 HD
ENDROOT
BRANCH  10  18
ATOM     18  C   UNL     1       1.014   7.934  20.920  0.00  0.00    +0.000 A 
ATOM     19  C   UNL     1       0.233   7.947  22.076  0.00  0.00    +0.000 A 
ATOM     20  N   UNL     1      -0.281   9.063  22.648  0.00  0.00    +0.000 NA
ATOM     21  C   UNL     1      -0.016  10.236  22.029  0.00  0.00    +0.000 A 
ATOM     22  C   UNL     1       0.735  10.356  20.867  0.00  0.00    +0.000 A 
ATOM     23  C   UNL     1       1.245   9.185  20.313  0.00  0.00    +0.000 A 
BRANCH  22  24
ATOM     24  O   UNL     1       0.896  11.620  20.383  0.00  0.00    +0.000 OA
BRANCH  24  25
ATOM     25  C   UNL     1      -0.265  12.299  19.886  0.00  0.00    +0.000 C 
BRANCH  25  26
ATOM     26  C   UNL     1       0.166  13.163  18.679  0.00  0.00    +0.000 C 
BRANCH  26  27
ATOM     27  N   UNL     1      -0.893  13.173  17.652  0.00  0.00    +0.000 NA
ATOM     28  H   UNL     1      -0.909  14.067  17.166  0.00  0.00    +0.000 HD
ATOM     29  H   UNL     1      -1.796  13.098  18.128  0.00  0.00    +0.000 HD
ENDBRANCH  26  27
BRANCH  26  30
ATOM     30  C   UNL     1       0.532  14.593  19.136  0.00  0.00    +0.000 C 
BRANCH  30  31
ATOM     31  C   UNL     1       1.923  15.048  18.760  0.00  0.00    +0.000 A 
ATOM     32  C   UNL     1       3.038  14.253  19.048  0.00  0.00    +0.000 A 
ATOM     33  C   UNL     1       4.295  14.699  18.666  0.00  0.00    +0.000 A 
ATOM     34  N   UNL     1       4.518  15.864  18.022  0.00  0.00    +0.000 NA
ATOM     35  C   UNL     1       3.431  16.620  17.757  0.00  0.00    +0.000 A 
ATOM     36  C   UNL     1       2.136  16.259  18.094  0.00  0.00    +0.000 A 
ENDBRANCH  30  31
ENDBRANCH  26  30
ENDBRANCH  25  26
ENDBRANCH  24  25
ENDBRANCH  22  24
ENDBRANCH  10  18
BRANCH   1  38
ATOM     37  C   UNL     1       7.305   4.815  14.236  0.00  0.00    +0.000 C 
ATOM     38  O   UNL     1       7.608   4.781  15.626  0.00  0.00    +0.000 OA
ENDBRANCH   1  38
BRANCH  15  39
ATOM     39  O   UNL     1       7.030   7.420  16.596  0.00  0.00    +0.000 OA
ATOM     40  C   UNL     1       7.807   8.101  17.570  0.00  0.00    +0.000 C 
ENDBRANCH  15  39
TORSDOF 9
ENDMDL
MODEL 4
REMARK VINA RESULT:      -8.2      2.061      3.235
REMARK  Name = 
REMARK  11 active torsions:
REMARK  status: ('A' for Active; 'I' for Inactive)
REMARK    1  A    between atoms: C_1  and  O_2
REMARK    2  A    between atoms: O_2  and  C_3
REMARK    3  A    between atoms: C_12  and  C_13
REMARK    4  A    between atoms: C_17  and  O_18
REMARK    5  A    between atoms: O_18  and  C_19
REMARK    6  A    between atoms: C_19  and  C_20
REMARK    7  A    between atoms: C_20  and  N_21
REMARK    8  A    between atoms: C_20  and  C_22
REMARK    9  A    between atoms: C_22  and  C_23
REMARK   10  A    between atoms: C_34  and  O_35
REMARK   11  A    between atoms: O_35  and  C_36
REMARK                            x       y       z     vdW  Elec       q    Type
REMARK                         _______ _______ _______ _____ _____    ______ ____
ROOT
ATOM      1  C   UNL     1       6.634   5.097  16.440  0.00  0.00    +0.000 A 
ATOM      2  C   UNL     1       5.762   4.051  16.779  0.00  0.00    +0.000 A 
ATOM      3  C   UNL     1       4.663   4.230  17.608  0.00  0.00    +0.000 A 
ATOM      4  N   UNL     1       3.903   3.165  17.896  0.00  0.00    +0.000 NA
ATOM      5  C   UNL     1       2.837   3.339  18.711  0.00  0.00    +0.000 A 
ATOM      6  C   UNL     1       2.442   4.561  19.257  0.00  0.00    +0.000 A 
ATOM      7  C   UNL     1       1.320   4.732  20.094  0.00  0.00    +0.000 A 
ATOM      8  N   UNL     1       0.525   3.660  20.502  0.00  0.00    +0.000 N 
ATOM      9  N   UNL     1       0.948   5.922  20.600  0.00  0.00    +0.000 NA
ATOM     10  C   UNL     1       1.687   7.010  20.286  0.00  0.00    +0.000 A 
ATOM     11  C   UNL     1       2.827   6.911  19.493  0.00  0.00    +0.000 A 
ATOM     12  C   UNL     1       3.234   5.678  18.946  0.00  0.00    +0.000 A 
ATOM     13  C   UNL     1       4.390   5.516  18.110  0.00  0.00    +0.000 A 
ATOM     14  C   UNL     1       5.272   6.574  17.750  0.00  0.00    +0.000 A 
ATOM     15  C   UNL     1       6.383   6.382  16.925  0.00  0.00    +0.000 A 
ATOM     16  H   UNL     1       0.163   3.122  19.723  0.00  0.00    +0.000 HD
ATOM     17  H   UNL     1      -0.230   4.048  21.066  0.00  0.00    +0.000 HD
ENDROOT
BRANCH  10  18
ATOM     18  C   UNL     1       1.216   8.298  20.821  0.00  0.00    +0.000 A 
ATOM     19  C   UNL     1       0.987   8.479  22.185  0.00  0.00    +0.000 A 
ATOM     20  N   UNL     1       0.579   9.641  22.752  0.00  0.00    +0.000 NA
ATOM     21  C   UNL     1       0.372  10.682  21.913  0.00  0.00    +0.000 A 
ATOM     22  C   UNL     1       0.551  10.627  20.536  0.00  0.00    +0.000 A 
ATOM     23  C   UNL     1       0.972   9.415  19.996  0.00  0.00    +0.000 A 
BRANCH  22  24
ATOM     24  O   UNL     1       0.291  11.776  19.850  0.00  0.00    +0.000 OA
BRANCH  24  25
ATOM     25  C   UNL     1      -0.310  12.862  20.568  0.00  0.00    +0.000 C 
BRANCH  25  26
ATOM     26  C   UNL     1      -1.517  13.368  19.745  0.00  0.00    +0.000 C 
BRANCH  26  27
ATOM     27  N   UNL     1      -1.366  12.989  18.328  0.00  0.00    +0.000 NA
ATOM     28  H   UNL     1      -1.065  12.020  18.248  0.00  0.00    +0.000 HD
ATOM     29  H   UNL     1      -0.609  13.549  17.928  0.00  0.00    +0.000 HD
ENDBRANCH  26  27
BRANCH  26  30
ATOM     30  C   UNL     1      -2.841  12.839  20.340  0.00  0.00    +0.000 C 
BRANCH  30  31
ATOM     31  C   UNL     1      -3.144  13.309  21.744  0.00  0.00    +0.000 A 
ATOM     32  C   UNL     1      -3.297  14.672  22.024  0.00  0.00    +0.000 A 
ATOM     33  C   UNL     1      -3.595  15.059  23.322  0.00  0.00    +0.000 A 
ATOM     34  N   UNL     1      -3.755  14.197  24.348  0.00  0.00    +0.000 NA
ATOM     35  C   UNL     1      -3.599  12.887  24.060  0.00  0.00    +0.000 A 
ATOM     36  C   UNL     1      -3.305  12.402  22.796  0.00  0.00    +0.000 A 
ENDBRANCH  30  31
ENDBRANCH  26  30
ENDBRANCH  25  26
ENDBRANCH  24  25
ENDBRANCH  22  24
ENDBRANCH  10  18
BRANCH   1  38
ATOM     37  C   UNL     1       7.341   4.750  14.193  0.00  0.00    +0.000 C 
ATOM     38  O   UNL     1       7.637   4.719  15.585  0.00  0.00    +0.000 OA
ENDBRANCH   1  38
BRANCH  15  39
ATOM     39  O   UNL     1       7.217   7.393  16.540  0.00  0.00    +0.000 OA
ATOM     40  C   UNL     1       7.787   8.234  17.532  0.00  0.00    +0.000 C 
ENDBRANCH  15  39
TORSDOF 9
ENDMDL
MODEL 5
REMARK VINA RESULT:      -7.9      2.624     11.134
REMARK  Name = 
REMARK  11 active torsions:
REMARK  status: ('A' for Active; 'I' for Inactive)
REMARK    1  A    between atoms: C_1  and  O_2
REMARK    2  A    between atoms: O_2  and  C_3
REMARK    3  A    between atoms: C_12  and  C_13
REMARK    4  A    between atoms: C_17  and  O_18
REMARK    5  A    between atoms: O_18  and  C_19
REMARK    6  A    between atoms: C_19  and  C_20
REMARK    7  A    between atoms: C_20  and  N_21
REMARK    8  A    between atoms: C_20  and  C_22
REMARK    9  A    between atoms: C_22  and  C_23
REMARK   10  A    between atoms: C_34  and  O_35
REMARK   11  A    between atoms: O_35  and  C_36
REMARK                            x       y       z     vdW  Elec       q    Type
REMARK                         _______ _______ _______ _____ _____    ______ ____
ROOT
ATOM      1  C   UNL     1      -3.576  14.204  21.960  0.00  0.00    +0.000 A 
ATOM      2  C   UNL     1      -2.772  14.885  21.034  0.00  0.00    +0.000 A 
ATOM      3  C   UNL     1      -1.693  14.289  20.396  0.00  0.00    +0.000 A 
ATOM      4  N   UNL     1      -0.968  15.028  19.547  0.00  0.00    +0.000 NA
ATOM      5  C   UNL     1       0.089  14.448  18.933  0.00  0.00    +0.000 A 
ATOM      6  C   UNL     1       0.470  13.115  19.091  0.00  0.00    +0.000 A 
ATOM      7  C   UNL     1       1.565  12.517  18.433  0.00  0.00    +0.000 A 
ATOM      8  N   UNL     1       2.415  13.240  17.594  0.00  0.00    +0.000 N 
ATOM      9  N   UNL     1       1.908  11.226  18.589  0.00  0.00    +0.000 NA
ATOM     10  C   UNL     1       1.161  10.461  19.416  0.00  0.00    +0.000 A 
ATOM     11  C   UNL     1       0.085  10.991  20.124  0.00  0.00    +0.000 A 
ATOM     12  C   UNL     1      -0.298  12.338  19.973  0.00  0.00    +0.000 A 
ATOM     13  C   UNL     1      -1.405  12.937  20.664  0.00  0.00    +0.000 A 
ATOM     14  C   UNL     1      -2.234  12.250  21.595  0.00  0.00    +0.000 A 
ATOM     15  C   UNL     1      -3.311  12.862  22.241  0.00  0.00    +0.000 A 
ATOM     16  H   UNL     1       1.919  13.715  16.849  0.00  0.00    +0.000 HD
ATOM     17  H   UNL     1       3.097  12.582  17.223  0.00  0.00    +0.000 HD
ENDROOT
BRANCH  10  18
ATOM     18  C   UNL     1       1.541   9.043  19.519  0.00  0.00    +0.000 A 
ATOM     19  C   UNL     1       1.358   8.324  20.700  0.00  0.00    +0.000 A 
ATOM     20  N   UNL     1       1.661   7.013  20.861  0.00  0.00    +0.000 NA
ATOM     21  C   UNL     1       2.189   6.379  19.790  0.00  0.00    +0.000 A 
ATOM     22  C   UNL     1       2.433   6.984  18.563  0.00  0.00    +0.000 A 
ATOM     23  C   UNL     1       2.107   8.332  18.440  0.00  0.00    +0.000 A 
BRANCH  22  24
ATOM     24  O   UNL     1       2.973   6.188  17.596  0.00  0.00    +0.000 OA
BRANCH  24  25
ATOM     25  C   UNL     1       4.082   5.355  17.959  0.00  0.00    +0.000 C 
BRANCH  25  26
ATOM     26  C   UNL     1       4.083   4.125  17.023  0.00  0.00    +0.000 C 
BRANCH  26  27
ATOM     27  N   UNL     1       5.277   4.141  16.157  0.00  0.00    +0.000 NA
ATOM     28  H   UNL     1       5.234   3.386  15.477  0.00  0.00    +0.000 HD
ATOM     29  H   UNL     1       6.094   3.945  16.741  0.00  0.00    +0.000 HD
ENDBRANCH  26  27
BRANCH  26  30
ATOM     30  C   UNL     1       3.989   2.818  17.842  0.00  0.00    +0.000 C 
BRANCH  30  31
ATOM     31  C   UNL     1       3.003   2.850  18.987  0.00  0.00    +0.000 A 
ATOM     32  C   UNL     1       1.628   2.959  18.743  0.00  0.00    +0.000 A 
ATOM     33  C   UNL     1       0.757   2.964  19.822  0.00  0.00    +0.000 A 
ATOM     34  N   UNL     1       1.149   2.865  21.110  0.00  0.00    +0.000 NA
ATOM     35  C   UNL     1       2.478   2.766  21.325  0.00  0.00    +0.000 A 
ATOM     36  C   UNL     1       3.427   2.748  20.315  0.00  0.00    +0.000 A 
ENDBRANCH  30  31
ENDBRANCH  26  30
ENDBRANCH  25  26
ENDBRANCH  24  25
ENDBRANCH  22  24
ENDBRANCH  10  18
BRANCH   1  38
ATOM     37  C   UNL     1      -5.802  15.003  21.676  0.00  0.00    +0.000 C 
ATOM     38  O   UNL     1      -4.608  14.961  22.451  0.00  0.00    +0.000 OA
ENDBRANCH   1  38
BRANCH  15  39
ATOM     39  O   UNL     1      -4.139  12.206  23.108  0.00  0.00    +0.000 OA
ATOM     40  C   UNL     1      -4.016  12.453  24.501  0.00  0.00    +0.000 C 
ENDBRANCH  15  39
TORSDOF 9
ENDMDL
MODEL 6
REMARK VINA RESULT:      -7.9      1.271      1.647
REMARK  Name = 
REMARK  11 active torsions:
REMARK  status: ('A' for Active; 'I' for Inactive)
REMARK    1  A    between atoms: C_1  and  O_2
REMARK    2  A    between atoms: O_2  and  C_3
REMARK    3  A    between atoms: C_12  and  C_13
REMARK    4  A    between atoms: C_17  and  O_18
REMARK    5  A    between atoms: O_18  and  C_19
REMARK    6  A    between atoms: C_19  and  C_20
REMARK    7  A    between atoms: C_20  and  N_21
REMARK    8  A    between atoms: C_20  and  C_22
REMARK    9  A    between atoms: C_22  and  C_23
REMARK   10  A    between atoms: C_34  and  O_35
REMARK   11  A    between atoms: O_35  and  C_36
REMARK                            x       y       z     vdW  Elec       q    Type
REMARK                         _______ _______ _______ _____ _____    ______ ____
ROOT
ATOM      1  C   UNL     1       6.589   5.216  16.536  0.00  0.00    +0.000 A 
ATOM      2  C   UNL     1       5.771   4.125  16.870  0.00  0.00    +0.000 A 
ATOM      3  C   UNL     1       4.664   4.245  17.699  0.00  0.00    +0.000 A 
ATOM      4  N   UNL     1       3.959   3.142  17.982  0.00  0.00    +0.000 NA
ATOM      5  C   UNL     1       2.885   3.259  18.797  0.00  0.00    +0.000 A 
ATOM      6  C   UNL     1       2.428   4.456  19.349  0.00  0.00    +0.000 A 
ATOM      7  C   UNL     1       1.298   4.567  20.185  0.00  0.00    +0.000 A 
ATOM      8  N   UNL     1       0.558   3.455  20.588  0.00  0.00    +0.000 N 
ATOM      9  N   UNL     1       0.867   5.734  20.695  0.00  0.00    +0.000 NA
ATOM     10  C   UNL     1       1.549   6.860  20.387  0.00  0.00    +0.000 A 
ATOM     11  C   UNL     1       2.694   6.822  19.594  0.00  0.00    +0.000 A 
ATOM     12  C   UNL     1       3.162   5.613  19.042  0.00  0.00    +0.000 A 
ATOM     13  C   UNL     1       4.325   5.514  18.207  0.00  0.00    +0.000 A 
ATOM     14  C   UNL     1       5.153   6.616  17.852  0.00  0.00    +0.000 A 
ATOM     15  C   UNL     1       6.273   6.484  17.026  0.00  0.00    +0.000 A 
ATOM     16  H   UNL     1       0.224   2.902  19.807  0.00  0.00    +0.000 HD
ATOM     17  H   UNL     1      -0.215   3.801  21.153  0.00  0.00    +0.000 HD
ENDROOT
BRANCH  10  18
ATOM     18  C   UNL     1       1.014   8.119  20.927  0.00  0.00    +0.000 A 
ATOM     19  C   UNL     1       0.462   8.187  22.206  0.00  0.00    +0.000 A 
ATOM     20  N   UNL     1      -0.027   9.314  22.778  0.00  0.00    +0.000 NA
ATOM     21  C   UNL     1       0.023  10.441  22.031  0.00  0.00    +0.000 A 
ATOM     22  C   UNL     1       0.535  10.504  20.741  0.00  0.00    +0.000 A 
ATOM     23  C   UNL     1       1.027   9.323  20.192  0.00  0.00    +0.000 A 
BRANCH  22  24
ATOM     24  O   UNL     1       0.501  11.727  20.140  0.00  0.00    +0.000 OA
BRANCH  24  25
ATOM     25  C   UNL     1       1.068  11.843  18.828  0.00  0.00    +0.000 C 
BRANCH  25  26
ATOM     26  C   UNL     1       0.611  13.191  18.226  0.00  0.00    +0.000 C 
BRANCH  26  27
ATOM     27  N   UNL     1      -0.824  13.139  17.886  0.00  0.00    +0.000 NA
ATOM     28  H   UNL     1      -1.323  12.536  18.537  0.00  0.00    +0.000 HD
ATOM     29  H   UNL     1      -0.917  12.697  16.969  0.00  0.00    +0.000 HD
ENDBRANCH  26  27
BRANCH  26  30
ATOM     30  C   UNL     1       0.926  14.354  19.194  0.00  0.00    +0.000 C 
BRANCH  30  31
ATOM     31  C   UNL     1      -0.198  15.344  19.391  0.00  0.00    +0.000 A 
ATOM     32  C   UNL     1      -1.133  15.170  20.418  0.00  0.00    +0.000 A 
ATOM     33  C   UNL     1      -2.137  16.114  20.576  0.00  0.00    +0.000 A 
ATOM     34  N   UNL     1      -2.272  17.208  19.798  0.00  0.00    +0.000 NA
ATOM     35  C   UNL     1      -1.365  17.357  18.810  0.00  0.00    +0.000 A 
ATOM     36  C   UNL     1      -0.325  16.472  18.574  0.00  0.00    +0.000 A 
ENDBRANCH  30  31
ENDBRANCH  26  30
ENDBRANCH  25  26
ENDBRANCH  24  25
ENDBRANCH  22  24
ENDBRANCH  10  18
BRANCH   1  38
ATOM     37  C   UNL     1       7.293   4.835  14.294  0.00  0.00    +0.000 C 
ATOM     38  O   UNL     1       7.610   4.892  15.681  0.00  0.00    +0.000 OA
ENDBRANCH   1  38
BRANCH  15  39
ATOM     39  O   UNL     1       7.055   7.538  16.646  0.00  0.00    +0.000 OA
ATOM     40  C   UNL     1       7.876   8.173  17.615  0.00  0.00    +0.000 C 
ENDBRANCH  15  39
TORSDOF 9
ENDMDL
MODEL 7
REMARK VINA RESULT:      -7.7      1.347      1.657
REMARK  Name = 
REMARK  11 active torsions:
REMARK  status: ('A' for Active; 'I' for Inactive)
REMARK    1  A    between atoms: C_1  and  O_2
REMARK    2  A    between atoms: O_2  and  C_3
REMARK    3  A    between atoms: C_12  and  C_13
REMARK    4  A    between atoms: C_17  and  O_18
REMARK    5  A    between atoms: O_18  and  C_19
REMARK    6  A    between atoms: C_19  and  C_20
REMARK    7  A    between atoms: C_20  and  N_21
REMARK    8  A    between atoms: C_20  and  C_22
REMARK    9  A    between atoms: C_22  and  C_23
REMARK   10  A    between atoms: C_34  and  O_35
REMARK   11  A    between atoms: O_35  and  C_36
REMARK                            x       y       z     vdW  Elec       q    Type
REMARK                         _______ _______ _______ _____ _____    ______ ____
ROOT
ATOM      1  C   UNL     1       6.656   5.179  16.371  0.00  0.00    +0.000 A 
ATOM      2  C   UNL     1       5.795   4.122  16.704  0.00  0.00    +0.000 A 
ATOM      3  C   UNL     1       4.698   4.283  17.538  0.00  0.00    +0.000 A 
ATOM      4  N   UNL     1       3.949   3.209  17.820  0.00  0.00    +0.000 NA
ATOM      5  C   UNL     1       2.884   3.366  18.640  0.00  0.00    +0.000 A 
ATOM      6  C   UNL     1       2.480   4.579  19.198  0.00  0.00    +0.000 A 
ATOM      7  C   UNL     1       1.359   4.733  20.040  0.00  0.00    +0.000 A 
ATOM      8  N   UNL     1       0.576   3.650  20.443  0.00  0.00    +0.000 N 
ATOM      9  N   UNL     1       0.978   5.915  20.557  0.00  0.00    +0.000 NA
ATOM     10  C   UNL     1       1.704   7.013  20.250  0.00  0.00    +0.000 A 
ATOM     11  C   UNL     1       2.843   6.931  19.452  0.00  0.00    +0.000 A 
ATOM     12  C   UNL     1       3.259   5.707  18.893  0.00  0.00    +0.000 A 
ATOM     13  C   UNL     1       4.414   5.563  18.052  0.00  0.00    +0.000 A 
ATOM     14  C   UNL     1       5.285   6.632  17.698  0.00  0.00    +0.000 A 
ATOM     15  C   UNL     1       6.395   6.458  16.867  0.00  0.00    +0.000 A 
ATOM     16  H   UNL     1       0.216   3.115  19.661  0.00  0.00    +0.000 HD
ATOM     17  H   UNL     1      -0.180   4.026  21.013  0.00  0.00    +0.000 HD
ENDROOT
BRANCH  10  18
ATOM     18  C   UNL     1       1.223   8.291  20.796  0.00  0.00    +0.000 A 
ATOM     19  C   UNL     1       1.223   8.542  22.169  0.00  0.00    +0.000 A 
ATOM     20  N   UNL     1       0.819   9.702  22.742  0.00  0.00    +0.000 NA
ATOM     21  C   UNL     1       0.377  10.668  21.905  0.00  0.00    +0.000 A 
ATOM     22  C   UNL     1       0.316  10.538  20.523  0.00  0.00    +0.000 A 
ATOM     23  C   UNL     1       0.740   9.331  19.975  0.00  0.00    +0.000 A 
BRANCH  22  24
ATOM     24  O   UNL     1      -0.160  11.617  19.839  0.00  0.00    +0.000 OA
BRANCH  24  25
ATOM     25  C   UNL     1       0.169  12.922  20.335  0.00  0.00    +0.000 C 
BRANCH  25  26
ATOM     26  C   UNL     1       0.378  13.856  19.122  0.00  0.00    +0.000 C 
BRANCH  26  27
ATOM     27  N   UNL     1       0.317  15.268  19.546  0.00  0.00    +0.000 NA
ATOM     28  H   UNL     1       1.063  15.474  20.206  0.00  0.00    +0.000 HD
ATOM     29  H   UNL     1      -0.556  15.407  20.059  0.00  0.00    +0.000 HD
ENDBRANCH  26  27
BRANCH  26  30
ATOM     30  C   UNL     1       1.710  13.531  18.409  0.00  0.00    +0.000 C 
BRANCH  30  31
ATOM     31  C   UNL     1       2.887  14.377  18.837  0.00  0.00    +0.000 A 
ATOM     32  C   UNL     1       3.470  15.292  17.952  0.00  0.00    +0.000 A 
ATOM     33  C   UNL     1       4.536  16.063  18.393  0.00  0.00    +0.000 A 
ATOM     34  N   UNL     1       5.053  15.993  19.638  0.00  0.00    +0.000 NA
ATOM     35  C   UNL     1       4.481  15.102  20.476  0.00  0.00    +0.000 A 
ATOM     36  C   UNL     1       3.412  14.291  20.131  0.00  0.00    +0.000 A 
ENDBRANCH  30  31
ENDBRANCH  26  30
ENDBRANCH  25  26
ENDBRANCH  24  25
ENDBRANCH  22  24
ENDBRANCH  10  18
BRANCH   1  38
ATOM     37  C   UNL     1       7.323   4.735  14.128  0.00  0.00    +0.000 C 
ATOM     38  O   UNL     1       7.659   4.817  15.509  0.00  0.00    +0.000 OA
ENDBRANCH   1  38
BRANCH  15  39
ATOM     39  O   UNL     1       7.218   7.480  16.487  0.00  0.00    +0.000 OA
ATOM     40  C   UNL     1       7.781   8.319  17.484  0.00  0.00    +0.000 C 
ENDBRANCH  15  39
TORSDOF 9
ENDMDL
MODEL 8
REMARK VINA RESULT:      -7.7      3.659      5.067
REMARK  Name = 
REMARK  11 active torsions:
REMARK  status: ('A' for Active; 'I' for Inactive)
REMARK    1  A    between atoms: C_1  and  O_2
REMARK    2  A    between atoms: O_2  and  C_3
REMARK    3  A    between atoms: C_12  and  C_13
REMARK    4  A    between atoms: C_17  and  O_18
REMARK    5  A    between atoms: O_18  and  C_19
REMARK    6  A    between atoms: C_19  and  C_20
REMARK    7  A    between atoms: C_20  and  N_21
REMARK    8  A    between atoms: C_20  and  C_22
REMARK    9  A    between atoms: C_22  and  C_23
REMARK   10  A    between atoms: C_34  and  O_35
REMARK   11  A    between atoms: O_35  and  C_36
REMARK                            x       y       z     vdW  Elec       q    Type
REMARK                         _______ _______ _______ _____ _____    ______ ____
ROOT
ATOM      1  C   UNL     1       3.745   3.484  19.433  0.00  0.00    +0.000 A 
ATOM      2  C   UNL     1       4.066   4.409  18.428  0.00  0.00    +0.000 A 
ATOM      3  C   UNL     1       3.558   5.701  18.408  0.00  0.00    +0.000 A 
ATOM      4  N   UNL     1       3.901   6.504  17.392  0.00  0.00    +0.000 NA
ATOM      5  C   UNL     1       3.398   7.760  17.370  0.00  0.00    +0.000 A 
ATOM      6  C   UNL     1       2.564   8.303  18.348  0.00  0.00    +0.000 A 
ATOM      7  C   UNL     1       2.058   9.619  18.320  0.00  0.00    +0.000 A 
ATOM      8  N   UNL     1       2.307  10.490  17.259  0.00  0.00    +0.000 N 
ATOM      9  N   UNL     1       1.266  10.128  19.281  0.00  0.00    +0.000 NA
ATOM     10  C   UNL     1       0.943   9.338  20.329  0.00  0.00    +0.000 A 
ATOM     11  C   UNL     1       1.378   8.018  20.407  0.00  0.00    +0.000 A 
ATOM     12  C   UNL     1       2.214   7.463  19.417  0.00  0.00    +0.000 A 
ATOM     13  C   UNL     1       2.706   6.115  19.450  0.00  0.00    +0.000 A 
ATOM     14  C   UNL     1       2.397   5.174  20.472  0.00  0.00    +0.000 A 
ATOM     15  C   UNL     1       2.903   3.871  20.477  0.00  0.00    +0.000 A 
ATOM     16  H   UNL     1       3.296  10.611  17.074  0.00  0.00    +0.000 HD
ATOM     17  H   UNL     1       1.864  11.377  17.492  0.00  0.00    +0.000 HD
ENDROOT
BRANCH  10  18
ATOM     18  C   UNL     1       0.115   9.951  21.381  0.00  0.00    +0.000 A 
ATOM     19  C   UNL     1       0.102   9.448  22.682  0.00  0.00    +0.000 A 
ATOM     20  N   UNL     1      -0.614   9.973  23.706  0.00  0.00    +0.000 NA
ATOM     21  C   UNL     1      -1.372  11.056  23.419  0.00  0.00    +0.000 A 
ATOM     22  C   UNL     1      -1.456  11.644  22.163  0.00  0.00    +0.000 A 
ATOM     23  C   UNL     1      -0.704  11.073  21.140  0.00  0.00    +0.000 A 
BRANCH  22  24
ATOM     24  O   UNL     1      -2.274  12.729  22.060  0.00  0.00    +0.000 OA
BRANCH  24  25
ATOM     25  C   UNL     1      -3.636  12.505  21.672  0.00  0.00    +0.000 C 
BRANCH  25  26
ATOM     26  C   UNL     1      -3.850  13.151  20.284  0.00  0.00    +0.000 C 
BRANCH  26  27
ATOM     27  N   UNL     1      -4.094  14.599  20.425  0.00  0.00    +0.000 NA
ATOM     28  H   UNL     1      -3.639  14.958  21.262  0.00  0.00    +0.000 HD
ATOM     29  H   UNL     1      -5.097  14.739  20.572  0.00  0.00    +0.000 HD
ENDBRANCH  26  27
BRANCH  26  30
ATOM     30  C   UNL     1      -2.647  12.863  19.358  0.00  0.00    +0.000 C 
BRANCH  30  31
ATOM     31  C   UNL     1      -2.891  11.809  18.303  0.00  0.00    +0.000 A 
ATOM     32  C   UNL     1      -4.168  11.622  17.760  0.00  0.00    +0.000 A 
ATOM     33  C   UNL     1      -4.343  10.658  16.779  0.00  0.00    +0.000 A 
ATOM     34  N   UNL     1      -3.350   9.878  16.302  0.00  0.00    +0.000 NA
ATOM     35  C   UNL     1      -2.127  10.068  16.841  0.00  0.00    +0.000 A 
ATOM     36  C   UNL     1      -1.851  11.008  17.821  0.00  0.00    +0.000 A 
ENDBRANCH  30  31
ENDBRANCH  26  30
ENDBRANCH  25  26
ENDBRANCH  24  25
ENDBRANCH  22  24
ENDBRANCH  10  18
BRANCH   1  38
ATOM     37  C   UNL     1       3.721   1.302  18.480  0.00  0.00    +0.000 C 
ATOM     38  O   UNL     1       4.376   2.275  19.286  0.00  0.00    +0.000 OA
ENDBRANCH   1  38
BRANCH  15  39
ATOM     39  O   UNL     1       2.646   2.969  21.470  0.00  0.00    +0.000 OA
ATOM     40  C   UNL     1       1.298   2.654  21.784  0.00  0.00    +0.000 C 
ENDBRANCH  15  39
TORSDOF 9
ENDMDL
MODEL 9
REMARK VINA RESULT:      -7.6      2.479      3.834
REMARK  Name = 
REMARK  11 active torsions:
REMARK  status: ('A' for Active; 'I' for Inactive)
REMARK    1  A    between atoms: C_1  and  O_2
REMARK    2  A    between atoms: O_2  and  C_3
REMARK    3  A    between atoms: C_12  and  C_13
REMARK    4  A    between atoms: C_17  and  O_18
REMARK    5  A    between atoms: O_18  and  C_19
REMARK    6  A    between atoms: C_19  and  C_20
REMARK    7  A    between atoms: C_20  and  N_21
REMARK    8  A    between atoms: C_20  and  C_22
REMARK    9  A    between atoms: C_22  and  C_23
REMARK   10  A    between atoms: C_34  and  O_35
REMARK   11  A    between atoms: O_35  and  C_36
REMARK                            x       y       z     vdW  Elec       q    Type
REMARK                         _______ _______ _______ _____ _____    ______ ____
ROOT
ATOM      1  C   UNL     1       6.599   5.220  16.445  0.00  0.00    +0.000 A 
ATOM      2  C   UNL     1       5.760   4.142  16.766  0.00  0.00    +0.000 A 
ATOM      3  C   UNL     1       4.663   4.271  17.607  0.00  0.00    +0.000 A 
ATOM      4  N   UNL     1       3.935   3.179  17.876  0.00  0.00    +0.000 NA
ATOM      5  C   UNL     1       2.871   3.305  18.702  0.00  0.00    +0.000 A 
ATOM      6  C   UNL     1       2.447   4.502  19.281  0.00  0.00    +0.000 A 
ATOM      7  C   UNL     1       1.328   4.623  20.129  0.00  0.00    +0.000 A 
ATOM      8  N   UNL     1       0.566   3.520  20.518  0.00  0.00    +0.000 N 
ATOM      9  N   UNL     1       0.928   5.789  20.666  0.00  0.00    +0.000 NA
ATOM     10  C   UNL     1       1.633   6.904  20.373  0.00  0.00    +0.000 A 
ATOM     11  C   UNL     1       2.770   6.856  19.569  0.00  0.00    +0.000 A 
ATOM     12  C   UNL     1       3.205   5.647  18.990  0.00  0.00    +0.000 A 
ATOM     13  C   UNL     1       4.358   5.537  18.142  0.00  0.00    +0.000 A 
ATOM     14  C   UNL     1       5.209   6.627  17.800  0.00  0.00    +0.000 A 
ATOM     15  C   UNL     1       6.318   6.486  16.962  0.00  0.00    +0.000 A 
ATOM     16  H   UNL     1       0.212   2.990  19.730  0.00  0.00    +0.000 HD
ATOM     17  H   UNL     1      -0.194   3.873  21.097  0.00  0.00    +0.000 HD
ENDROOT
BRANCH  10  18
ATOM     18  C   UNL     1       1.132   8.165  20.941  0.00  0.00    +0.000 A 
ATOM     19  C   UNL     1       1.559   8.622  22.188  0.00  0.00    +0.000 A 
ATOM     20  N   UNL     1       1.161   9.784  22.763  0.00  0.00    +0.000 NA
ATOM     21  C   UNL     1       0.276  10.531  22.065  0.00  0.00    +0.000 A 
ATOM     22  C   UNL     1      -0.235  10.181  20.821  0.00  0.00    +0.000 A 
ATOM     23  C   UNL     1       0.200   8.981  20.267  0.00  0.00    +0.000 A 
BRANCH  22  24
ATOM     24  O   UNL     1      -1.121  11.058  20.268  0.00  0.00    +0.000 OA
BRANCH  24  25
ATOM     25  C   UNL     1      -1.689  12.062  21.120  0.00  0.00    +0.000 C 
BRANCH  25  26
ATOM     26  C   UNL     1      -2.409  13.096  20.225  0.00  0.00    +0.000 C 
BRANCH  26  27
ATOM     27  N   UNL     1      -2.275  12.725  18.803  0.00  0.00    +0.000 NA
ATOM     28  H   UNL     1      -2.312  11.714  18.694  0.00  0.00    +0.000 HD
ATOM     29  H   UNL     1      -1.343  13.005  18.489  0.00  0.00    +0.000 HD
ENDBRANCH  26  27
BRANCH  26  30
ATOM     30  C   UNL     1      -3.890  13.238  20.641  0.00  0.00    +0.000 C 
BRANCH  30  31
ATOM     31  C   UNL     1      -4.852  12.340  19.897  0.00  0.00    +0.000 A 
ATOM     32  C   UNL     1      -6.060  11.945  20.483  0.00  0.00    +0.000 A 
ATOM     33  C   UNL     1      -6.923  11.137  19.757  0.00  0.00    +0.000 A 
ATOM     34  N   UNL     1      -6.674  10.704  18.503  0.00  0.00    +0.000 NA
ATOM     35  C   UNL     1      -5.503  11.091  17.956  0.00  0.00    +0.000 A 
ATOM     36  C   UNL     1      -4.578  11.899  18.598  0.00  0.00    +0.000 A 
ENDBRANCH  30  31
ENDBRANCH  26  30
ENDBRANCH  25  26
ENDBRANCH  24  25
ENDBRANCH  22  24
ENDBRANCH  10  18
BRANCH   1  38
ATOM     37  C   UNL     1       7.277   4.871  14.189  0.00  0.00    +0.000 C 
ATOM     38  O   UNL     1       7.606   4.889  15.574  0.00  0.00    +0.000 OA
ENDBRANCH   1  38
BRANCH  15  39
ATOM     39  O   UNL     1       7.121   7.528  16.595  0.00  0.00    +0.000 OA
ATOM     40  C   UNL     1       7.778   8.281  17.603  0.00  0.00    +0.000 C 
ENDBRANCH  15  39
TORSDOF 9
ENDMDL
