MODEL 1
REMARK VINA RESULT:      -6.2      0.000      0.000
REMARK  Name = 
REMARK  11 active torsions:
REMARK  status: ('A' for Active; 'I' for Inactive)
REMARK    1  A    between atoms: C_1  and  C_2
REMARK    2  A    between atoms: C_2  and  O_3
REMARK    3  A    between atoms: O_3  and  C_4
REMARK    4  A    between atoms: C_4  and  C_6
REMARK    5  A    between atoms: C_6  and  C_7
REMARK    6  A    between atoms: C_6  and  N_8
REMARK    7  A    between atoms: C_9  and  C_11
REMARK    8  A    between atoms: C_11  and  N_12
REMARK    9  A    between atoms: C_11  and  C_13
REMARK   10  A    between atoms: C_13  and  C_14
REMARK   11  A    between atoms: C_14  and  O_16
REMARK                            x       y       z     vdW  Elec       q    Type
REMARK                         _______ _______ _______ _____ _____    ______ ____
ROOT
ATOM      1  N   UNL     1       5.490   3.573  18.911  0.00  0.00    +0.000 N 
ATOM      2  C   UNL     1       5.817   4.897  19.078  0.00  0.00    +0.000 C 
ATOM      3  O   UNL     1       5.006   5.748  19.432  0.00  0.00    +0.000 OA
ATOM      4  H   UNL     1       6.168   3.009  18.401  0.00  0.00    +0.000 HD
ENDROOT
BRANCH   1   5
ATOM      5  C   UNL     1       4.144   3.067  19.142  0.00  0.00    +0.000 C 
ATOM      6  C   UNL     1       3.763   2.062  18.062  0.00  0.00    +0.000 C 
BRANCH   5   7
ATOM      7  C   UNL     1       4.012   2.385  20.507  0.00  0.00    +0.000 C 
ATOM      8  O   UNL     1       4.908   1.788  21.088  0.00  0.00    +0.000 OA
BRANCH   7   9
ATOM      9  O   UNL     1       2.700   2.421  20.893  0.00  0.00    +0.000 OA
BRANCH   9  11
ATOM     10  C   UNL     1       0.989   4.018  20.466  0.00  0.00    +0.000 C 
ATOM     11  C   UNL     1       2.208   3.699  21.313  0.00  0.00    +0.000 C 
ENDBRANCH   9  11
ENDBRANCH   7   9
ENDBRANCH   5   7
ENDBRANCH   1   5
BRANCH   2  12
ATOM     12  C   UNL     1       7.308   5.222  18.846  0.00  0.00    +0.000 C 
BRANCH  12  13
ATOM     13  N   UNL     1       7.954   5.591  20.133  0.00  0.00    +0.000 NA
ATOM     14  H   UNL     1       8.938   5.319  20.103  0.00  0.00    +0.000 HD
ATOM     15  H   UNL     1       7.539   4.987  20.857  0.00  0.00    +0.000 HD
ENDBRANCH  12  13
BRANCH  12  16
ATOM     16  C   UNL     1       7.379   6.352  17.808  0.00  0.00    +0.000 C 
BRANCH  16  17
ATOM     17  C   UNL     1       6.947   5.907  16.438  0.00  0.00    +0.000 C 
ATOM     18  O   UNL     1       7.472   5.025  15.783  0.00  0.00    +0.000 OA
BRANCH  17  19
ATOM     19  O   UNL     1       5.900   6.632  15.964  0.00  0.00    +0.000 OA
ATOM     20  H   UNL     1       5.373   6.173  15.281  0.00  0.00    +0.000 HD
ENDBRANCH  17  19
ENDBRANCH  16  17
ENDBRANCH  12  16
ENDBRANCH   2  12
TORSDOF 9
ENDMDL
MODEL 2
REMARK VINA RESULT:      -6.2      1.939      6.050
REMARK  Name = 
REMARK  11 active torsions:
REMARK  status: ('A' for Active; 'I' for Inactive)
REMARK    1  A    between atoms: C_1  and  C_2
REMARK    2  A    between atoms: C_2  and  O_3
REMARK    3  A    between atoms: O_3  and  C_4
REMARK    4  A    between atoms: C_4  and  C_6
REMARK    5  A    between atoms: C_6  and  C_7
REMARK    6  A    between atoms: C_6  and  N_8
REMARK    7  A    between atoms: C_9  and  C_11
REMARK    8  A    between atoms: C_11  and  N_12
REMARK    9  A    between atoms: C_11  and  C_13
REMARK   10  A    between atoms: C_13  and  C_14
REMARK   11  A    between atoms: C_14  and  O_16
REMARK                            x       y       z     vdW  Elec       q    Type
REMARK                         _______ _______ _______ _____ _____    ______ ____
ROOT
ATOM      1  N   UNL     1       5.198   4.564  18.031  0.00  0.00    +0.000 N 
ATOM      2  C   UNL     1       4.251   3.578  18.167  0.00  0.00    +0.000 C 
ATOM      3  O   UNL     1       3.662   3.079  17.212  0.00  0.00    +0.000 OA
ATOM      4  H   UNL     1       5.449   5.060  18.885  0.00  0.00    +0.000 HD
ENDROOT
BRANCH   1   5
ATOM      5  C   UNL     1       5.583   5.102  16.734  0.00  0.00    +0.000 C 
ATOM      6  C   UNL     1       4.845   6.407  16.460  0.00  0.00    +0.000 C 
BRANCH   5   7
ATOM      7  C   UNL     1       7.089   5.369  16.645  0.00  0.00    +0.000 C 
ATOM      8  O   UNL     1       7.958   4.509  16.628  0.00  0.00    +0.000 OA
BRANCH   7   9
ATOM      9  O   UNL     1       7.304   6.716  16.741  0.00  0.00    +0.000 OA
BRANCH   9  11
ATOM     10  C   UNL     1       8.061   8.672  17.864  0.00  0.00    +0.000 C 
ATOM     11  C   UNL     1       7.820   7.179  17.995  0.00  0.00    +0.000 C 
ENDBRANCH   9  11
ENDBRANCH   7   9
ENDBRANCH   5   7
ENDBRANCH   1   5
BRANCH   2  12
ATOM     12  C   UNL     1       4.030   3.098  19.617  0.00  0.00    +0.000 C 
BRANCH  12  13
ATOM     13  N   UNL     1       5.057   2.086  19.980  0.00  0.00    +0.000 NA
ATOM     14  H   UNL     1       4.601   1.183  20.122  0.00  0.00    +0.000 HD
ATOM     15  H   UNL     1       5.414   2.347  20.910  0.00  0.00    +0.000 HD
ENDBRANCH  12  13
BRANCH  12  16
ATOM     16  C   UNL     1       2.601   2.544  19.709  0.00  0.00    +0.000 C 
BRANCH  16  17
ATOM     17  C   UNL     1       2.013   2.686  21.086  0.00  0.00    +0.000 C 
ATOM     18  O   UNL     1       2.620   2.545  22.132  0.00  0.00    +0.000 OA
BRANCH  17  19
ATOM     19  O   UNL     1       0.682   2.958  21.056  0.00  0.00    +0.000 OA
ATOM     20  H   UNL     1       0.294   3.155  21.930  0.00  0.00    +0.000 HD
ENDBRANCH  17  19
ENDBRANCH  16  17
ENDBRANCH  12  16
ENDBRANCH   2  12
TORSDOF 9
ENDMDL
MODEL 3
REMARK VINA RESULT:      -6.1      2.359      3.152
REMARK  Name = 
REMARK  11 active torsions:
REMARK  status: ('A' for Active; 'I' for Inactive)
REMARK    1  A    between atoms: C_1  and  C_2
REMARK    2  A    between atoms: C_2  and  O_3
REMARK    3  A    between atoms: O_3  and  C_4
REMARK    4  A    between atoms: C_4  and  C_6
REMARK    5  A    between atoms: C_6  and  C_7
REMARK    6  A    between atoms: C_6  and  N_8
REMARK    7  A    between atoms: C_9  and  C_11
REMARK    8  A    between atoms: C_11  and  N_12
REMARK    9  A    between atoms: C_11  and  C_13
REMARK   10  A    between atoms: C_13  and  C_14
REMARK   11  A    between atoms: C_14  and  O_16
REMARK                            x       y       z     vdW  Elec       q    Type
REMARK                         _______ _______ _______ _____ _____    ______ ____
ROOT
ATOM      1  N   UNL     1       4.517   4.097  17.648  0.00  0.00    +0.000 N 
ATOM      2  C   UNL     1       5.300   4.520  16.600  0.00  0.00    +0.000 C 
ATOM      3  O   UNL     1       5.084   4.203  15.434  0.00  0.00    +0.000 OA
ATOM      4  H   UNL     1       4.913   4.225  18.578  0.00  0.00    +0.000 HD
ENDROOT
BRANCH   1   5
ATOM      5  C   UNL     1       3.361   3.232  17.459  0.00  0.00    +0.000 C 
ATOM      6  C   UNL     1       3.579   1.895  18.157  0.00  0.00    +0.000 C 
BRANCH   5   7
ATOM      7  C   UNL     1       2.076   3.860  18.006  0.00  0.00    +0.000 C 
ATOM      8  O   UNL     1       1.087   4.135  17.342  0.00  0.00    +0.000 OA
BRANCH   7   9
ATOM      9  O   UNL     1       2.274   4.199  19.316  0.00  0.00    +0.000 OA
BRANCH   9  11
ATOM     10  C   UNL     1       1.307   2.877  21.041  0.00  0.00    +0.000 C 
ATOM     11  C   UNL     1       1.125   4.104  20.167  0.00  0.00    +0.000 C 
ENDBRANCH   9  11
ENDBRANCH   7   9
ENDBRANCH   5   7
ENDBRANCH   1   5
BRANCH   2  12
ATOM     12  C   UNL     1       6.438   5.482  17.000  0.00  0.00    +0.000 C 
BRANCH  12  13
ATOM     13  N   UNL     1       7.339   5.713  15.840  0.00  0.00    +0.000 NA
ATOM     14  H   UNL     1       8.171   5.128  15.941  0.00  0.00    +0.000 HD
ATOM     15  H   UNL     1       7.687   6.678  15.922  0.00  0.00    +0.000 HD
ENDBRANCH  12  13
BRANCH  12  16
ATOM     16  C   UNL     1       7.170   4.861  18.198  0.00  0.00    +0.000 C 
BRANCH  16  17
ATOM     17  C   UNL     1       7.810   5.895  19.084  0.00  0.00    +0.000 C 
ATOM     18  O   UNL     1       8.214   6.985  18.722  0.00  0.00    +0.000 OA
BRANCH  17  19
ATOM     19  O   UNL     1       7.936   5.470  20.369  0.00  0.00    +0.000 OA
ATOM     20  H   UNL     1       7.355   4.719  20.599  0.00  0.00    +0.000 HD
ENDBRANCH  17  19
ENDBRANCH  16  17
ENDBRANCH  12  16
ENDBRANCH   2  12
TORSDOF 9
ENDMDL
MODEL 4
REMARK VINA RESULT:      -6.1      1.780      5.884
REMARK  Name = 
REMARK  11 active torsions:
REMARK  status: ('A' for Active; 'I' for Inactive)
REMARK    1  A    between atoms: C_1  and  C_2
REMARK    2  A    between atoms: C_2  and  O_3
REMARK    3  A    between atoms: O_3  and  C_4
REMARK    4  A    between atoms: C_4  and  C_6
REMARK    5  A    between atoms: C_6  and  C_7
REMARK    6  A    between atoms: C_6  and  N_8
REMARK    7  A    between atoms: C_9  and  C_11
REMARK    8  A    between atoms: C_11  and  N_12
REMARK    9  A    between atoms: C_11  and  C_13
REMARK   10  A    between atoms: C_13  and  C_14
REMARK   11  A    between atoms: C_14  and  O_16
REMARK                            x       y       z     vdW  Elec       q    Type
REMARK                         _______ _______ _______ _____ _____    ______ ____
ROOT
ATOM      1  N   UNL     1       5.545   3.741  18.859  0.00  0.00    +0.000 N 
ATOM      2  C   UNL     1       4.195   3.668  19.106  0.00  0.00    +0.000 C 
ATOM      3  O   UNL     1       3.428   4.607  18.915  0.00  0.00    +0.000 OA
ATOM      4  H   UNL     1       6.111   2.997  19.264  0.00  0.00    +0.000 HD
ENDROOT
BRANCH   1   5
ATOM      5  C   UNL     1       6.180   4.947  18.347  0.00  0.00    +0.000 C 
ATOM      6  C   UNL     1       7.129   5.530  19.387  0.00  0.00    +0.000 C 
BRANCH   5   7
ATOM      7  C   UNL     1       6.972   4.681  17.064  0.00  0.00    +0.000 C 
ATOM      8  O   UNL     1       8.111   4.238  17.016  0.00  0.00    +0.000 OA
BRANCH   7   9
ATOM      9  O   UNL     1       6.260   5.159  15.999  0.00  0.00    +0.000 OA
BRANCH   9  11
ATOM     10  C   UNL     1       6.120   3.980  13.937  0.00  0.00    +0.000 C 
ATOM     11  C   UNL     1       5.470   4.195  15.292  0.00  0.00    +0.000 C 
ENDBRANCH   9  11
ENDBRANCH   7   9
ENDBRANCH   5   7
ENDBRANCH   1   5
BRANCH   2  12
ATOM     12  C   UNL     1       3.706   2.285  19.584  0.00  0.00    +0.000 C 
BRANCH  12  13
ATOM     13  N   UNL     1       4.310   1.215  18.748  0.00  0.00    +0.000 NA
ATOM     14  H   UNL     1       4.851   0.588  19.346  0.00  0.00    +0.000 HD
ATOM     15  H   UNL     1       5.011   1.669  18.146  0.00  0.00    +0.000 HD
ENDBRANCH  12  13
BRANCH  12  16
ATOM     16  C   UNL     1       2.172   2.288  19.516  0.00  0.00    +0.000 C 
BRANCH  16  17
ATOM     17  C   UNL     1       1.538   2.838  20.765  0.00  0.00    +0.000 C 
ATOM     18  O   UNL     1       1.748   2.443  21.897  0.00  0.00    +0.000 OA
BRANCH  17  19
ATOM     19  O   UNL     1       0.647   3.829  20.500  0.00  0.00    +0.000 OA
ATOM     20  H   UNL     1       0.021   3.621  19.779  0.00  0.00    +0.000 HD
ENDBRANCH  17  19
ENDBRANCH  16  17
ENDBRANCH  12  16
ENDBRANCH   2  12
TORSDOF 9
ENDMDL
MODEL 5
REMARK VINA RESULT:      -6.0      2.372      3.001
REMARK  Name = 
REMARK  11 active torsions:
REMARK  status: ('A' for Active; 'I' for Inactive)
REMARK    1  A    between atoms: C_1  and  C_2
REMARK    2  A    between atoms: C_2  and  O_3
REMARK    3  A    between atoms: O_3  and  C_4
REMARK    4  A    between atoms: C_4  and  C_6
REMARK    5  A    between atoms: C_6  and  C_7
REMARK    6  A    between atoms: C_6  and  N_8
REMARK    7  A    between atoms: C_9  and  C_11
REMARK    8  A    between atoms: C_11  and  N_12
REMARK    9  A    between atoms: C_11  and  C_13
REMARK   10  A    between atoms: C_13  and  C_14
REMARK   11  A    between atoms: C_14  and  O_16
REMARK                            x       y       z     vdW  Elec       q    Type
REMARK                         _______ _______ _______ _____ _____    ______ ____
ROOT
ATOM      1  N   UNL     1       4.187   4.792  17.612  0.00  0.00    +0.000 N 
ATOM      2  C   UNL     1       5.471   4.437  17.950  0.00  0.00    +0.000 C 
ATOM      3  O   UNL     1       5.872   4.401  19.110  0.00  0.00    +0.000 OA
ATOM      4  H   UNL     1       4.031   5.010  16.629  0.00  0.00    +0.000 HD
ENDROOT
BRANCH   1   5
ATOM      5  C   UNL     1       3.190   5.157  18.609  0.00  0.00    +0.000 C 
ATOM      6  C   UNL     1       2.845   6.636  18.497  0.00  0.00    +0.000 C 
BRANCH   5   7
ATOM      7  C   UNL     1       1.901   4.345  18.458  0.00  0.00    +0.000 C 
ATOM      8  O   UNL     1       1.458   3.913  17.403  0.00  0.00    +0.000 OA
BRANCH   7   9
ATOM      9  O   UNL     1       1.254   4.315  19.663  0.00  0.00    +0.000 OA
BRANCH   9  11
ATOM     10  C   UNL     1       1.869   2.995  21.544  0.00  0.00    +0.000 C 
ATOM     11  C   UNL     1       1.080   3.019  20.247  0.00  0.00    +0.000 C 
ENDBRANCH   9  11
ENDBRANCH   7   9
ENDBRANCH   5   7
ENDBRANCH   1   5
BRANCH   2  12
ATOM     12  C   UNL     1       6.356   4.023  16.756  0.00  0.00    +0.000 C 
BRANCH  12  13
ATOM     13  N   UNL     1       7.787   4.279  17.070  0.00  0.00    +0.000 NA
ATOM     14  H   UNL     1       8.284   4.505  16.207  0.00  0.00    +0.000 HD
ATOM     15  H   UNL     1       8.188   3.382  17.375  0.00  0.00    +0.000 HD
ENDBRANCH  12  13
BRANCH  12  16
ATOM     16  C   UNL     1       5.875   4.810  15.528  0.00  0.00    +0.000 C 
BRANCH  16  17
ATOM     17  C   UNL     1       6.801   4.670  14.351  0.00  0.00    +0.000 C 
ATOM     18  O   UNL     1       7.723   5.418  14.083  0.00  0.00    +0.000 OA
BRANCH  17  19
ATOM     19  O   UNL     1       6.478   3.612  13.562  0.00  0.00    +0.000 OA
ATOM     20  H   UNL     1       7.236   3.228  13.078  0.00  0.00    +0.000 HD
ENDBRANCH  17  19
ENDBRANCH  16  17
ENDBRANCH  12  16
ENDBRANCH   2  12
TORSDOF 9
ENDMDL
MODEL 6
REMARK VINA RESULT:      -6.0      2.163      5.573
REMARK  Name = 
REMARK  11 active torsions:
REMARK  status: ('A' for Active; 'I' for Inactive)
REMARK    1  A    between atoms: C_1  and  C_2
REMARK    2  A    between atoms: C_2  and  O_3
REMARK    3  A    between atoms: O_3  and  C_4
REMARK    4  A    between atoms: C_4  and  C_6
REMARK    5  A    between atoms: C_6  and  C_7
REMARK    6  A    between atoms: C_6  and  N_8
REMARK    7  A    between atoms: C_9  and  C_11
REMARK    8  A    between atoms: C_11  and  N_12
REMARK    9  A    between atoms: C_11  and  C_13
REMARK   10  A    between atoms: C_13  and  C_14
REMARK   11  A    between atoms: C_14  and  O_16
REMARK                            x       y       z     vdW  Elec       q    Type
REMARK                         _______ _______ _______ _____ _____    ______ ____
ROOT
ATOM      1  N   UNL     1       5.350   3.949  17.259  0.00  0.00    +0.000 N 
ATOM      2  C   UNL     1       5.432   3.973  18.630  0.00  0.00    +0.000 C 
ATOM      3  O   UNL     1       6.384   4.457  19.235  0.00  0.00    +0.000 OA
ATOM      4  H   UNL     1       4.643   3.329  16.867  0.00  0.00    +0.000 HD
ENDROOT
BRANCH   1   5
ATOM      5  C   UNL     1       6.393   4.499  16.405  0.00  0.00    +0.000 C 
ATOM      6  C   UNL     1       6.304   3.902  15.006  0.00  0.00    +0.000 C 
BRANCH   5   7
ATOM      7  C   UNL     1       6.297   6.023  16.288  0.00  0.00    +0.000 C 
ATOM      8  O   UNL     1       5.322   6.640  15.885  0.00  0.00    +0.000 OA
BRANCH   7   9
ATOM      9  O   UNL     1       7.524   6.564  16.561  0.00  0.00    +0.000 OA
BRANCH   9  11
ATOM     10  C   UNL     1       7.910   8.629  17.677  0.00  0.00    +0.000 C 
ATOM     11  C   UNL     1       7.677   7.141  17.864  0.00  0.00    +0.000 C 
ENDBRANCH   9  11
ENDBRANCH   7   9
ENDBRANCH   5   7
ENDBRANCH   1   5
BRANCH   2  12
ATOM     12  C   UNL     1       4.197   3.398  19.356  0.00  0.00    +0.000 C 
BRANCH  12  13
ATOM     13  N   UNL     1       4.070   1.945  19.070  0.00  0.00    +0.000 NA
ATOM     14  H   UNL     1       4.988   1.505  19.154  0.00  0.00    +0.000 HD
ATOM     15  H   UNL     1       3.831   1.859  18.072  0.00  0.00    +0.000 HD
ENDBRANCH  12  13
BRANCH  12  16
ATOM     16  C   UNL     1       2.972   4.198  18.889  0.00  0.00    +0.000 C 
BRANCH  16  17
ATOM     17  C   UNL     1       2.052   3.390  18.015  0.00  0.00    +0.000 C 
ATOM     18  O   UNL     1       2.202   3.190  16.824  0.00  0.00    +0.000 OA
BRANCH  17  19
ATOM     19  O   UNL     1       0.976   2.915  18.697  0.00  0.00    +0.000 OA
ATOM     20  H   UNL     1       1.069   1.990  18.996  0.00  0.00    +0.000 HD
ENDBRANCH  17  19
ENDBRANCH  16  17
ENDBRANCH  12  16
ENDBRANCH   2  12
TORSDOF 9
ENDMDL
MODEL 7
REMARK VINA RESULT:      -6.0      1.941      2.326
REMARK  Name = 
REMARK  11 active torsions:
REMARK  status: ('A' for Active; 'I' for Inactive)
REMARK    1  A    between atoms: C_1  and  C_2
REMARK    2  A    between atoms: C_2  and  O_3
REMARK    3  A    between atoms: O_3  and  C_4
REMARK    4  A    between atoms: C_4  and  C_6
REMARK    5  A    between atoms: C_6  and  C_7
REMARK    6  A    between atoms: C_6  and  N_8
REMARK    7  A    between atoms: C_9  and  C_11
REMARK    8  A    between atoms: C_11  and  N_12
REMARK    9  A    between atoms: C_11  and  C_13
REMARK   10  A    between atoms: C_13  and  C_14
REMARK   11  A    between atoms: C_14  and  O_16
REMARK                            x       y       z     vdW  Elec       q    Type
REMARK                         _______ _______ _______ _____ _____    ______ ____
ROOT
ATOM      1  N   UNL     1       5.092   5.581  18.549  0.00  0.00    +0.000 N 
ATOM      2  C   UNL     1       6.443   5.573  18.795  0.00  0.00    +0.000 C 
ATOM      3  O   UNL     1       6.922   5.313  19.895  0.00  0.00    +0.000 OA
ATOM      4  H   UNL     1       4.801   6.029  17.681  0.00  0.00    +0.000 HD
ENDROOT
BRANCH   1   5
ATOM      5  C   UNL     1       4.109   5.278  19.580  0.00  0.00    +0.000 C 
ATOM      6  C   UNL     1       2.897   6.192  19.442  0.00  0.00    +0.000 C 
BRANCH   5   7
ATOM      7  C   UNL     1       3.631   3.825  19.511  0.00  0.00    +0.000 C 
ATOM      8  O   UNL     1       4.358   2.846  19.426  0.00  0.00    +0.000 OA
BRANCH   7   9
ATOM      9  O   UNL     1       2.267   3.814  19.407  0.00  0.00    +0.000 OA
BRANCH   9  11
ATOM     10  C   UNL     1       1.511   2.821  21.432  0.00  0.00    +0.000 C 
ATOM     11  C   UNL     1       1.610   2.652  19.927  0.00  0.00    +0.000 C 
ENDBRANCH   9  11
ENDBRANCH   7   9
ENDBRANCH   5   7
ENDBRANCH   1   5
BRANCH   2  12
ATOM     12  C   UNL     1       7.321   5.857  17.558  0.00  0.00    +0.000 C 
BRANCH  12  13
ATOM     13  N   UNL     1       6.838   7.078  16.860  0.00  0.00    +0.000 NA
ATOM     14  H   UNL     1       6.648   6.851  15.883  0.00  0.00    +0.000 HD
ATOM     15  H   UNL     1       7.631   7.733  16.827  0.00  0.00    +0.000 HD
ENDBRANCH  12  13
BRANCH  12  16
ATOM     16  C   UNL     1       7.274   4.611  16.662  0.00  0.00    +0.000 C 
BRANCH  16  17
ATOM     17  C   UNL     1       6.752   4.910  15.282  0.00  0.00    +0.000 C 
ATOM     18  O   UNL     1       5.597   4.776  14.919  0.00  0.00    +0.000 OA
BRANCH  17  19
ATOM     19  O   UNL     1       7.731   5.323  14.436  0.00  0.00    +0.000 OA
ATOM     20  H   UNL     1       8.540   5.637  14.885  0.00  0.00    +0.000 HD
ENDBRANCH  17  19
ENDBRANCH  16  17
ENDBRANCH  12  16
ENDBRANCH   2  12
TORSDOF 9
ENDMDL
MODEL 8
REMARK VINA RESULT:      -5.9      0.972      1.061
REMARK  Name = 
REMARK  11 active torsions:
REMARK  status: ('A' for Active; 'I' for Inactive)
REMARK    1  A    between atoms: C_1  and  C_2
REMARK    2  A    between atoms: C_2  and  O_3
REMARK    3  A    between atoms: O_3  and  C_4
REMARK    4  A    between atoms: C_4  and  C_6
REMARK    5  A    between atoms: C_6  and  C_7
REMARK    6  A    between atoms: C_6  and  N_8
REMARK    7  A    between atoms: C_9  and  C_11
REMARK    8  A    between atoms: C_11  and  N_12
REMARK    9  A    between atoms: C_11  and  C_13
REMARK   10  A    between atoms: C_13  and  C_14
REMARK   11  A    between atoms: C_14  and  O_16
REMARK                            x       y       z     vdW  Elec       q    Type
REMARK                         _______ _______ _______ _____ _____    ______ ____
ROOT
ATOM      1  N   UNL     1       5.093   3.407  18.244  0.00  0.00    +0.000 N 
ATOM      2  C   UNL     1       5.713   4.580  18.604  0.00  0.00    +0.000 C 
ATOM      3  O   UNL     1       5.208   5.395  19.370  0.00  0.00    +0.000 OA
ATOM      4  H   UNL     1       5.490   2.924  17.439  0.00  0.00    +0.000 HD
ENDROOT
BRANCH   1   5
ATOM      5  C   UNL     1       3.777   3.034  18.744  0.00  0.00    +0.000 C 
ATOM      6  C   UNL     1       3.124   2.018  17.815  0.00  0.00    +0.000 C 
BRANCH   5   7
ATOM      7  C   UNL     1       3.845   2.431  20.150  0.00  0.00    +0.000 C 
ATOM      8  O   UNL     1       4.838   1.924  20.653  0.00  0.00    +0.000 OA
BRANCH   7   9
ATOM      9  O   UNL     1       2.587   2.417  20.685  0.00  0.00    +0.000 OA
BRANCH   9  11
ATOM     10  C   UNL     1       1.124   4.290  20.589  0.00  0.00    +0.000 C 
ATOM     11  C   UNL     1       2.199   3.595  21.403  0.00  0.00    +0.000 C 
ENDBRANCH   9  11
ENDBRANCH   7   9
ENDBRANCH   5   7
ENDBRANCH   1   5
BRANCH   2  12
ATOM     12  C   UNL     1       7.129   4.761  18.018  0.00  0.00    +0.000 C 
BRANCH  12  13
ATOM     13  N   UNL     1       8.035   5.337  19.046  0.00  0.00    +0.000 NA
ATOM     14  H   UNL     1       7.652   5.146  19.974  0.00  0.00    +0.000 HD
ATOM     15  H   UNL     1       7.982   6.360  18.948  0.00  0.00    +0.000 HD
ENDBRANCH  12  13
BRANCH  12  16
ATOM     16  C   UNL     1       7.004   5.657  16.777  0.00  0.00    +0.000 C 
BRANCH  16  17
ATOM     17  C   UNL     1       6.946   4.868  15.497  0.00  0.00    +0.000 C 
ATOM     18  O   UNL     1       6.333   3.828  15.335  0.00  0.00    +0.000 OA
BRANCH  17  19
ATOM     19  O   UNL     1       7.698   5.423  14.511  0.00  0.00    +0.000 OA
ATOM     20  H   UNL     1       8.228   6.192  14.798  0.00  0.00    +0.000 HD
ENDBRANCH  17  19
ENDBRANCH  16  17
ENDBRANCH  12  16
ENDBRANCH   2  12
TORSDOF 9
ENDMDL
MODEL 9
REMARK VINA RESULT:      -5.9      2.275      6.131
REMARK  Name = 
REMARK  11 active torsions:
REMARK  status: ('A' for Active; 'I' for Inactive)
REMARK    1  A    between atoms: C_1  and  C_2
REMARK    2  A    between atoms: C_2  and  O_3
REMARK    3  A    between atoms: O_3  and  C_4
REMARK    4  A    between atoms: C_4  and  C_6
REMARK    5  A    between atoms: C_6  and  C_7
REMARK    6  A    between atoms: C_6  and  N_8
REMARK    7  A    between atoms: C_9  and  C_11
REMARK    8  A    between atoms: C_11  and  N_12
REMARK    9  A    between atoms: C_11  and  C_13
REMARK   10  A    between atoms: C_13  and  C_14
REMARK   11  A    between atoms: C_14  and  O_16
REMARK                            x       y       z     vdW  Elec       q    Type
REMARK                         _______ _______ _______ _____ _____    ______ ____
ROOT
ATOM      1  N   UNL     1       4.790   3.932  18.311  0.00  0.00    +0.000 N 
ATOM      2  C   UNL     1       3.596   3.278  18.120  0.00  0.00    +0.000 C 
ATOM      3  O   UNL     1       2.951   3.354  17.079  0.00  0.00    +0.000 OA
ATOM      4  H   UNL     1       5.117   3.986  19.275  0.00  0.00    +0.000 HD
ENDROOT
BRANCH   1   5
ATOM      5  C   UNL     1       5.390   4.776  17.287  0.00  0.00    +0.000 C 
ATOM      6  C   UNL     1       5.245   6.246  17.658  0.00  0.00    +0.000 C 
BRANCH   5   7
ATOM      7  C   UNL     1       6.877   4.470  17.088  0.00  0.00    +0.000 C 
ATOM      8  O   UNL     1       7.718   4.446  17.976  0.00  0.00    +0.000 OA
BRANCH   7   9
ATOM      9  O   UNL     1       7.134   4.382  15.748  0.00  0.00    +0.000 OA
BRANCH   9  11
ATOM     10  C   UNL     1       6.477   4.030  13.488  0.00  0.00    +0.000 C 
ATOM     11  C   UNL     1       6.070   3.860  14.941  0.00  0.00    +0.000 C 
ENDBRANCH   9  11
ENDBRANCH   7   9
ENDBRANCH   5   7
ENDBRANCH   1   5
BRANCH   2  12
ATOM     12  C   UNL     1       3.161   2.383  19.300  0.00  0.00    +0.000 C 
BRANCH  12  13
ATOM     13  N   UNL     1       1.935   1.625  18.937  0.00  0.00    +0.000 NA
ATOM     14  H   UNL     1       1.429   2.134  18.211  0.00  0.00    +0.000 HD
ATOM     15  H   UNL     1       1.314   1.655  19.758  0.00  0.00    +0.000 HD
ENDBRANCH  12  13
BRANCH  12  16
ATOM     16  C   UNL     1       2.949   3.295  20.518  0.00  0.00    +0.000 C 
BRANCH  16  17
ATOM     17  C   UNL     1       1.610   3.086  21.170  0.00  0.00    +0.000 C 
ATOM     18  O   UNL     1       1.402   2.400  22.155  0.00  0.00    +0.000 OA
BRANCH  17  19
ATOM     19  O   UNL     1       0.608   3.728  20.513  0.00  0.00    +0.000 OA
ATOM     20  H   UNL     1       0.907   4.481  19.967  0.00  0.00    +0.000 HD
ENDBRANCH  17  19
ENDBRANCH  16  17
ENDBRANCH  12  16
ENDBRANCH   2  12
TORSDOF 9
ENDMDL
