MODEL 1
REMARK VINA RESULT:      -6.1      0.000      0.000
REMARK  Name = 
REMARK  7 active torsions:
REMARK  status: ('A' for Active; 'I' for Inactive)
REMARK    1  A    between atoms: N_1  and  CA_2
REMARK    2  A    between atoms: CA_2  and  C_3
REMARK    3  A    between atoms: CA_2  and  C_12
REMARK    4  A    between atoms: C_3  and  N_4
REMARK    5  A    between atoms: N_4  and  C_5
REMARK    6  A    between atoms: C_8  and  O_9
REMARK    7  A    between atoms: C_12  and  OXT_14
REMARK                            x       y       z     vdW  Elec       q    Type
REMARK                         _______ _______ _______ _____ _____    ______ ____
ROOT
ATOM      1  N   UNL     1       5.043   3.562  16.872  0.00  0.00    +0.000 N 
ATOM      2  H   UNL     1       5.792   2.860  16.973  0.00  0.00    +0.000 HD
ENDROOT
BRANCH   1   3
ATOM      3  C   UNL     1       3.782   3.317  17.499  0.00  0.00    +0.000 A 
ATOM      4  C   UNL     1       2.748   4.278  17.487  0.00  0.00    +0.000 A 
ATOM      5  C   UNL     1       1.523   4.017  18.101  0.00  0.00    +0.000 A 
ATOM      6  C   UNL     1       1.303   2.795  18.745  0.00  0.00    +0.000 A 
ATOM      7  C   UNL     1       2.319   1.834  18.768  0.00  0.00    +0.000 A 
ATOM      8  C   UNL     1       3.548   2.090  18.149  0.00  0.00    +0.000 A 
BRANCH   6   9
ATOM      9  O   UNL     1       0.122   2.534  19.342  0.00  0.00    +0.000 OA
ATOM     10  H   UNL     1      -0.401   1.749  19.121  0.00  0.00    +0.000 HD
ENDBRANCH   6   9
ENDBRANCH   1   3
BRANCH   1  11
ATOM     11  C   UNL     1       5.289   4.770  16.100  0.00  0.00    +0.000 C 
BRANCH  11  12
ATOM     12  CA  UNL     1       6.635   5.459  16.426  0.00  0.00    +0.000 C 
BRANCH  12  13
ATOM     13  N   UNL     1       7.573   5.435  15.300  0.00  0.00    +0.000 NA
ATOM     14  H1  UNL     1       7.963   6.386  15.120  0.00  0.00    +0.000 HD
ATOM     15  H2  UNL     1       7.110   5.077  14.434  0.00  0.00    +0.000 HD
ENDBRANCH  12  13
BRANCH  12  16
ATOM     16  C   UNL     1       7.271   4.767  17.612  0.00  0.00    +0.000 C 
ATOM     17  O   UNL     1       8.282   4.100  17.451  0.00  0.00    +0.000 OA
BRANCH  16  18
ATOM     18  OXT UNL     1       6.748   4.876  18.854  0.00  0.00    +0.000 OA
ATOM     19  HXT UNL     1       6.068   4.272  19.185  0.00  0.00    +0.000 HD
ENDBRANCH  16  18
ENDBRANCH  12  16
ENDBRANCH  11  12
ENDBRANCH   1  11
TORSDOF 7
ENDMDL
MODEL 2
REMARK VINA RESULT:      -6.0      0.860      1.190
REMARK  Name = 
REMARK  7 active torsions:
REMARK  status: ('A' for Active; 'I' for Inactive)
REMARK    1  A    between atoms: N_1  and  CA_2
REMARK    2  A    between atoms: CA_2  and  C_3
REMARK    3  A    between atoms: CA_2  and  C_12
REMARK    4  A    between atoms: C_3  and  N_4
REMARK    5  A    between atoms: N_4  and  C_5
REMARK    6  A    between atoms: C_8  and  O_9
REMARK    7  A    between atoms: C_12  and  OXT_14
REMARK                            x       y       z     vdW  Elec       q    Type
REMARK                         _______ _______ _______ _____ _____    ______ ____
ROOT
ATOM      1  N   UNL     1       5.115   3.425  17.216  0.00  0.00    +0.000 N 
ATOM      2  H   UNL     1       5.840   2.717  17.402  0.00  0.00    +0.000 HD
ENDROOT
BRANCH   1   3
ATOM      3  C   UNL     1       3.910   3.393  17.985  0.00  0.00    +0.000 A 
ATOM      4  C   UNL     1       2.648   3.631  17.399  0.00  0.00    +0.000 A 
ATOM      5  C   UNL     1       1.484   3.591  18.167  0.00  0.00    +0.000 A 
ATOM      6  C   UNL     1       1.552   3.316  19.537  0.00  0.00    +0.000 A 
ATOM      7  C   UNL     1       2.795   3.080  20.133  0.00  0.00    +0.000 A 
ATOM      8  C   UNL     1       3.966   3.115  19.365  0.00  0.00    +0.000 A 
BRANCH   6   9
ATOM      9  O   UNL     1       0.433   3.275  20.287  0.00  0.00    +0.000 OA
ATOM     10  H   UNL     1       0.284   3.892  21.020  0.00  0.00    +0.000 HD
ENDBRANCH   6   9
ENDBRANCH   1   3
BRANCH   1  11
ATOM     11  C   UNL     1       5.334   4.428  16.186  0.00  0.00    +0.000 C 
BRANCH  11  12
ATOM     12  CA  UNL     1       6.510   5.388  16.487  0.00  0.00    +0.000 C 
BRANCH  12  13
ATOM     13  N   UNL     1       7.468   5.476  15.382  0.00  0.00    +0.000 NA
ATOM     14  H1  UNL     1       7.161   4.889  14.575  0.00  0.00    +0.000 HD
ATOM     15  H2  UNL     1       8.422   5.177  15.689  0.00  0.00    +0.000 HD
ENDBRANCH  12  13
BRANCH  12  16
ATOM     16  C   UNL     1       7.233   4.912  17.729  0.00  0.00    +0.000 C 
ATOM     17  O   UNL     1       6.895   5.336  18.823  0.00  0.00    +0.000 OA
BRANCH  16  18
ATOM     18  OXT UNL     1       8.243   4.017  17.655  0.00  0.00    +0.000 OA
ATOM     19  HXT UNL     1       9.171   4.286  17.592  0.00  0.00    +0.000 HD
ENDBRANCH  16  18
ENDBRANCH  12  16
ENDBRANCH  11  12
ENDBRANCH   1  11
TORSDOF 7
ENDMDL
MODEL 3
REMARK VINA RESULT:      -6.0      0.594      1.421
REMARK  Name = 
REMARK  7 active torsions:
REMARK  status: ('A' for Active; 'I' for Inactive)
REMARK    1  A    between atoms: N_1  and  CA_2
REMARK    2  A    between atoms: CA_2  and  C_3
REMARK    3  A    between atoms: CA_2  and  C_12
REMARK    4  A    between atoms: C_3  and  N_4
REMARK    5  A    between atoms: N_4  and  C_5
REMARK    6  A    between atoms: C_8  and  O_9
REMARK    7  A    between atoms: C_12  and  OXT_14
REMARK                            x       y       z     vdW  Elec       q    Type
REMARK                         _______ _______ _______ _____ _____    ______ ____
ROOT
ATOM      1  N   UNL     1       5.167   3.568  17.226  0.00  0.00    +0.000 N 
ATOM      2  H   UNL     1       5.922   2.892  17.419  0.00  0.00    +0.000 HD
ENDROOT
BRANCH   1   3
ATOM      3  C   UNL     1       3.859   3.300  17.736  0.00  0.00    +0.000 A 
ATOM      4  C   UNL     1       3.559   2.103  18.421  0.00  0.00    +0.000 A 
ATOM      5  C   UNL     1       2.276   1.864  18.914  0.00  0.00    +0.000 A 
ATOM      6  C   UNL     1       1.263   2.811  18.732  0.00  0.00    +0.000 A 
ATOM      7  C   UNL     1       1.543   4.001  18.052  0.00  0.00    +0.000 A 
ATOM      8  C   UNL     1       2.831   4.247  17.560  0.00  0.00    +0.000 A 
BRANCH   6   9
ATOM      9  O   UNL     1       0.020   2.588  19.204  0.00  0.00    +0.000 OA
ATOM     10  H   UNL     1      -0.302   1.695  19.401  0.00  0.00    +0.000 HD
ENDBRANCH   6   9
ENDBRANCH   1   3
BRANCH   1  11
ATOM     11  C   UNL     1       5.453   4.762  16.447  0.00  0.00    +0.000 C 
BRANCH  11  12
ATOM     12  CA  UNL     1       6.406   5.756  17.151  0.00  0.00    +0.000 C 
BRANCH  12  13
ATOM     13  N   UNL     1       7.474   6.239  16.271  0.00  0.00    +0.000 NA
ATOM     14  H1  UNL     1       8.239   5.533  16.193  0.00  0.00    +0.000 HD
ATOM     15  H2  UNL     1       7.867   7.143  16.620  0.00  0.00    +0.000 HD
ENDBRANCH  12  13
BRANCH  12  16
ATOM     16  C   UNL     1       7.027   5.080  18.354  0.00  0.00    +0.000 C 
ATOM     17  O   UNL     1       8.012   4.372  18.207  0.00  0.00    +0.000 OA
BRANCH  16  18
ATOM     18  OXT UNL     1       6.519   5.247  19.595  0.00  0.00    +0.000 OA
ATOM     19  HXT UNL     1       6.750   4.665  20.333  0.00  0.00    +0.000 HD
ENDBRANCH  16  18
ENDBRANCH  12  16
ENDBRANCH  11  12
ENDBRANCH   1  11
TORSDOF 7
ENDMDL
MODEL 4
REMARK VINA RESULT:      -6.0      0.954      1.276
REMARK  Name = 
REMARK  7 active torsions:
REMARK  status: ('A' for Active; 'I' for Inactive)
REMARK    1  A    between atoms: N_1  and  CA_2
REMARK    2  A    between atoms: CA_2  and  C_3
REMARK    3  A    between atoms: CA_2  and  C_12
REMARK    4  A    between atoms: C_3  and  N_4
REMARK    5  A    between atoms: N_4  and  C_5
REMARK    6  A    between atoms: C_8  and  O_9
REMARK    7  A    between atoms: C_12  and  OXT_14
REMARK                            x       y       z     vdW  Elec       q    Type
REMARK                         _______ _______ _______ _____ _____    ______ ____
ROOT
ATOM      1  N   UNL     1       5.062   3.685  17.349  0.00  0.00    +0.000 N 
ATOM      2  H   UNL     1       5.779   2.947  17.409  0.00  0.00    +0.000 HD
ENDROOT
BRANCH   1   3
ATOM      3  C   UNL     1       3.859   3.539  18.108  0.00  0.00    +0.000 A 
ATOM      4  C   UNL     1       3.589   4.345  19.235  0.00  0.00    +0.000 A 
ATOM      5  C   UNL     1       2.408   4.189  19.959  0.00  0.00    +0.000 A 
ATOM      6  C   UNL     1       1.470   3.222  19.580  0.00  0.00    +0.000 A 
ATOM      7  C   UNL     1       1.724   2.413  18.467  0.00  0.00    +0.000 A 
ATOM      8  C   UNL     1       2.907   2.570  17.734  0.00  0.00    +0.000 A 
BRANCH   6   9
ATOM      9  O   UNL     1       0.326   3.063  20.274  0.00  0.00    +0.000 OA
ATOM     10  H   UNL     1      -0.308   3.788  20.392  0.00  0.00    +0.000 HD
ENDBRANCH   6   9
ENDBRANCH   1   3
BRANCH   1  11
ATOM     11  C   UNL     1       5.291   4.844  16.500  0.00  0.00    +0.000 C 
BRANCH  11  12
ATOM     12  CA  UNL     1       6.641   5.553  16.759  0.00  0.00    +0.000 C 
BRANCH  12  13
ATOM     13  N   UNL     1       7.514   5.560  15.583  0.00  0.00    +0.000 NA
ATOM     14  H1  UNL     1       8.020   4.652  15.490  0.00  0.00    +0.000 HD
ATOM     15  H2  UNL     1       8.206   6.342  15.634  0.00  0.00    +0.000 HD
ENDBRANCH  12  13
BRANCH  12  16
ATOM     16  C   UNL     1       7.355   4.858  17.899  0.00  0.00    +0.000 C 
ATOM     17  O   UNL     1       7.031   5.100  19.052  0.00  0.00    +0.000 OA
BRANCH  16  18
ATOM     18  OXT UNL     1       8.343   3.965  17.669  0.00  0.00    +0.000 OA
ATOM     19  HXT UNL     1       8.286   3.297  16.971  0.00  0.00    +0.000 HD
ENDBRANCH  16  18
ENDBRANCH  12  16
ENDBRANCH  11  12
ENDBRANCH   1  11
TORSDOF 7
ENDMDL
MODEL 5
REMARK VINA RESULT:      -5.9      1.498      1.707
REMARK  Name = 
REMARK  7 active torsions:
REMARK  status: ('A' for Active; 'I' for Inactive)
REMARK    1  A    between atoms: N_1  and  CA_2
REMARK    2  A    between atoms: CA_2  and  C_3
REMARK    3  A    between atoms: CA_2  and  C_12
REMARK    4  A    between atoms: C_3  and  N_4
REMARK    5  A    between atoms: N_4  and  C_5
REMARK    6  A    between atoms: C_8  and  O_9
REMARK    7  A    between atoms: C_12  and  OXT_14
REMARK                            x       y       z     vdW  Elec       q    Type
REMARK                         _______ _______ _______ _____ _____    ______ ____
ROOT
ATOM      1  N   UNL     1       5.270   3.910  17.568  0.00  0.00    +0.000 N 
ATOM      2  H   UNL     1       5.813   3.087  17.267  0.00  0.00    +0.000 HD
ENDROOT
BRANCH   1   3
ATOM      3  C   UNL     1       4.018   3.703  18.228  0.00  0.00    +0.000 A 
ATOM      4  C   UNL     1       2.791   3.803  17.539  0.00  0.00    +0.000 A 
ATOM      5  C   UNL     1       1.581   3.593  18.200  0.00  0.00    +0.000 A 
ATOM      6  C   UNL     1       1.567   3.283  19.565  0.00  0.00    +0.000 A 
ATOM      7  C   UNL     1       2.776   3.184  20.262  0.00  0.00    +0.000 A 
ATOM      8  C   UNL     1       3.993   3.389  19.601  0.00  0.00    +0.000 A 
BRANCH   6   9
ATOM      9  O   UNL     1       0.403   3.079  20.213  0.00  0.00    +0.000 OA
ATOM     10  H   UNL     1      -0.374   3.639  20.060  0.00  0.00    +0.000 HD
ENDBRANCH   6   9
ENDBRANCH   1   3
BRANCH   1  11
ATOM     11  C   UNL     1       5.787   5.245  17.316  0.00  0.00    +0.000 C 
BRANCH  11  12
ATOM     12  CA  UNL     1       7.313   5.377  17.528  0.00  0.00    +0.000 C 
BRANCH  12  13
ATOM     13  N   UNL     1       8.028   4.116  17.313  0.00  0.00    +0.000 NA
ATOM     14  H1  UNL     1       7.361   3.316  17.252  0.00  0.00    +0.000 HD
ATOM     15  H2  UNL     1       8.717   3.940  18.081  0.00  0.00    +0.000 HD
ENDBRANCH  12  13
BRANCH  12  16
ATOM     16  C   UNL     1       7.577   5.858  18.939  0.00  0.00    +0.000 C 
ATOM     17  O   UNL     1       7.015   5.313  19.878  0.00  0.00    +0.000 OA
BRANCH  16  18
ATOM     18  OXT UNL     1       8.429   6.877  19.187  0.00  0.00    +0.000 OA
ATOM     19  HXT UNL     1       8.720   7.104  20.082  0.00  0.00    +0.000 HD
ENDBRANCH  16  18
ENDBRANCH  12  16
ENDBRANCH  11  12
ENDBRANCH   1  11
TORSDOF 7
ENDMDL
MODEL 6
REMARK VINA RESULT:      -5.9      1.577      1.789
REMARK  Name = 
REMARK  7 active torsions:
REMARK  status: ('A' for Active; 'I' for Inactive)
REMARK    1  A    between atoms: N_1  and  CA_2
REMARK    2  A    between atoms: CA_2  and  C_3
REMARK    3  A    between atoms: CA_2  and  C_12
REMARK    4  A    between atoms: C_3  and  N_4
REMARK    5  A    between atoms: N_4  and  C_5
REMARK    6  A    between atoms: C_8  and  O_9
REMARK    7  A    between atoms: C_12  and  OXT_14
REMARK                            x       y       z     vdW  Elec       q    Type
REMARK                         _______ _______ _______ _____ _____    ______ ____
ROOT
ATOM      1  N   UNL     1       4.504   5.353  16.983  0.00  0.00    +0.000 N 
ATOM      2  H   UNL     1       4.773   4.758  16.186  0.00  0.00    +0.000 HD
ENDROOT
BRANCH   1   3
ATOM      3  C   UNL     1       3.470   4.899  17.861  0.00  0.00    +0.000 A 
ATOM      4  C   UNL     1       3.324   5.418  19.166  0.00  0.00    +0.000 A 
ATOM      5  C   UNL     1       2.306   4.965  20.005  0.00  0.00    +0.000 A 
ATOM      6  C   UNL     1       1.414   3.981  19.564  0.00  0.00    +0.000 A 
ATOM      7  C   UNL     1       1.549   3.455  18.275  0.00  0.00    +0.000 A 
ATOM      8  C   UNL     1       2.566   3.911  17.428  0.00  0.00    +0.000 A 
BRANCH   6   9
ATOM      9  O   UNL     1       0.428   3.536  20.368  0.00  0.00    +0.000 OA
ATOM     10  H   UNL     1      -0.023   4.119  20.998  0.00  0.00    +0.000 HD
ENDBRANCH   6   9
ENDBRANCH   1   3
BRANCH   1  11
ATOM     11  C   UNL     1       5.176   6.626  17.190  0.00  0.00    +0.000 C 
BRANCH  11  12
ATOM     12  CA  UNL     1       6.652   6.491  17.631  0.00  0.00    +0.000 C 
BRANCH  12  13
ATOM     13  N   UNL     1       7.549   7.385  16.894  0.00  0.00    +0.000 NA
ATOM     14  H1  UNL     1       7.161   7.607  15.951  0.00  0.00    +0.000 HD
ATOM     15  H2  UNL     1       8.499   6.959  16.789  0.00  0.00    +0.000 HD
ENDBRANCH  12  13
BRANCH  12  16
ATOM     16  C   UNL     1       7.102   5.061  17.423  0.00  0.00    +0.000 C 
ATOM     17  O   UNL     1       7.632   4.742  16.370  0.00  0.00    +0.000 OA
BRANCH  16  18
ATOM     18  OXT UNL     1       6.937   4.125  18.385  0.00  0.00    +0.000 OA
ATOM     19  HXT UNL     1       6.363   4.264  19.151  0.00  0.00    +0.000 HD
ENDBRANCH  16  18
ENDBRANCH  12  16
ENDBRANCH  11  12
ENDBRANCH   1  11
TORSDOF 7
ENDMDL
MODEL 7
REMARK VINA RESULT:      -5.8      1.341      1.904
REMARK  Name = 
REMARK  7 active torsions:
REMARK  status: ('A' for Active; 'I' for Inactive)
REMARK    1  A    between atoms: N_1  and  CA_2
REMARK    2  A    between atoms: CA_2  and  C_3
REMARK    3  A    between atoms: CA_2  and  C_12
REMARK    4  A    between atoms: C_3  and  N_4
REMARK    5  A    between atoms: N_4  and  C_5
REMARK    6  A    between atoms: C_8  and  O_9
REMARK    7  A    between atoms: C_12  and  OXT_14
REMARK                            x       y       z     vdW  Elec       q    Type
REMARK                         _______ _______ _______ _____ _____    ______ ____
ROOT
ATOM      1  N   UNL     1       4.758   5.245  16.822  0.00  0.00    +0.000 N 
ATOM      2  H   UNL     1       5.095   5.133  15.855  0.00  0.00    +0.000 HD
ENDROOT
BRANCH   1   3
ATOM      3  C   UNL     1       3.764   4.341  17.312  0.00  0.00    +0.000 A 
ATOM      4  C   UNL     1       4.012   2.956  17.426  0.00  0.00    +0.000 A 
ATOM      5  C   UNL     1       3.030   2.092  17.910  0.00  0.00    +0.000 A 
ATOM      6  C   UNL     1       1.777   2.588  18.287  0.00  0.00    +0.000 A 
ATOM      7  C   UNL     1       1.515   3.958  18.177  0.00  0.00    +0.000 A 
ATOM      8  C   UNL     1       2.500   4.830  17.696  0.00  0.00    +0.000 A 
BRANCH   6   9
ATOM      9  O   UNL     1       0.821   1.761  18.756  0.00  0.00    +0.000 OA
ATOM     10  H   UNL     1       0.871   1.369  19.641  0.00  0.00    +0.000 HD
ENDBRANCH   6   9
ENDBRANCH   1   3
BRANCH   1  11
ATOM     11  C   UNL     1       5.296   6.309  17.654  0.00  0.00    +0.000 C 
BRANCH  11  12
ATOM     12  CA  UNL     1       6.841   6.330  17.724  0.00  0.00    +0.000 C 
BRANCH  12  13
ATOM     13  N   UNL     1       7.426   7.481  17.031  0.00  0.00    +0.000 NA
ATOM     14  H1  UNL     1       7.366   8.340  17.621  0.00  0.00    +0.000 HD
ATOM     15  H2  UNL     1       6.947   7.651  16.117  0.00  0.00    +0.000 HD
ENDBRANCH  12  13
BRANCH  12  16
ATOM     16  C   UNL     1       7.381   5.058  17.106  0.00  0.00    +0.000 C 
ATOM     17  O   UNL     1       7.587   5.011  15.903  0.00  0.00    +0.000 OA
BRANCH  16  18
ATOM     18  OXT UNL     1       7.650   3.969  17.861  0.00  0.00    +0.000 OA
ATOM     19  HXT UNL     1       8.456   3.445  17.746  0.00  0.00    +0.000 HD
ENDBRANCH  16  18
ENDBRANCH  12  16
ENDBRANCH  11  12
ENDBRANCH   1  11
TORSDOF 7
ENDMDL
MODEL 8
REMARK VINA RESULT:      -5.8      1.529      1.917
REMARK  Name = 
REMARK  7 active torsions:
REMARK  status: ('A' for Active; 'I' for Inactive)
REMARK    1  A    between atoms: N_1  and  CA_2
REMARK    2  A    between atoms: CA_2  and  C_3
REMARK    3  A    between atoms: CA_2  and  C_12
REMARK    4  A    between atoms: C_3  and  N_4
REMARK    5  A    between atoms: N_4  and  C_5
REMARK    6  A    between atoms: C_8  and  O_9
REMARK    7  A    between atoms: C_12  and  OXT_14
REMARK                            x       y       z     vdW  Elec       q    Type
REMARK                         _______ _______ _______ _____ _____    ______ ____
ROOT
ATOM      1  N   UNL     1       4.683   5.315  17.261  0.00  0.00    +0.000 N 
ATOM      2  H   UNL     1       5.045   4.700  16.517  0.00  0.00    +0.000 HD
ENDROOT
BRANCH   1   3
ATOM      3  C   UNL     1       3.593   4.853  18.063  0.00  0.00    +0.000 A 
ATOM      4  C   UNL     1       3.413   5.291  19.393  0.00  0.00    +0.000 A 
ATOM      5  C   UNL     1       2.341   4.832  20.158  0.00  0.00    +0.000 A 
ATOM      6  C   UNL     1       1.427   3.922  19.616  0.00  0.00    +0.000 A 
ATOM      7  C   UNL     1       1.593   3.477  18.300  0.00  0.00    +0.000 A 
ATOM      8  C   UNL     1       2.666   3.939  17.527  0.00  0.00    +0.000 A 
BRANCH   6   9
ATOM      9  O   UNL     1       0.387   3.472  20.347  0.00  0.00    +0.000 OA
ATOM     10  H   UNL     1      -0.099   4.048  20.956  0.00  0.00    +0.000 HD
ENDBRANCH   6   9
ENDBRANCH   1   3
BRANCH   1  11
ATOM     11  C   UNL     1       5.283   6.623  17.470  0.00  0.00    +0.000 C 
BRANCH  11  12
ATOM     12  CA  UNL     1       6.811   6.580  17.707  0.00  0.00    +0.000 C 
BRANCH  12  13
ATOM     13  N   UNL     1       7.578   6.522  16.459  0.00  0.00    +0.000 NA
ATOM     14  H1  UNL     1       7.378   7.355  15.861  0.00  0.00    +0.000 HD
ATOM     15  H2  UNL     1       7.362   5.649  15.926  0.00  0.00    +0.000 HD
ENDBRANCH  12  13
BRANCH  12  16
ATOM     16  C   UNL     1       7.149   5.367  18.548  0.00  0.00    +0.000 C 
ATOM     17  O   UNL     1       6.974   5.404  19.757  0.00  0.00    +0.000 OA
BRANCH  16  18
ATOM     18  OXT UNL     1       7.635   4.237  17.989  0.00  0.00    +0.000 OA
ATOM     19  HXT UNL     1       8.583   4.050  17.937  0.00  0.00    +0.000 HD
ENDBRANCH  16  18
ENDBRANCH  12  16
ENDBRANCH  11  12
ENDBRANCH   1  11
TORSDOF 7
ENDMDL
MODEL 9
REMARK VINA RESULT:      -5.8      1.289      1.885
REMARK  Name = 
REMARK  7 active torsions:
REMARK  status: ('A' for Active; 'I' for Inactive)
REMARK    1  A    between atoms: N_1  and  CA_2
REMARK    2  A    between atoms: CA_2  and  C_3
REMARK    3  A    between atoms: CA_2  and  C_12
REMARK    4  A    between atoms: C_3  and  N_4
REMARK    5  A    between atoms: N_4  and  C_5
REMARK    6  A    between atoms: C_8  and  O_9
REMARK    7  A    between atoms: C_12  and  OXT_14
REMARK                            x       y       z     vdW  Elec       q    Type
REMARK                         _______ _______ _______ _____ _____    ______ ____
ROOT
ATOM      1  N   UNL     1       5.179   4.541  18.566  0.00  0.00    +0.000 N 
ATOM      2  H   UNL     1       5.962   4.115  19.084  0.00  0.00    +0.000 HD
ENDROOT
BRANCH   1   3
ATOM      3  C   UNL     1       3.862   4.020  18.760  0.00  0.00    +0.000 A 
ATOM      4  C   UNL     1       3.575   3.091  19.784  0.00  0.00    +0.000 A 
ATOM      5  C   UNL     1       2.282   2.598  19.960  0.00  0.00    +0.000 A 
ATOM      6  C   UNL     1       1.247   3.015  19.116  0.00  0.00    +0.000 A 
ATOM      7  C   UNL     1       1.516   3.933  18.095  0.00  0.00    +0.000 A 
ATOM      8  C   UNL     1       2.812   4.434  17.918  0.00  0.00    +0.000 A 
BRANCH   6   9
ATOM      9  O   UNL     1      -0.005   2.544  19.277  0.00  0.00    +0.000 OA
ATOM     10  H   UNL     1      -0.178   1.638  19.577  0.00  0.00    +0.000 HD
ENDBRANCH   6   9
ENDBRANCH   1   3
BRANCH   1  11
ATOM     11  C   UNL     1       5.433   5.650  17.660  0.00  0.00    +0.000 C 
BRANCH  11  12
ATOM     12  CA  UNL     1       6.887   6.175  17.705  0.00  0.00    +0.000 C 
BRANCH  12  13
ATOM     13  N   UNL     1       7.428   6.466  16.374  0.00  0.00    +0.000 NA
ATOM     14  H1  UNL     1       7.743   5.591  15.901  0.00  0.00    +0.000 HD
ATOM     15  H2  UNL     1       8.227   7.139  16.433  0.00  0.00    +0.000 HD
ENDBRANCH  12  13
BRANCH  12  16
ATOM     16  C   UNL     1       7.766   5.143  18.379  0.00  0.00    +0.000 C 
ATOM     17  O   UNL     1       8.088   5.295  19.547  0.00  0.00    +0.000 OA
BRANCH  16  18
ATOM     18  OXT UNL     1       8.199   4.047  17.716  0.00  0.00    +0.000 OA
ATOM     19  HXT UNL     1       8.249   4.012  16.750  0.00  0.00    +0.000 HD
ENDBRANCH  16  18
ENDBRANCH  12  16
ENDBRANCH  11  12
ENDBRANCH   1  11
TORSDOF 7
ENDMDL
