MODEL 1
REMARK VINA RESULT:      -7.5      0.000      0.000
REMARK  Name = 
REMARK  2 active torsions:
REMARK  status: ('A' for Active; 'I' for Inactive)
REMARK    1  A    between atoms: C_2  and  C_17
REMARK    2  A    between atoms: N_3  and  C_4
REMARK                            x       y       z     vdW  Elec       q    Type
REMARK                         _______ _______ _______ _____ _____    ______ ____
ROOT
ATOM      1  C   UNL     1       7.653   6.898  18.569  0.00  0.00    +0.000 A 
ATOM      2  C   UNL     1       6.662   6.812  17.621  0.00  0.00    +0.000 A 
ATOM      3  N   UNL     1       5.759   5.813  17.562  0.00  0.00    +0.000 NA
ATOM      4  C   UNL     1       5.807   4.852  18.500  0.00  0.00    +0.000 A 
ATOM      5  N   UNL     1       4.854   3.856  18.439  0.00  0.00    +0.000 N 
ATOM      6  C   UNL     1       4.315   3.535  17.128  0.00  0.00    +0.000 C 
ATOM      7  C   UNL     1       2.889   4.062  17.011  0.00  0.00    +0.000 C 
ATOM      8  C   UNL     1       1.864   3.209  17.755  0.00  0.00    +0.000 C 
ATOM      9  C   UNL     1       2.145   3.004  19.246  0.00  0.00    +0.000 C 
ATOM     10  C   UNL     1       3.392   2.159  19.527  0.00  0.00    +0.000 C 
ATOM     11  C   UNL     1       4.707   2.950  19.560  0.00  0.00    +0.000 C 
ATOM     12  N   UNL     1       6.736   4.846  19.471  0.00  0.00    +0.000 NA
ATOM     13  C   UNL     1       7.644   5.850  19.470  0.00  0.00    +0.000 A 
ENDROOT
BRANCH   1  16
ATOM     14  O   UNL     1       7.386   9.639  17.671  0.00  0.00    +0.000 OA
ATOM     15  C   UNL     1       8.397   9.242  18.246  0.00  0.00    +0.000 C 
ATOM     16  N   UNL     1       8.603   7.939  18.669  0.00  0.00    +0.000 N 
ATOM     17  H   UNL     1       9.457   7.735  19.174  0.00  0.00    +0.000 HD
BRANCH  15  18
ATOM     18  C   UNL     1       9.561  10.177  18.525  0.00  0.00    +0.000 C 
ATOM     19  C   UNL     1       9.351  11.547  17.879  0.00  0.00    +0.000 C 
ATOM     20  C   UNL     1      10.293  12.470  18.632  0.00  0.00    +0.000 C 
ATOM     21  C   UNL     1      10.402  11.890  20.038  0.00  0.00    +0.000 C 
ATOM     22  C   UNL     1       9.719  10.525  20.003  0.00  0.00    +0.000 C 
ENDBRANCH  15  18
ENDBRANCH   1  16
TORSDOF 2
ENDMDL
MODEL 2
REMARK VINA RESULT:      -7.4      6.065      7.693
REMARK  Name = 
REMARK  2 active torsions:
REMARK  status: ('A' for Active; 'I' for Inactive)
REMARK    1  A    between atoms: C_2  and  C_17
REMARK    2  A    between atoms: N_3  and  C_4
REMARK                            x       y       z     vdW  Elec       q    Type
REMARK                         _______ _______ _______ _____ _____    ______ ____
ROOT
ATOM      1  C   UNL     1       2.834   7.451  18.476  0.00  0.00    +0.000 A 
ATOM      2  C   UNL     1       2.238   8.526  17.861  0.00  0.00    +0.000 A 
ATOM      3  N   UNL     1       1.325   9.322  18.452  0.00  0.00    +0.000 NA
ATOM      4  C   UNL     1       0.990   9.073  19.728  0.00  0.00    +0.000 A 
ATOM      5  N   UNL     1       0.077   9.919  20.323  0.00  0.00    +0.000 N 
ATOM      6  C   UNL     1      -0.894  10.562  19.453  0.00  0.00    +0.000 C 
ATOM      7  C   UNL     1      -0.549  12.039  19.295  0.00  0.00    +0.000 C 
ATOM      8  C   UNL     1      -0.926  12.883  20.511  0.00  0.00    +0.000 C 
ATOM      9  C   UNL     1      -0.320  12.422  21.839  0.00  0.00    +0.000 C 
ATOM     10  C   UNL     1      -0.858  11.070  22.324  0.00  0.00    +0.000 C 
ATOM     11  C   UNL     1      -0.122   9.849  21.757  0.00  0.00    +0.000 C 
ATOM     12  N   UNL     1       1.517   8.048  20.420  0.00  0.00    +0.000 NA
ATOM     13  C   UNL     1       2.405   7.253  19.774  0.00  0.00    +0.000 A 
ENDROOT
BRANCH   1  16
ATOM     14  O   UNL     1       2.531   4.686  17.665  0.00  0.00    +0.000 OA
ATOM     15  C   UNL     1       3.583   5.298  17.498  0.00  0.00    +0.000 C 
ATOM     16  N   UNL     1       3.806   6.608  17.892  0.00  0.00    +0.000 N 
ATOM     17  H   UNL     1       4.698   7.026  17.661  0.00  0.00    +0.000 HD
BRANCH  15  18
ATOM     18  C   UNL     1       4.783   4.635  16.843  0.00  0.00    +0.000 C 
ATOM     19  C   UNL     1       5.288   5.441  15.645  0.00  0.00    +0.000 C 
ATOM     20  C   UNL     1       6.710   4.952  15.431  0.00  0.00    +0.000 C 
ATOM     21  C   UNL     1       7.216   4.539  16.810  0.00  0.00    +0.000 C 
ATOM     22  C   UNL     1       6.011   4.573  17.747  0.00  0.00    +0.000 C 
ENDBRANCH  15  18
ENDBRANCH   1  16
TORSDOF 2
ENDMDL
MODEL 3
REMARK VINA RESULT:      -7.1      6.373      7.729
REMARK  Name = 
REMARK  2 active torsions:
REMARK  status: ('A' for Active; 'I' for Inactive)
REMARK    1  A    between atoms: C_2  and  C_17
REMARK    2  A    between atoms: N_3  and  C_4
REMARK                            x       y       z     vdW  Elec       q    Type
REMARK                         _______ _______ _______ _____ _____    ______ ____
ROOT
ATOM      1  C   UNL     1       1.246   9.312  18.937  0.00  0.00    +0.000 A 
ATOM      2  C   UNL     1       2.035   9.114  17.829  0.00  0.00    +0.000 A 
ATOM      3  N   UNL     1       2.896   8.086  17.689  0.00  0.00    +0.000 NA
ATOM      4  C   UNL     1       2.974   7.180  18.678  0.00  0.00    +0.000 A 
ATOM      5  N   UNL     1       3.837   6.118  18.501  0.00  0.00    +0.000 N 
ATOM      6  C   UNL     1       5.001   6.346  17.660  0.00  0.00    +0.000 C 
ATOM      7  C   UNL     1       4.823   5.630  16.325  0.00  0.00    +0.000 C 
ATOM      8  C   UNL     1       5.050   4.122  16.410  0.00  0.00    +0.000 C 
ATOM      9  C   UNL     1       4.178   3.387  17.431  0.00  0.00    +0.000 C 
ATOM     10  C   UNL     1       4.498   3.748  18.886  0.00  0.00    +0.000 C 
ATOM     11  C   UNL     1       3.770   4.993  19.411  0.00  0.00    +0.000 C 
ATOM     12  N   UNL     1       2.242   7.280  19.801  0.00  0.00    +0.000 NA
ATOM     13  C   UNL     1       1.418   8.349  19.913  0.00  0.00    +0.000 A 
ENDROOT
BRANCH   1  16
ATOM     14  O   UNL     1      -1.172   9.819  17.423  0.00  0.00    +0.000 OA
ATOM     15  C   UNL     1      -0.836  10.533  18.365  0.00  0.00    +0.000 C 
ATOM     16  N   UNL     1       0.323  10.368  19.107  0.00  0.00    +0.000 N 
ATOM     17  H   UNL     1       0.475  10.989  19.891  0.00  0.00    +0.000 HD
BRANCH  15  18
ATOM     18  C   UNL     1      -1.682  11.720  18.793  0.00  0.00    +0.000 C 
ATOM     19  C   UNL     1      -3.173  11.453  18.583  0.00  0.00    +0.000 C 
ATOM     20  C   UNL     1      -3.869  12.462  19.480  0.00  0.00    +0.000 C 
ATOM     21  C   UNL     1      -2.917  12.701  20.647  0.00  0.00    +0.000 C 
ATOM     22  C   UNL     1      -1.602  12.016  20.288  0.00  0.00    +0.000 C 
ENDBRANCH  15  18
ENDBRANCH   1  16
TORSDOF 2
ENDMDL
MODEL 4
REMARK VINA RESULT:      -7.1      6.044      6.659
REMARK  Name = 
REMARK  2 active torsions:
REMARK  status: ('A' for Active; 'I' for Inactive)
REMARK    1  A    between atoms: C_2  and  C_17
REMARK    2  A    between atoms: N_3  and  C_4
REMARK                            x       y       z     vdW  Elec       q    Type
REMARK                         _______ _______ _______ _____ _____    ______ ____
ROOT
ATOM      1  C   UNL     1       1.470   8.958  19.730  0.00  0.00    +0.000 A 
ATOM      2  C   UNL     1       1.979   8.328  18.620  0.00  0.00    +0.000 A 
ATOM      3  N   UNL     1       2.316   7.023  18.581  0.00  0.00    +0.000 NA
ATOM      4  C   UNL     1       2.120   6.280  19.682  0.00  0.00    +0.000 A 
ATOM      5  N   UNL     1       2.442   4.940  19.611  0.00  0.00    +0.000 N 
ATOM      6  C   UNL     1       3.496   4.562  18.684  0.00  0.00    +0.000 C 
ATOM      7  C   UNL     1       2.892   3.853  17.476  0.00  0.00    +0.000 C 
ATOM      8  C   UNL     1       2.483   2.410  17.762  0.00  0.00    +0.000 C 
ATOM      9  C   UNL     1       1.503   2.227  18.924  0.00  0.00    +0.000 C 
ATOM     10  C   UNL     1       2.101   2.569  20.293  0.00  0.00    +0.000 C 
ATOM     11  C   UNL     1       2.016   4.053  20.675  0.00  0.00    +0.000 C 
ATOM     12  N   UNL     1       1.624   6.800  20.819  0.00  0.00    +0.000 NA
ATOM     13  C   UNL     1       1.333   8.123  20.822  0.00  0.00    +0.000 A 
ENDROOT
BRANCH   1  16
ATOM     14  O   UNL     1      -1.112  10.116  19.108  0.00  0.00    +0.000 OA
ATOM     15  C   UNL     1      -0.177  10.801  19.516  0.00  0.00    +0.000 C 
ATOM     16  N   UNL     1       1.091  10.318  19.799  0.00  0.00    +0.000 N 
ATOM     17  H   UNL     1       1.771  10.966  20.174  0.00  0.00    +0.000 HD
BRANCH  15  18
ATOM     18  C   UNL     1      -0.331  12.297  19.727  0.00  0.00    +0.000 C 
ATOM     19  C   UNL     1       0.956  12.928  20.258  0.00  0.00    +0.000 C 
ATOM     20  C   UNL     1       0.812  14.407  19.946  0.00  0.00    +0.000 C 
ATOM     21  C   UNL     1      -0.046  14.481  18.687  0.00  0.00    +0.000 C 
ATOM     22  C   UNL     1      -0.574  13.071  18.433  0.00  0.00    +0.000 C 
ENDBRANCH  15  18
ENDBRANCH   1  16
TORSDOF 2
ENDMDL
MODEL 5
REMARK VINA RESULT:      -7.0      6.691      7.994
REMARK  Name = 
REMARK  2 active torsions:
REMARK  status: ('A' for Active; 'I' for Inactive)
REMARK    1  A    between atoms: C_2  and  C_17
REMARK    2  A    between atoms: N_3  and  C_4
REMARK                            x       y       z     vdW  Elec       q    Type
REMARK                         _______ _______ _______ _____ _____    ______ ____
ROOT
ATOM      1  C   UNL     1       0.837   9.371  19.926  0.00  0.00    +0.000 A 
ATOM      2  C   UNL     1       1.362   8.254  20.530  0.00  0.00    +0.000 A 
ATOM      3  N   UNL     1       2.215   7.401  19.927  0.00  0.00    +0.000 NA
ATOM      4  C   UNL     1       2.600   7.667  18.668  0.00  0.00    +0.000 A 
ATOM      5  N   UNL     1       3.498   6.799  18.081  0.00  0.00    +0.000 N 
ATOM      6  C   UNL     1       3.475   5.418  18.534  0.00  0.00    +0.000 C 
ATOM      7  C   UNL     1       4.702   5.135  19.395  0.00  0.00    +0.000 C 
ATOM      8  C   UNL     1       5.984   4.956  18.583  0.00  0.00    +0.000 C 
ATOM      9  C   UNL     1       6.342   6.126  17.663  0.00  0.00    +0.000 C 
ATOM     10  C   UNL     1       5.361   6.317  16.501  0.00  0.00    +0.000 C 
ATOM     11  C   UNL     1       4.134   7.175  16.835  0.00  0.00    +0.000 C 
ATOM     12  N   UNL     1       2.147   8.736  17.990  0.00  0.00    +0.000 NA
ATOM     13  C   UNL     1       1.265   9.545  18.624  0.00  0.00    +0.000 A 
ENDROOT
BRANCH   1  16
ATOM     14  O   UNL     1       1.513  11.820  21.318  0.00  0.00    +0.000 OA
ATOM     15  C   UNL     1       0.347  11.467  21.159  0.00  0.00    +0.000 C 
ATOM     16  N   UNL     1      -0.044  10.294  20.535  0.00  0.00    +0.000 N 
ATOM     17  H   UNL     1      -1.035  10.127  20.419  0.00  0.00    +0.000 HD
BRANCH  15  18
ATOM     18  C   UNL     1      -0.807  12.308  21.678  0.00  0.00    +0.000 C 
ATOM     19  C   UNL     1      -1.999  12.282  20.720  0.00  0.00    +0.000 C 
ATOM     20  C   UNL     1      -3.179  12.718  21.570  0.00  0.00    +0.000 C 
ATOM     21  C   UNL     1      -2.859  12.256  22.988  0.00  0.00    +0.000 C 
ATOM     22  C   UNL     1      -1.410  11.777  22.977  0.00  0.00    +0.000 C 
ENDBRANCH  15  18
ENDBRANCH   1  16
TORSDOF 2
ENDMDL
MODEL 6
REMARK VINA RESULT:      -7.0      6.335      6.800
REMARK  Name = 
REMARK  2 active torsions:
REMARK  status: ('A' for Active; 'I' for Inactive)
REMARK    1  A    between atoms: C_2  and  C_17
REMARK    2  A    between atoms: N_3  and  C_4
REMARK                            x       y       z     vdW  Elec       q    Type
REMARK                         _______ _______ _______ _____ _____    ______ ____
ROOT
ATOM      1  C   UNL     1       1.539   9.811  18.754  0.00  0.00    +0.000 A 
ATOM      2  C   UNL     1       1.915   8.898  17.797  0.00  0.00    +0.000 A 
ATOM      3  N   UNL     1       2.158   7.597  18.050  0.00  0.00    +0.000 NA
ATOM      4  C   UNL     1       1.999   7.150  19.307  0.00  0.00    +0.000 A 
ATOM      5  N   UNL     1       2.222   5.808  19.537  0.00  0.00    +0.000 N 
ATOM      6  C   UNL     1       3.171   5.136  18.665  0.00  0.00    +0.000 C 
ATOM      7  C   UNL     1       2.426   4.219  17.699  0.00  0.00    +0.000 C 
ATOM      8  C   UNL     1       1.943   2.922  18.345  0.00  0.00    +0.000 C 
ATOM      9  C   UNL     1       1.048   3.099  19.574  0.00  0.00    +0.000 C 
ATOM     10  C   UNL     1       1.775   3.699  20.783  0.00  0.00    +0.000 C 
ATOM     11  C   UNL     1       1.821   5.232  20.805  0.00  0.00    +0.000 C 
ATOM     12  N   UNL     1       1.631   7.960  20.314  0.00  0.00    +0.000 NA
ATOM     13  C   UNL     1       1.433   9.268  20.020  0.00  0.00    +0.000 A 
ENDROOT
BRANCH   1  16
ATOM     14  O   UNL     1      -1.002  11.177  19.022  0.00  0.00    +0.000 OA
ATOM     15  C   UNL     1       0.023  11.773  18.699  0.00  0.00    +0.000 C 
ATOM     16  N   UNL     1       1.261  11.176  18.520  0.00  0.00    +0.000 N 
ATOM     17  H   UNL     1       2.047  11.774  18.298  0.00  0.00    +0.000 HD
BRANCH  15  18
ATOM     18  C   UNL     1       0.012  13.269  18.433  0.00  0.00    +0.000 C 
ATOM     19  C   UNL     1      -0.791  14.024  19.493  0.00  0.00    +0.000 C 
ATOM     20  C   UNL     1      -0.307  15.459  19.385  0.00  0.00    +0.000 C 
ATOM     21  C   UNL     1       1.141  15.372  18.914  0.00  0.00    +0.000 C 
ATOM     22  C   UNL     1       1.391  13.915  18.534  0.00  0.00    +0.000 C 
ENDBRANCH  15  18
ENDBRANCH   1  16
TORSDOF 2
ENDMDL
MODEL 7
REMARK VINA RESULT:      -7.0      6.413      7.236
REMARK  Name = 
REMARK  2 active torsions:
REMARK  status: ('A' for Active; 'I' for Inactive)
REMARK    1  A    between atoms: C_2  and  C_17
REMARK    2  A    between atoms: N_3  and  C_4
REMARK                            x       y       z     vdW  Elec       q    Type
REMARK                         _______ _______ _______ _____ _____    ______ ____
ROOT
ATOM      1  C   UNL     1       1.373   9.457  18.928  0.00  0.00    +0.000 A 
ATOM      2  C   UNL     1       2.172   9.104  17.866  0.00  0.00    +0.000 A 
ATOM      3  N   UNL     1       2.901   7.972  17.814  0.00  0.00    +0.000 NA
ATOM      4  C   UNL     1       2.828   7.117  18.847  0.00  0.00    +0.000 A 
ATOM      5  N   UNL     1       3.558   5.949  18.759  0.00  0.00    +0.000 N 
ATOM      6  C   UNL     1       4.771   5.986  17.959  0.00  0.00    +0.000 C 
ATOM      7  C   UNL     1       4.554   5.228  16.653  0.00  0.00    +0.000 C 
ATOM      8  C   UNL     1       4.587   3.711  16.821  0.00  0.00    +0.000 C 
ATOM      9  C   UNL     1       3.593   3.144  17.838  0.00  0.00    +0.000 C 
ATOM     10  C   UNL     1       3.902   3.540  19.286  0.00  0.00    +0.000 C 
ATOM     11  C   UNL     1       3.316   4.891  19.719  0.00  0.00    +0.000 C 
ATOM     12  N   UNL     1       2.074   7.367  19.932  0.00  0.00    +0.000 NA
ATOM     13  C   UNL     1       1.386   8.533  19.955  0.00  0.00    +0.000 A 
ENDROOT
BRANCH   1  16
ATOM     14  O   UNL     1      -1.214   9.939  17.716  0.00  0.00    +0.000 OA
ATOM     15  C   UNL     1      -0.665  10.778  18.426  0.00  0.00    +0.000 C 
ATOM     16  N   UNL     1       0.584  10.626  19.007  0.00  0.00    +0.000 N 
ATOM     17  H   UNL     1       0.918  11.366  19.611  0.00  0.00    +0.000 HD
BRANCH  15  18
ATOM     18  C   UNL     1      -1.325  12.115  18.716  0.00  0.00    +0.000 C 
ATOM     19  C   UNL     1      -1.914  12.161  20.126  0.00  0.00    +0.000 C 
ATOM     20  C   UNL     1      -2.070  13.641  20.425  0.00  0.00    +0.000 C 
ATOM     21  C   UNL     1      -0.965  14.339  19.640  0.00  0.00    +0.000 C 
ATOM     22  C   UNL     1      -0.346  13.287  18.724  0.00  0.00    +0.000 C 
ENDBRANCH  15  18
ENDBRANCH   1  16
TORSDOF 2
ENDMDL
MODEL 8
REMARK VINA RESULT:      -6.9      6.188      7.305
REMARK  Name = 
REMARK  2 active torsions:
REMARK  status: ('A' for Active; 'I' for Inactive)
REMARK    1  A    between atoms: C_2  and  C_17
REMARK    2  A    between atoms: N_3  and  C_4
REMARK                            x       y       z     vdW  Elec       q    Type
REMARK                         _______ _______ _______ _____ _____    ______ ____
ROOT
ATOM      1  C   UNL     1       1.413   8.683  19.506  0.00  0.00    +0.000 A 
ATOM      2  C   UNL     1       2.111   8.944  18.351  0.00  0.00    +0.000 A 
ATOM      3  N   UNL     1       3.065   8.136  17.847  0.00  0.00    +0.000 NA
ATOM      4  C   UNL     1       3.339   6.991  18.493  0.00  0.00    +0.000 A 
ATOM      5  N   UNL     1       4.297   6.164  17.943  0.00  0.00    +0.000 N 
ATOM      6  C   UNL     1       5.342   6.795  17.154  0.00  0.00    +0.000 C 
ATOM      7  C   UNL     1       5.120   6.505  15.673  0.00  0.00    +0.000 C 
ATOM      8  C   UNL     1       5.523   5.090  15.265  0.00  0.00    +0.000 C 
ATOM      9  C   UNL     1       4.842   3.965  16.049  0.00  0.00    +0.000 C 
ATOM     10  C   UNL     1       5.256   3.904  17.524  0.00  0.00    +0.000 C 
ATOM     11  C   UNL     1       4.444   4.816  18.454  0.00  0.00    +0.000 C 
ATOM     12  N   UNL     1       2.711   6.642  19.629  0.00  0.00    +0.000 NA
ATOM     13  C   UNL     1       1.785   7.502  20.117  0.00  0.00    +0.000 A 
ENDROOT
BRANCH   1  16
ATOM     14  O   UNL     1       1.445  10.116  22.024  0.00  0.00    +0.000 OA
ATOM     15  C   UNL     1       0.491  10.184  21.252  0.00  0.00    +0.000 C 
ATOM     16  N   UNL     1       0.397   9.499  20.051  0.00  0.00    +0.000 N 
ATOM     17  H   UNL     1      -0.417   9.667  19.474  0.00  0.00    +0.000 HD
BRANCH  15  18
ATOM     18  C   UNL     1      -0.723  11.037  21.577  0.00  0.00    +0.000 C 
ATOM     19  C   UNL     1      -1.186  10.832  23.020  0.00  0.00    +0.000 C 
ATOM     20  C   UNL     1      -2.032  12.056  23.324  0.00  0.00    +0.000 C 
ATOM     21  C   UNL     1      -1.451  13.181  22.474  0.00  0.00    +0.000 C 
ATOM     22  C   UNL     1      -0.444  12.537  21.525  0.00  0.00    +0.000 C 
ENDBRANCH  15  18
ENDBRANCH   1  16
TORSDOF 2
ENDMDL
MODEL 9
REMARK VINA RESULT:      -6.9      6.434      8.174
REMARK  Name = 
REMARK  2 active torsions:
REMARK  status: ('A' for Active; 'I' for Inactive)
REMARK    1  A    between atoms: C_2  and  C_17
REMARK    2  A    between atoms: N_3  and  C_4
REMARK                            x       y       z     vdW  Elec       q    Type
REMARK                         _______ _______ _______ _____ _____    ______ ____
ROOT
ATOM      1  C   UNL     1       2.653   8.082  18.366  0.00  0.00    +0.000 A 
ATOM      2  C   UNL     1       1.990   9.086  17.700  0.00  0.00    +0.000 A 
ATOM      3  N   UNL     1       1.009   9.833  18.245  0.00  0.00    +0.000 NA
ATOM      4  C   UNL     1       0.671   9.607  19.525  0.00  0.00    +0.000 A 
ATOM      5  N   UNL     1      -0.314  10.404  20.073  0.00  0.00    +0.000 N 
ATOM      6  C   UNL     1      -1.313  10.939  19.163  0.00  0.00    +0.000 C 
ATOM      7  C   UNL     1      -1.077  12.431  18.953  0.00  0.00    +0.000 C 
ATOM      8  C   UNL     1      -1.538  13.289  20.130  0.00  0.00    +0.000 C 
ATOM      9  C   UNL     1      -0.924  12.925  21.484  0.00  0.00    +0.000 C 
ATOM     10  C   UNL     1      -1.368  11.557  22.012  0.00  0.00    +0.000 C 
ATOM     11  C   UNL     1      -0.533  10.373  21.505  0.00  0.00    +0.000 C 
ATOM     12  N   UNL     1       1.260   8.651  20.264  0.00  0.00    +0.000 NA
ATOM     13  C   UNL     1       2.216   7.902  19.664  0.00  0.00    +0.000 A 
ENDROOT
BRANCH   1  16
ATOM     14  O   UNL     1       2.639   5.231  17.853  0.00  0.00    +0.000 OA
ATOM     15  C   UNL     1       3.609   5.933  17.580  0.00  0.00    +0.000 C 
ATOM     16  N   UNL     1       3.695   7.293  17.830  0.00  0.00    +0.000 N 
ATOM     17  H   UNL     1       4.527   7.779  17.521  0.00  0.00    +0.000 HD
BRANCH  15  18
ATOM     18  C   UNL     1       4.856   5.339  16.946  0.00  0.00    +0.000 C 
ATOM     19  C   UNL     1       4.625   3.897  16.493  0.00  0.00    +0.000 C 
ATOM     20  C   UNL     1       5.728   3.635  15.482  0.00  0.00    +0.000 C 
ATOM     21  C   UNL     1       6.027   4.986  14.841  0.00  0.00    +0.000 C 
ATOM     22  C   UNL     1       5.269   6.035  15.652  0.00  0.00    +0.000 C 
ENDBRANCH  15  18
ENDBRANCH   1  16
TORSDOF 2
ENDMDL
