MODEL 1
REMARK VINA RESULT:      -7.7      0.000      0.000
REMARK  Name = 
REMARK  11 active torsions:
REMARK  status: ('A' for Active; 'I' for Inactive)
REMARK    1  A    between atoms: C_1  and  C_2
REMARK    2  A    between atoms: C_2  and  C_3
REMARK    3  A    between atoms: C_3  and  C_4
REMARK    4  A    between atoms: C_4  and  N_5
REMARK    5  A    between atoms: C_6  and  C_7
REMARK    6  A    between atoms: C_11  and  O_12
REMARK    7  A    between atoms: C_13  and  C_14
REMARK    8  A    between atoms: C_14  and  N_15
REMARK    9  A    between atoms: C_16  and  C_18
REMARK   10  A    between atoms: C_22  and  O_23
REMARK   11  A    between atoms: O_23  and  C_24
REMARK                            x       y       z     vdW  Elec       q    Type
REMARK                         _______ _______ _______ _____ _____    ______ ____
ROOT
ATOM      1  N   UNL     1       2.698   4.587  18.569  0.00  0.00    +0.000 N 
ATOM      2  C   UNL     1       2.169   3.475  19.288  0.00  0.00    +0.000 A 
ATOM      3  C   UNL     1       0.677   3.256  19.443  0.00  0.00    +0.000 C 
ATOM      4  C   UNL     1       2.949   2.567  19.899  0.00  0.00    +0.000 A 
ATOM      5  C   UNL     1       4.402   2.706  19.816  0.00  0.00    +0.000 A 
ATOM      6  O   UNL     1       5.162   1.960  20.431  0.00  0.00    +0.000 OA
ATOM      7  C   UNL     1       4.956   3.781  18.953  0.00  0.00    +0.000 A 
ATOM      8  C   UNL     1       4.120   4.670  18.365  0.00  0.00    +0.000 A 
ENDROOT
BRANCH   7   9
ATOM      9  O   UNL     1       6.335   3.838  18.862  0.00  0.00    +0.000 OA
ATOM     10  H   UNL     1       6.583   3.026  18.368  0.00  0.00    +0.000 HD
ENDBRANCH   7   9
BRANCH   1  11
ATOM     11  C   UNL     1       1.823   5.753  18.282  0.00  0.00    +0.000 C 
BRANCH  11  12
ATOM     12  C   UNL     1       2.215   6.953  19.158  0.00  0.00    +0.000 C 
BRANCH  12  14
ATOM     13  C   UNL     1       1.350   9.307  18.993  0.00  0.00    +0.000 C 
ATOM     14  C   UNL     1       2.245   8.252  18.358  0.00  0.00    +0.000 C 
ENDBRANCH  12  14
ENDBRANCH  11  12
ENDBRANCH   1  11
BRANCH   8  15
ATOM     15  C   UNL     1       4.763   5.818  17.565  0.00  0.00    +0.000 C 
BRANCH  15  16
ATOM     16  N   UNL     1       5.039   5.473  16.172  0.00  0.00    +0.000 N 
ATOM     17  C   UNL     1       6.360   5.282  15.761  0.00  0.00    +0.000 C 
ATOM     18  O   UNL     1       7.322   5.451  16.509  0.00  0.00    +0.000 OA
ATOM     19  H   UNL     1       4.296   5.035  15.646  0.00  0.00    +0.000 HD
BRANCH  17  20
ATOM     20  C   UNL     1       6.589   4.849  14.348  0.00  0.00    +0.000 A 
ATOM     21  C   UNL     1       7.671   5.359  13.622  0.00  0.00    +0.000 A 
ATOM     22  C   UNL     1       7.896   4.941  12.310  0.00  0.00    +0.000 A 
ATOM     23  C   UNL     1       7.052   4.001  11.723  0.00  0.00    +0.000 A 
ATOM     24  C   UNL     1       5.985   3.451  12.441  0.00  0.00    +0.000 A 
ATOM     25  C   UNL     1       5.753   3.875  13.756  0.00  0.00    +0.000 A 
BRANCH  24  26
ATOM     26  O   UNL     1       5.268   2.528  11.730  0.00  0.00    +0.000 OA
ATOM     27  C   UNL     1       4.018   2.935  11.190  0.00  0.00    +0.000 C 
ENDBRANCH  24  26
ENDBRANCH  17  20
ENDBRANCH  15  16
ENDBRANCH   8  15
TORSDOF 8
ENDMDL
MODEL 2
REMARK VINA RESULT:      -7.6      1.906      3.200
REMARK  Name = 
REMARK  11 active torsions:
REMARK  status: ('A' for Active; 'I' for Inactive)
REMARK    1  A    between atoms: C_1  and  C_2
REMARK    2  A    between atoms: C_2  and  C_3
REMARK    3  A    between atoms: C_3  and  C_4
REMARK    4  A    between atoms: C_4  and  N_5
REMARK    5  A    between atoms: C_6  and  C_7
REMARK    6  A    between atoms: C_11  and  O_12
REMARK    7  A    between atoms: C_13  and  C_14
REMARK    8  A    between atoms: C_14  and  N_15
REMARK    9  A    between atoms: C_16  and  C_18
REMARK   10  A    between atoms: C_22  and  O_23
REMARK   11  A    between atoms: O_23  and  C_24
REMARK                            x       y       z     vdW  Elec       q    Type
REMARK                         _______ _______ _______ _____ _____    ______ ____
ROOT
ATOM      1  N   UNL     1       4.033   4.322  19.661  0.00  0.00    +0.000 N 
ATOM      2  C   UNL     1       2.817   4.858  20.174  0.00  0.00    +0.000 A 
ATOM      3  C   UNL     1       2.002   4.138  21.230  0.00  0.00    +0.000 C 
ATOM      4  C   UNL     1       2.294   6.018  19.740  0.00  0.00    +0.000 A 
ATOM      5  C   UNL     1       3.004   6.777  18.710  0.00  0.00    +0.000 A 
ATOM      6  O   UNL     1       2.528   7.794  18.209  0.00  0.00    +0.000 OA
ATOM      7  C   UNL     1       4.338   6.291  18.275  0.00  0.00    +0.000 A 
ATOM      8  C   UNL     1       4.812   5.112  18.746  0.00  0.00    +0.000 A 
ENDROOT
BRANCH   7   9
ATOM      9  O   UNL     1       4.995   7.072  17.341  0.00  0.00    +0.000 OA
ATOM     10  H   UNL     1       4.517   7.930  17.357  0.00  0.00    +0.000 HD
ENDBRANCH   7   9
BRANCH   1  11
ATOM     11  C   UNL     1       4.337   2.881  19.864  0.00  0.00    +0.000 C 
BRANCH  11  12
ATOM     12  C   UNL     1       3.222   2.005  19.273  0.00  0.00    +0.000 C 
BRANCH  12  14
ATOM     13  C   UNL     1       2.547   2.995  17.063  0.00  0.00    +0.000 C 
ATOM     14  C   UNL     1       3.335   1.892  17.755  0.00  0.00    +0.000 C 
ENDBRANCH  12  14
ENDBRANCH  11  12
ENDBRANCH   1  11
BRANCH   8  15
ATOM     15  C   UNL     1       6.156   4.618  18.181  0.00  0.00    +0.000 C 
BRANCH  15  16
ATOM     16  N   UNL     1       6.121   4.355  16.743  0.00  0.00    +0.000 N 
ATOM     17  C   UNL     1       6.888   5.141  15.883  0.00  0.00    +0.000 C 
ATOM     18  O   UNL     1       7.557   6.099  16.272  0.00  0.00    +0.000 OA
ATOM     19  H   UNL     1       5.852   3.427  16.447  0.00  0.00    +0.000 HD
BRANCH  17  20
ATOM     20  C   UNL     1       6.885   4.783  14.430  0.00  0.00    +0.000 A 
ATOM     21  C   UNL     1       7.769   5.415  13.547  0.00  0.00    +0.000 A 
ATOM     22  C   UNL     1       7.780   5.066  12.197  0.00  0.00    +0.000 A 
ATOM     23  C   UNL     1       6.920   4.077  11.724  0.00  0.00    +0.000 A 
ATOM     24  C   UNL     1       6.053   3.409  12.594  0.00  0.00    +0.000 A 
ATOM     25  C   UNL     1       6.036   3.761  13.949  0.00  0.00    +0.000 A 
BRANCH  24  26
ATOM     26  O   UNL     1       5.293   2.452  11.977  0.00  0.00    +0.000 OA
ATOM     27  C   UNL     1       5.973   1.403  11.301  0.00  0.00    +0.000 C 
ENDBRANCH  24  26
ENDBRANCH  17  20
ENDBRANCH  15  16
ENDBRANCH   8  15
TORSDOF 8
ENDMDL
MODEL 3
REMARK VINA RESULT:      -7.3      1.622      3.356
REMARK  Name = 
REMARK  11 active torsions:
REMARK  status: ('A' for Active; 'I' for Inactive)
REMARK    1  A    between atoms: C_1  and  C_2
REMARK    2  A    between atoms: C_2  and  C_3
REMARK    3  A    between atoms: C_3  and  C_4
REMARK    4  A    between atoms: C_4  and  N_5
REMARK    5  A    between atoms: C_6  and  C_7
REMARK    6  A    between atoms: C_11  and  O_12
REMARK    7  A    between atoms: C_13  and  C_14
REMARK    8  A    between atoms: C_14  and  N_15
REMARK    9  A    between atoms: C_16  and  C_18
REMARK   10  A    between atoms: C_22  and  O_23
REMARK   11  A    between atoms: O_23  and  C_24
REMARK                            x       y       z     vdW  Elec       q    Type
REMARK                         _______ _______ _______ _____ _____    ______ ____
ROOT
ATOM      1  N   UNL     1       3.362   5.381  19.426  0.00  0.00    +0.000 N 
ATOM      2  C   UNL     1       2.389   6.359  19.787  0.00  0.00    +0.000 A 
ATOM      3  C   UNL     1       1.477   6.182  20.984  0.00  0.00    +0.000 C 
ATOM      4  C   UNL     1       2.195   7.485  19.079  0.00  0.00    +0.000 A 
ATOM      5  C   UNL     1       3.020   7.735  17.898  0.00  0.00    +0.000 A 
ATOM      6  O   UNL     1       2.824   8.700  17.162  0.00  0.00    +0.000 OA
ATOM      7  C   UNL     1       4.125   6.788  17.602  0.00  0.00    +0.000 A 
ATOM      8  C   UNL     1       4.270   5.667  18.348  0.00  0.00    +0.000 A 
ENDROOT
BRANCH   7   9
ATOM      9  O   UNL     1       4.913   7.097  16.507  0.00  0.00    +0.000 OA
ATOM     10  H   UNL     1       5.830   7.112  16.859  0.00  0.00    +0.000 HD
ENDBRANCH   7   9
BRANCH   1  11
ATOM     11  C   UNL     1       3.250   4.005  19.977  0.00  0.00    +0.000 C 
BRANCH  11  12
ATOM     12  C   UNL     1       2.247   3.175  19.161  0.00  0.00    +0.000 C 
BRANCH  12  14
ATOM     13  C   UNL     1       1.400   2.601  21.457  0.00  0.00    +0.000 C 
ATOM     14  C   UNL     1       1.029   2.782  19.992  0.00  0.00    +0.000 C 
ENDBRANCH  12  14
ENDBRANCH  11  12
ENDBRANCH   1  11
BRANCH   8  15
ATOM     15  C   UNL     1       5.373   4.678  17.927  0.00  0.00    +0.000 C 
BRANCH  15  16
ATOM     16  N   UNL     1       5.469   4.497  16.480  0.00  0.00    +0.000 N 
ATOM     17  C   UNL     1       6.628   4.900  15.814  0.00  0.00    +0.000 C 
ATOM     18  O   UNL     1       7.562   5.464  16.382  0.00  0.00    +0.000 OA
ATOM     19  H   UNL     1       4.888   3.785  16.061  0.00  0.00    +0.000 HD
BRANCH  17  20
ATOM     20  C   UNL     1       6.715   4.620  14.347  0.00  0.00    +0.000 A 
ATOM     21  C   UNL     1       7.711   5.225  13.572  0.00  0.00    +0.000 A 
ATOM     22  C   UNL     1       7.806   4.948  12.209  0.00  0.00    +0.000 A 
ATOM     23  C   UNL     1       6.916   4.056  11.615  0.00  0.00    +0.000 A 
ATOM     24  C   UNL     1       5.934   3.412  12.375  0.00  0.00    +0.000 A 
ATOM     25  C   UNL     1       5.834   3.694  13.744  0.00  0.00    +0.000 A 
BRANCH  24  26
ATOM     26  O   UNL     1       5.159   2.552  11.647  0.00  0.00    +0.000 OA
ATOM     27  C   UNL     1       3.932   3.047  11.127  0.00  0.00    +0.000 C 
ENDBRANCH  24  26
ENDBRANCH  17  20
ENDBRANCH  15  16
ENDBRANCH   8  15
TORSDOF 8
ENDMDL
MODEL 4
REMARK VINA RESULT:      -6.9      3.880      7.770
REMARK  Name = 
REMARK  11 active torsions:
REMARK  status: ('A' for Active; 'I' for Inactive)
REMARK    1  A    between atoms: C_1  and  C_2
REMARK    2  A    between atoms: C_2  and  C_3
REMARK    3  A    between atoms: C_3  and  C_4
REMARK    4  A    between atoms: C_4  and  N_5
REMARK    5  A    between atoms: C_6  and  C_7
REMARK    6  A    between atoms: C_11  and  O_12
REMARK    7  A    between atoms: C_13  and  C_14
REMARK    8  A    between atoms: C_14  and  N_15
REMARK    9  A    between atoms: C_16  and  C_18
REMARK   10  A    between atoms: C_22  and  O_23
REMARK   11  A    between atoms: O_23  and  C_24
REMARK                            x       y       z     vdW  Elec       q    Type
REMARK                         _______ _______ _______ _____ _____    ______ ____
ROOT
ATOM      1  N   UNL     1       4.105   4.144  19.209  0.00  0.00    +0.000 N 
ATOM      2  C   UNL     1       3.899   2.798  19.628  0.00  0.00    +0.000 A 
ATOM      3  C   UNL     1       4.905   2.061  20.489  0.00  0.00    +0.000 C 
ATOM      4  C   UNL     1       2.820   2.082  19.268  0.00  0.00    +0.000 A 
ATOM      5  C   UNL     1       1.800   2.706  18.425  0.00  0.00    +0.000 A 
ATOM      6  O   UNL     1       0.841   2.072  17.989  0.00  0.00    +0.000 OA
ATOM      7  C   UNL     1       1.944   4.149  18.103  0.00  0.00    +0.000 A 
ATOM      8  C   UNL     1       3.056   4.818  18.491  0.00  0.00    +0.000 A 
ENDROOT
BRANCH   7   9
ATOM      9  O   UNL     1       0.927   4.708  17.350  0.00  0.00    +0.000 OA
ATOM     10  H   UNL     1       1.386   5.143  16.599  0.00  0.00    +0.000 HD
ENDBRANCH   7   9
BRANCH   1  11
ATOM     11  C   UNL     1       5.469   4.730  19.282  0.00  0.00    +0.000 C 
BRANCH  11  12
ATOM     12  C   UNL     1       6.235   4.483  17.973  0.00  0.00    +0.000 C 
BRANCH  12  14
ATOM     13  C   UNL     1       7.817   6.306  18.671  0.00  0.00    +0.000 C 
ATOM     14  C   UNL     1       7.004   5.722  17.525  0.00  0.00    +0.000 C 
ENDBRANCH  12  14
ENDBRANCH  11  12
ENDBRANCH   1  11
BRANCH   8  15
ATOM     15  C   UNL     1       3.188   6.284  18.040  0.00  0.00    +0.000 C 
BRANCH  15  16
ATOM     16  N   UNL     1       2.337   7.203  18.794  0.00  0.00    +0.000 N 
ATOM     17  C   UNL     1       2.046   8.461  18.262  0.00  0.00    +0.000 C 
ATOM     18  O   UNL     1       2.525   8.865  17.203  0.00  0.00    +0.000 OA
ATOM     19  H   UNL     1       1.705   6.801  19.471  0.00  0.00    +0.000 HD
BRANCH  17  20
ATOM     20  C   UNL     1       1.104   9.334  19.029  0.00  0.00    +0.000 A 
ATOM     21  C   UNL     1       0.113  10.060  18.359  0.00  0.00    +0.000 A 
ATOM     22  C   UNL     1      -0.778  10.859  19.075  0.00  0.00    +0.000 A 
ATOM     23  C   UNL     1      -0.691  10.927  20.464  0.00  0.00    +0.000 A 
ATOM     24  C   UNL     1       0.269  10.185  21.158  0.00  0.00    +0.000 A 
ATOM     25  C   UNL     1       1.168   9.386  20.440  0.00  0.00    +0.000 A 
BRANCH  24  26
ATOM     26  O   UNL     1       0.205  10.345  22.516  0.00  0.00    +0.000 OA
ATOM     27  C   UNL     1      -1.025  10.790  23.071  0.00  0.00    +0.000 C 
ENDBRANCH  24  26
ENDBRANCH  17  20
ENDBRANCH  15  16
ENDBRANCH   8  15
TORSDOF 8
ENDMDL
MODEL 5
REMARK VINA RESULT:      -6.9      2.919      7.659
REMARK  Name = 
REMARK  11 active torsions:
REMARK  status: ('A' for Active; 'I' for Inactive)
REMARK    1  A    between atoms: C_1  and  C_2
REMARK    2  A    between atoms: C_2  and  C_3
REMARK    3  A    between atoms: C_3  and  C_4
REMARK    4  A    between atoms: C_4  and  N_5
REMARK    5  A    between atoms: C_6  and  C_7
REMARK    6  A    between atoms: C_11  and  O_12
REMARK    7  A    between atoms: C_13  and  C_14
REMARK    8  A    between atoms: C_14  and  N_15
REMARK    9  A    between atoms: C_16  and  C_18
REMARK   10  A    between atoms: C_22  and  O_23
REMARK   11  A    between atoms: O_23  and  C_24
REMARK                            x       y       z     vdW  Elec       q    Type
REMARK                         _______ _______ _______ _____ _____    ______ ____
ROOT
ATOM      1  N   UNL     1       4.575   4.374  17.246  0.00  0.00    +0.000 N 
ATOM      2  C   UNL     1       5.545   4.194  16.218  0.00  0.00    +0.000 A 
ATOM      3  C   UNL     1       5.155   3.849  14.796  0.00  0.00    +0.000 C 
ATOM      4  C   UNL     1       6.867   4.288  16.443  0.00  0.00    +0.000 A 
ATOM      5  C   UNL     1       7.340   4.603  17.791  0.00  0.00    +0.000 A 
ATOM      6  O   UNL     1       8.536   4.610  18.075  0.00  0.00    +0.000 OA
ATOM      7  C   UNL     1       6.329   4.928  18.830  0.00  0.00    +0.000 A 
ATOM      8  C   UNL     1       5.009   4.812  18.546  0.00  0.00    +0.000 A 
ENDROOT
BRANCH   7   9
ATOM      9  O   UNL     1       6.825   5.274  20.074  0.00  0.00    +0.000 OA
ATOM     10  H   UNL     1       7.639   5.788  19.880  0.00  0.00    +0.000 HD
ENDBRANCH   7   9
BRANCH   1  11
ATOM     11  C   UNL     1       3.195   3.859  17.044  0.00  0.00    +0.000 C 
BRANCH  11  12
ATOM     12  C   UNL     1       3.104   2.380  17.448  0.00  0.00    +0.000 C 
BRANCH  12  14
ATOM     13  C   UNL     1       0.977   3.193  18.511  0.00  0.00    +0.000 C 
ATOM     14  C   UNL     1       2.092   2.160  18.569  0.00  0.00    +0.000 C 
ENDBRANCH  12  14
ENDBRANCH  11  12
ENDBRANCH   1  11
BRANCH   8  15
ATOM     15  C   UNL     1       4.017   5.067  19.695  0.00  0.00    +0.000 C 
BRANCH  15  16
ATOM     16  N   UNL     1       3.374   6.378  19.627  0.00  0.00    +0.000 N 
ATOM     17  C   UNL     1       2.137   6.568  20.246  0.00  0.00    +0.000 C 
ATOM     18  O   UNL     1       1.522   5.658  20.803  0.00  0.00    +0.000 OA
ATOM     19  H   UNL     1       3.968   7.179  19.467  0.00  0.00    +0.000 HD
BRANCH  17  20
ATOM     20  C   UNL     1       1.556   7.946  20.222  0.00  0.00    +0.000 A 
ATOM     21  C   UNL     1       1.645   8.728  19.065  0.00  0.00    +0.000 A 
ATOM     22  C   UNL     1       1.086  10.006  19.036  0.00  0.00    +0.000 A 
ATOM     23  C   UNL     1       0.424  10.503  20.157  0.00  0.00    +0.000 A 
ATOM     24  C   UNL     1       0.292   9.727  21.312  0.00  0.00    +0.000 A 
ATOM     25  C   UNL     1       0.858   8.446  21.345  0.00  0.00    +0.000 A 
BRANCH  24  26
ATOM     26  O   UNL     1      -0.404  10.351  22.311  0.00  0.00    +0.000 OA
ATOM     27  C   UNL     1      -0.584  11.757  22.212  0.00  0.00    +0.000 C 
ENDBRANCH  24  26
ENDBRANCH  17  20
ENDBRANCH  15  16
ENDBRANCH   8  15
TORSDOF 8
ENDMDL
MODEL 6
REMARK VINA RESULT:      -6.9      4.162      7.422
REMARK  Name = 
REMARK  11 active torsions:
REMARK  status: ('A' for Active; 'I' for Inactive)
REMARK    1  A    between atoms: C_1  and  C_2
REMARK    2  A    between atoms: C_2  and  C_3
REMARK    3  A    between atoms: C_3  and  C_4
REMARK    4  A    between atoms: C_4  and  N_5
REMARK    5  A    between atoms: C_6  and  C_7
REMARK    6  A    between atoms: C_11  and  O_12
REMARK    7  A    between atoms: C_13  and  C_14
REMARK    8  A    between atoms: C_14  and  N_15
REMARK    9  A    between atoms: C_16  and  C_18
REMARK   10  A    between atoms: C_22  and  O_23
REMARK   11  A    between atoms: O_23  and  C_24
REMARK                            x       y       z     vdW  Elec       q    Type
REMARK                         _______ _______ _______ _____ _____    ______ ____
ROOT
ATOM      1  N   UNL     1      -0.344  11.006  20.179  0.00  0.00    +0.000 N 
ATOM      2  C   UNL     1      -1.167  11.429  21.263  0.00  0.00    +0.000 A 
ATOM      3  C   UNL     1      -2.280  12.441  21.080  0.00  0.00    +0.000 C 
ATOM      4  C   UNL     1      -0.996  10.986  22.521  0.00  0.00    +0.000 A 
ATOM      5  C   UNL     1       0.064  10.017  22.796  0.00  0.00    +0.000 A 
ATOM      6  O   UNL     1       0.326   9.649  23.940  0.00  0.00    +0.000 OA
ATOM      7  C   UNL     1       0.831   9.471  21.647  0.00  0.00    +0.000 A 
ATOM      8  C   UNL     1       0.617   9.959  20.401  0.00  0.00    +0.000 A 
ENDROOT
BRANCH   7   9
ATOM      9  O   UNL     1       1.784   8.516  21.951  0.00  0.00    +0.000 OA
ATOM     10  H   UNL     1       2.627   8.895  21.620  0.00  0.00    +0.000 HD
ENDBRANCH   7   9
BRANCH   1  11
ATOM     11  C   UNL     1      -0.304  11.818  18.935  0.00  0.00    +0.000 C 
BRANCH  11  12
ATOM     12  C   UNL     1      -1.579  11.600  18.105  0.00  0.00    +0.000 C 
BRANCH  12  14
ATOM     13  C   UNL     1      -3.112   9.695  17.524  0.00  0.00    +0.000 C 
ATOM     14  C   UNL     1      -1.669  10.174  17.569  0.00  0.00    +0.000 C 
ENDBRANCH  12  14
ENDBRANCH  11  12
ENDBRANCH   1  11
BRANCH   8  15
ATOM     15  C   UNL     1       1.512   9.420  19.271  0.00  0.00    +0.000 C 
BRANCH  15  16
ATOM     16  N   UNL     1       1.774   7.985  19.370  0.00  0.00    +0.000 N 
ATOM     17  C   UNL     1       2.592   7.371  18.420  0.00  0.00    +0.000 C 
ATOM     18  O   UNL     1       3.064   7.972  17.456  0.00  0.00    +0.000 OA
ATOM     19  H   UNL     1       1.672   7.556  20.278  0.00  0.00    +0.000 HD
BRANCH  17  20
ATOM     20  C   UNL     1       2.899   5.919  18.608  0.00  0.00    +0.000 A 
ATOM     21  C   UNL     1       3.520   5.192  17.586  0.00  0.00    +0.000 A 
ATOM     22  C   UNL     1       3.824   3.843  17.768  0.00  0.00    +0.000 A 
ATOM     23  C   UNL     1       3.522   3.217  18.976  0.00  0.00    +0.000 A 
ATOM     24  C   UNL     1       2.933   3.931  20.024  0.00  0.00    +0.000 A 
ATOM     25  C   UNL     1       2.621   5.285  19.840  0.00  0.00    +0.000 A 
BRANCH  24  26
ATOM     26  O   UNL     1       2.723   3.177  21.146  0.00  0.00    +0.000 OA
ATOM     27  C   UNL     1       1.394   2.757  21.421  0.00  0.00    +0.000 C 
ENDBRANCH  24  26
ENDBRANCH  17  20
ENDBRANCH  15  16
ENDBRANCH   8  15
TORSDOF 8
ENDMDL
MODEL 7
REMARK VINA RESULT:      -6.9      3.471      7.801
REMARK  Name = 
REMARK  11 active torsions:
REMARK  status: ('A' for Active; 'I' for Inactive)
REMARK    1  A    between atoms: C_1  and  C_2
REMARK    2  A    between atoms: C_2  and  C_3
REMARK    3  A    between atoms: C_3  and  C_4
REMARK    4  A    between atoms: C_4  and  N_5
REMARK    5  A    between atoms: C_6  and  C_7
REMARK    6  A    between atoms: C_11  and  O_12
REMARK    7  A    between atoms: C_13  and  C_14
REMARK    8  A    between atoms: C_14  and  N_15
REMARK    9  A    between atoms: C_16  and  C_18
REMARK   10  A    between atoms: C_22  and  O_23
REMARK   11  A    between atoms: O_23  and  C_24
REMARK                            x       y       z     vdW  Elec       q    Type
REMARK                         _______ _______ _______ _____ _____    ______ ____
ROOT
ATOM      1  N   UNL     1       3.418   3.864  18.333  0.00  0.00    +0.000 N 
ATOM      2  C   UNL     1       3.348   2.585  18.959  0.00  0.00    +0.000 A 
ATOM      3  C   UNL     1       3.775   1.317  18.247  0.00  0.00    +0.000 C 
ATOM      4  C   UNL     1       2.874   2.411  20.205  0.00  0.00    +0.000 A 
ATOM      5  C   UNL     1       2.424   3.577  20.965  0.00  0.00    +0.000 A 
ATOM      6  O   UNL     1       1.897   3.468  22.070  0.00  0.00    +0.000 OA
ATOM      7  C   UNL     1       2.626   4.923  20.368  0.00  0.00    +0.000 A 
ATOM      8  C   UNL     1       3.104   5.036  19.106  0.00  0.00    +0.000 A 
ENDROOT
BRANCH   7   9
ATOM      9  O   UNL     1       2.236   5.997  21.148  0.00  0.00    +0.000 OA
ATOM     10  H   UNL     1       2.234   5.648  22.066  0.00  0.00    +0.000 HD
ENDBRANCH   7   9
BRANCH   1  11
ATOM     11  C   UNL     1       3.548   3.945  16.855  0.00  0.00    +0.000 C 
BRANCH  11  12
ATOM     12  C   UNL     1       5.027   4.022  16.445  0.00  0.00    +0.000 C 
BRANCH  12  14
ATOM     13  C   UNL     1       6.562   6.009  16.544  0.00  0.00    +0.000 C 
ATOM     14  C   UNL     1       5.374   5.377  15.834  0.00  0.00    +0.000 C 
ENDBRANCH  12  14
ENDBRANCH  11  12
ENDBRANCH   1  11
BRANCH   8  15
ATOM     15  C   UNL     1       3.196   6.453  18.512  0.00  0.00    +0.000 C 
BRANCH  15  16
ATOM     16  N   UNL     1       2.302   7.413  19.158  0.00  0.00    +0.000 N 
ATOM     17  C   UNL     1       1.928   8.570  18.472  0.00  0.00    +0.000 C 
ATOM     18  O   UNL     1       2.367   8.858  17.359  0.00  0.00    +0.000 OA
ATOM     19  H   UNL     1       1.704   7.067  19.895  0.00  0.00    +0.000 HD
BRANCH  17  20
ATOM     20  C   UNL     1       0.947   9.482  19.139  0.00  0.00    +0.000 A 
ATOM     21  C   UNL     1      -0.059  10.103  18.389  0.00  0.00    +0.000 A 
ATOM     22  C   UNL     1      -0.986  10.937  19.013  0.00  0.00    +0.000 A 
ATOM     23  C   UNL     1      -0.921  11.145  20.390  0.00  0.00    +0.000 A 
ATOM     24  C   UNL     1       0.053  10.508  21.164  0.00  0.00    +0.000 A 
ATOM     25  C   UNL     1       0.989   9.675  20.538  0.00  0.00    +0.000 A 
BRANCH  24  26
ATOM     26  O   UNL     1      -0.035  10.799  22.498  0.00  0.00    +0.000 OA
ATOM     27  C   UNL     1      -1.197  11.482  22.950  0.00  0.00    +0.000 C 
ENDBRANCH  24  26
ENDBRANCH  17  20
ENDBRANCH  15  16
ENDBRANCH   8  15
TORSDOF 8
ENDMDL
MODEL 8
REMARK VINA RESULT:      -6.9      3.365      7.477
REMARK  Name = 
REMARK  11 active torsions:
REMARK  status: ('A' for Active; 'I' for Inactive)
REMARK    1  A    between atoms: C_1  and  C_2
REMARK    2  A    between atoms: C_2  and  C_3
REMARK    3  A    between atoms: C_3  and  C_4
REMARK    4  A    between atoms: C_4  and  N_5
REMARK    5  A    between atoms: C_6  and  C_7
REMARK    6  A    between atoms: C_11  and  O_12
REMARK    7  A    between atoms: C_13  and  C_14
REMARK    8  A    between atoms: C_14  and  N_15
REMARK    9  A    between atoms: C_16  and  C_18
REMARK   10  A    between atoms: C_22  and  O_23
REMARK   11  A    between atoms: O_23  and  C_24
REMARK                            x       y       z     vdW  Elec       q    Type
REMARK                         _______ _______ _______ _____ _____    ______ ____
ROOT
ATOM      1  N   UNL     1       3.517   3.773  18.388  0.00  0.00    +0.000 N 
ATOM      2  C   UNL     1       3.400   2.490  18.997  0.00  0.00    +0.000 A 
ATOM      3  C   UNL     1       3.830   1.222  18.288  0.00  0.00    +0.000 C 
ATOM      4  C   UNL     1       2.876   2.313  20.222  0.00  0.00    +0.000 A 
ATOM      5  C   UNL     1       2.420   3.479  20.977  0.00  0.00    +0.000 A 
ATOM      6  O   UNL     1       1.848   3.369  22.060  0.00  0.00    +0.000 OA
ATOM      7  C   UNL     1       2.668   4.827  20.403  0.00  0.00    +0.000 A 
ATOM      8  C   UNL     1       3.196   4.943  19.161  0.00  0.00    +0.000 A 
ENDROOT
BRANCH   7   9
ATOM      9  O   UNL     1       2.269   5.901  21.178  0.00  0.00    +0.000 OA
ATOM     10  H   UNL     1       3.068   6.143  21.694  0.00  0.00    +0.000 HD
ENDBRANCH   7   9
BRANCH   1  11
ATOM     11  C   UNL     1       3.705   3.867  16.916  0.00  0.00    +0.000 C 
BRANCH  11  12
ATOM     12  C   UNL     1       5.194   4.021  16.569  0.00  0.00    +0.000 C 
BRANCH  12  14
ATOM     13  C   UNL     1       6.869   4.686  14.818  0.00  0.00    +0.000 C 
ATOM     14  C   UNL     1       5.395   4.467  15.124  0.00  0.00    +0.000 C 
ENDBRANCH  12  14
ENDBRANCH  11  12
ENDBRANCH   1  11
BRANCH   8  15
ATOM     15  C   UNL     1       3.336   6.364  18.586  0.00  0.00    +0.000 C 
BRANCH  15  16
ATOM     16  N   UNL     1       2.379   7.316  19.147  0.00  0.00    +0.000 N 
ATOM     17  C   UNL     1       2.020   8.445  18.409  0.00  0.00    +0.000 C 
ATOM     18  O   UNL     1       2.521   8.715  17.318  0.00  0.00    +0.000 OA
ATOM     19  H   UNL     1       1.745   6.974  19.855  0.00  0.00    +0.000 HD
BRANCH  17  20
ATOM     20  C   UNL     1       0.976   9.346  18.987  0.00  0.00    +0.000 A 
ATOM     21  C   UNL     1       0.810   9.433  20.374  0.00  0.00    +0.000 A 
ATOM     22  C   UNL     1      -0.150  10.288  20.914  0.00  0.00    +0.000 A 
ATOM     23  C   UNL     1      -0.939  11.071  20.074  0.00  0.00    +0.000 A 
ATOM     24  C   UNL     1      -0.768  11.027  18.687  0.00  0.00    +0.000 A 
ATOM     25  C   UNL     1       0.192  10.164  18.142  0.00  0.00    +0.000 A 
BRANCH  24  26
ATOM     26  O   UNL     1      -1.603  11.872  18.008  0.00  0.00    +0.000 OA
ATOM     27  C   UNL     1      -2.666  11.292  17.263  0.00  0.00    +0.000 C 
ENDBRANCH  24  26
ENDBRANCH  17  20
ENDBRANCH  15  16
ENDBRANCH   8  15
TORSDOF 8
ENDMDL
MODEL 9
REMARK VINA RESULT:      -6.8      2.665      7.363
REMARK  Name = 
REMARK  11 active torsions:
REMARK  status: ('A' for Active; 'I' for Inactive)
REMARK    1  A    between atoms: C_1  and  C_2
REMARK    2  A    between atoms: C_2  and  C_3
REMARK    3  A    between atoms: C_3  and  C_4
REMARK    4  A    between atoms: C_4  and  N_5
REMARK    5  A    between atoms: C_6  and  C_7
REMARK    6  A    between atoms: C_11  and  O_12
REMARK    7  A    between atoms: C_13  and  C_14
REMARK    8  A    between atoms: C_14  and  N_15
REMARK    9  A    between atoms: C_16  and  C_18
REMARK   10  A    between atoms: C_22  and  O_23
REMARK   11  A    between atoms: O_23  and  C_24
REMARK                            x       y       z     vdW  Elec       q    Type
REMARK                         _______ _______ _______ _____ _____    ______ ____
ROOT
ATOM      1  N   UNL     1       4.510   4.376  17.230  0.00  0.00    +0.000 N 
ATOM      2  C   UNL     1       5.479   4.245  16.194  0.00  0.00    +0.000 A 
ATOM      3  C   UNL     1       5.088   3.945  14.761  0.00  0.00    +0.000 C 
ATOM      4  C   UNL     1       6.801   4.349  16.418  0.00  0.00    +0.000 A 
ATOM      5  C   UNL     1       7.273   4.623  17.774  0.00  0.00    +0.000 A 
ATOM      6  O   UNL     1       8.471   4.636  18.055  0.00  0.00    +0.000 OA
ATOM      7  C   UNL     1       6.262   4.897  18.827  0.00  0.00    +0.000 A 
ATOM      8  C   UNL     1       4.943   4.774  18.543  0.00  0.00    +0.000 A 
ENDROOT
BRANCH   7   9
ATOM      9  O   UNL     1       6.758   5.206  20.081  0.00  0.00    +0.000 OA
ATOM     10  H   UNL     1       7.349   4.455  20.305  0.00  0.00    +0.000 HD
ENDBRANCH   7   9
BRANCH   1  11
ATOM     11  C   UNL     1       3.136   3.850  17.014  0.00  0.00    +0.000 C 
BRANCH  11  12
ATOM     12  C   UNL     1       3.059   2.365  17.400  0.00  0.00    +0.000 C 
BRANCH  12  14
ATOM     13  C   UNL     1       0.942   3.157  18.499  0.00  0.00    +0.000 C 
ATOM     14  C   UNL     1       2.059   2.125  18.528  0.00  0.00    +0.000 C 
ENDBRANCH  12  14
ENDBRANCH  11  12
ENDBRANCH   1  11
BRANCH   8  15
ATOM     15  C   UNL     1       3.951   4.975  19.703  0.00  0.00    +0.000 C 
BRANCH  15  16
ATOM     16  N   UNL     1       3.337   6.301  19.720  0.00  0.00    +0.000 N 
ATOM     17  C   UNL     1       2.107   6.480  20.356  0.00  0.00    +0.000 C 
ATOM     18  O   UNL     1       1.475   5.551  20.858  0.00  0.00    +0.000 OA
ATOM     19  H   UNL     1       3.949   7.097  19.607  0.00  0.00    +0.000 HD
BRANCH  17  20
ATOM     20  C   UNL     1       1.557   7.869  20.420  0.00  0.00    +0.000 A 
ATOM     21  C   UNL     1       1.011   8.356  21.614  0.00  0.00    +0.000 A 
ATOM     22  C   UNL     1       0.516   9.658  21.680  0.00  0.00    +0.000 A 
ATOM     23  C   UNL     1       0.577  10.485  20.560  0.00  0.00    +0.000 A 
ATOM     24  C   UNL     1       1.150  10.033  19.367  0.00  0.00    +0.000 A 
ATOM     25  C   UNL     1       1.642   8.723  19.297  0.00  0.00    +0.000 A 
BRANCH  24  26
ATOM     26  O   UNL     1       1.152  10.973  18.373  0.00  0.00    +0.000 OA
ATOM     27  C   UNL     1       1.234  12.339  18.756  0.00  0.00    +0.000 C 
ENDBRANCH  24  26
ENDBRANCH  17  20
ENDBRANCH  15  16
ENDBRANCH   8  15
TORSDOF 8
ENDMDL
