MODEL 1
REMARK VINA RESULT:      -7.6      0.000      0.000
REMARK  Name = 
REMARK  5 active torsions:
REMARK  status: ('A' for Active; 'I' for Inactive)
REMARK    1  A    between atoms: C_1  and  C_2
REMARK    2  A    between atoms: C_2  and  C_3
REMARK    3  A    between atoms: C_12  and  C_13
REMARK    4  A    between atoms: C_12  and  C_14
REMARK    5  A    between atoms: C_14  and  C_15
REMARK                            x       y       z     vdW  Elec       q    Type
REMARK                         _______ _______ _______ _____ _____    ______ ____
ROOT
ATOM      1  C   UNL     1       6.408   4.083  13.451  0.00  0.00    +0.000 A 
ATOM      2  C   UNL     1       5.279   3.580  14.135  0.00  0.00    +0.000 A 
ATOM      3  C   UNL     1       4.954   4.014  15.430  0.00  0.00    +0.000 A 
ATOM      4  C   UNL     1       5.780   4.946  16.033  0.00  0.00    +0.000 A 
ATOM      5  C   UNL     1       6.888   5.442  15.344  0.00  0.00    +0.000 A 
ATOM      6  C   UNL     1       7.223   5.042  14.069  0.00  0.00    +0.000 A 
ATOM      7  N   UNL     1       7.594   6.314  16.147  0.00  0.00    +0.000 N 
ATOM      8  C   UNL     1       7.048   6.398  17.417  0.00  0.00    +0.000 C 
ATOM      9  O   UNL     1       7.548   7.028  18.333  0.00  0.00    +0.000 OA
ATOM     10  C   UNL     1       5.754   5.534  17.439  0.00  0.00    +0.000 C 
ATOM     11  C   UNL     1       5.908   4.412  18.470  0.00  0.00    +0.000 C 
ATOM     12  H   UNL     1       8.463   6.769  15.901  0.00  0.00    +0.000 HD
ENDROOT
BRANCH   1  14
ATOM     13  C   UNL     1       5.891   2.387  11.678  0.00  0.00    +0.000 C 
ATOM     14  C   UNL     1       6.784   3.548  12.091  0.00  0.00    +0.000 C 
ENDBRANCH   1  14
BRANCH  10  15
ATOM     15  C   UNL     1       4.494   6.407  17.649  0.00  0.00    +0.000 C 
BRANCH  15  16
ATOM     16  C   UNL     1       3.423   5.766  18.496  0.00  0.00    +0.000 A 
ATOM     17  C   UNL     1       3.078   6.068  19.802  0.00  0.00    +0.000 A 
ATOM     18  C   UNL     1       2.108   5.167  20.332  0.00  0.00    +0.000 A 
ATOM     19  C   UNL     1       1.716   4.256  19.387  0.00  0.00    +0.000 A 
ATOM     20 CL   UNL     1       0.605   2.965  19.607  0.00  0.00    +0.000 Cl
ATOM     21  S   UNL     1       2.444   4.495  17.878  0.00  0.00    +0.000 S 
ENDBRANCH  15  16
ENDBRANCH  10  15
TORSDOF 3
ENDMDL
MODEL 2
REMARK VINA RESULT:      -7.4      0.822      1.027
REMARK  Name = 
REMARK  5 active torsions:
REMARK  status: ('A' for Active; 'I' for Inactive)
REMARK    1  A    between atoms: C_1  and  C_2
REMARK    2  A    between atoms: C_2  and  C_3
REMARK    3  A    between atoms: C_12  and  C_13
REMARK    4  A    between atoms: C_12  and  C_14
REMARK    5  A    between atoms: C_14  and  C_15
REMARK                            x       y       z     vdW  Elec       q    Type
REMARK                         _______ _______ _______ _____ _____    ______ ____
ROOT
ATOM      1  C   UNL     1       6.380   4.065  13.609  0.00  0.00    +0.000 A 
ATOM      2  C   UNL     1       5.373   3.457  14.392  0.00  0.00    +0.000 A 
ATOM      3  C   UNL     1       5.133   3.858  15.715  0.00  0.00    +0.000 A 
ATOM      4  C   UNL     1       5.920   4.864  16.246  0.00  0.00    +0.000 A 
ATOM      5  C   UNL     1       6.905   5.463  15.461  0.00  0.00    +0.000 A 
ATOM      6  C   UNL     1       7.155   5.097  14.157  0.00  0.00    +0.000 A 
ATOM      7  N   UNL     1       7.599   6.398  16.202  0.00  0.00    +0.000 N 
ATOM      8  C   UNL     1       7.170   6.430  17.518  0.00  0.00    +0.000 C 
ATOM      9  O   UNL     1       7.692   7.105  18.389  0.00  0.00    +0.000 OA
ATOM     10  C   UNL     1       5.971   5.447  17.654  0.00  0.00    +0.000 C 
ATOM     11  C   UNL     1       6.327   4.344  18.656  0.00  0.00    +0.000 C 
ATOM     12  H   UNL     1       8.394   6.934  15.880  0.00  0.00    +0.000 HD
ENDROOT
BRANCH   1  14
ATOM     13  C   UNL     1       5.580   2.642  11.706  0.00  0.00    +0.000 C 
ATOM     14  C   UNL     1       6.675   3.568  12.216  0.00  0.00    +0.000 C 
ENDBRANCH   1  14
BRANCH  10  15
ATOM     15  C   UNL     1       4.660   6.196  17.989  0.00  0.00    +0.000 C 
BRANCH  15  16
ATOM     16  C   UNL     1       3.515   5.302  18.398  0.00  0.00    +0.000 A 
ATOM     17  C   UNL     1       2.486   4.823  17.606  0.00  0.00    +0.000 A 
ATOM     18  C   UNL     1       1.504   4.114  18.359  0.00  0.00    +0.000 A 
ATOM     19  C   UNL     1       1.859   4.036  19.679  0.00  0.00    +0.000 A 
ATOM     20 CL   UNL     1       0.949   3.316  20.944  0.00  0.00    +0.000 Cl
ATOM     21  S   UNL     1       3.358   4.744  20.017  0.00  0.00    +0.000 S 
ENDBRANCH  15  16
ENDBRANCH  10  15
TORSDOF 3
ENDMDL
MODEL 3
REMARK VINA RESULT:      -7.2      3.119      3.914
REMARK  Name = 
REMARK  5 active torsions:
REMARK  status: ('A' for Active; 'I' for Inactive)
REMARK    1  A    between atoms: C_1  and  C_2
REMARK    2  A    between atoms: C_2  and  C_3
REMARK    3  A    between atoms: C_12  and  C_13
REMARK    4  A    between atoms: C_12  and  C_14
REMARK    5  A    between atoms: C_14  and  C_15
REMARK                            x       y       z     vdW  Elec       q    Type
REMARK                         _______ _______ _______ _____ _____    ______ ____
ROOT
ATOM      1  C   UNL     1       6.125   4.862  15.460  0.00  0.00    +0.000 A 
ATOM      2  C   UNL     1       5.313   6.017  15.518  0.00  0.00    +0.000 A 
ATOM      3  C   UNL     1       4.321   6.166  16.500  0.00  0.00    +0.000 A 
ATOM      4  C   UNL     1       4.146   5.142  17.413  0.00  0.00    +0.000 A 
ATOM      5  C   UNL     1       4.960   4.010  17.351  0.00  0.00    +0.000 A 
ATOM      6  C   UNL     1       5.947   3.842  16.405  0.00  0.00    +0.000 A 
ATOM      7  N   UNL     1       4.580   3.100  18.316  0.00  0.00    +0.000 N 
ATOM      8  C   UNL     1       3.469   3.533  19.022  0.00  0.00    +0.000 C 
ATOM      9  O   UNL     1       2.889   2.864  19.859  0.00  0.00    +0.000 OA
ATOM     10  C   UNL     1       3.112   4.963  18.518  0.00  0.00    +0.000 C 
ATOM     11  C   UNL     1       1.706   4.953  17.912  0.00  0.00    +0.000 C 
ATOM     12  H   UNL     1       4.978   2.180  18.448  0.00  0.00    +0.000 HD
ENDROOT
BRANCH   1  14
ATOM     13  C   UNL     1       6.539   3.935  13.167  0.00  0.00    +0.000 C 
ATOM     14  C   UNL     1       7.132   4.685  14.351  0.00  0.00    +0.000 C 
ENDBRANCH   1  14
BRANCH  10  15
ATOM     15  C   UNL     1       3.306   6.019  19.631  0.00  0.00    +0.000 C 
BRANCH  15  16
ATOM     16  C   UNL     1       2.442   7.247  19.486  0.00  0.00    +0.000 A 
ATOM     17  C   UNL     1       2.330   8.083  18.387  0.00  0.00    +0.000 A 
ATOM     18  C   UNL     1       1.520   9.226  18.652  0.00  0.00    +0.000 A 
ATOM     19  C   UNL     1       1.004   9.179  19.921  0.00  0.00    +0.000 A 
ATOM     20 CL   UNL     1       0.017  10.367  20.670  0.00  0.00    +0.000 Cl
ATOM     21  S   UNL     1       1.428   7.778  20.769  0.00  0.00    +0.000 S 
ENDBRANCH  15  16
ENDBRANCH  10  15
TORSDOF 3
ENDMDL
MODEL 4
REMARK VINA RESULT:      -7.2      3.092      4.494
REMARK  Name = 
REMARK  5 active torsions:
REMARK  status: ('A' for Active; 'I' for Inactive)
REMARK    1  A    between atoms: C_1  and  C_2
REMARK    2  A    between atoms: C_2  and  C_3
REMARK    3  A    between atoms: C_12  and  C_13
REMARK    4  A    between atoms: C_12  and  C_14
REMARK    5  A    between atoms: C_14  and  C_15
REMARK                            x       y       z     vdW  Elec       q    Type
REMARK                         _______ _______ _______ _____ _____    ______ ____
ROOT
ATOM      1  C   UNL     1       7.201   6.759  18.193  0.00  0.00    +0.000 A 
ATOM      2  C   UNL     1       6.425   6.969  17.031  0.00  0.00    +0.000 A 
ATOM      3  C   UNL     1       5.357   6.122  16.700  0.00  0.00    +0.000 A 
ATOM      4  C   UNL     1       5.083   5.057  17.540  0.00  0.00    +0.000 A 
ATOM      5  C   UNL     1       5.851   4.865  18.690  0.00  0.00    +0.000 A 
ATOM      6  C   UNL     1       6.898   5.687  19.043  0.00  0.00    +0.000 A 
ATOM      7  N   UNL     1       5.441   3.722  19.348  0.00  0.00    +0.000 N 
ATOM      8  C   UNL     1       4.440   3.063  18.655  0.00  0.00    +0.000 C 
ATOM      9  O   UNL     1       3.981   1.982  18.983  0.00  0.00    +0.000 OA
ATOM     10  C   UNL     1       4.072   3.924  17.411  0.00  0.00    +0.000 C 
ATOM     11  C   UNL     1       4.353   3.125  16.135  0.00  0.00    +0.000 C 
ATOM     12  H   UNL     1       5.868   3.336  20.179  0.00  0.00    +0.000 HD
ENDROOT
BRANCH   1  14
ATOM     13  C   UNL     1       8.198   9.048  17.961  0.00  0.00    +0.000 C 
ATOM     14  C   UNL     1       8.393   7.634  18.490  0.00  0.00    +0.000 C 
ENDBRANCH   1  14
BRANCH  10  15
ATOM     15  C   UNL     1       2.625   4.463  17.505  0.00  0.00    +0.000 C 
BRANCH  15  16
ATOM     16  C   UNL     1       2.314   5.203  18.782  0.00  0.00    +0.000 A 
ATOM     17  C   UNL     1       1.903   4.673  19.993  0.00  0.00    +0.000 A 
ATOM     18  C   UNL     1       1.571   5.682  20.945  0.00  0.00    +0.000 A 
ATOM     19  C   UNL     1       1.800   6.932  20.436  0.00  0.00    +0.000 A 
ATOM     20 CL   UNL     1       1.496   8.429  21.219  0.00  0.00    +0.000 Cl
ATOM     21  S   UNL     1       2.449   6.914  18.873  0.00  0.00    +0.000 S 
ENDBRANCH  15  16
ENDBRANCH  10  15
TORSDOF 3
ENDMDL
MODEL 5
REMARK VINA RESULT:      -7.1      1.089      1.273
REMARK  Name = 
REMARK  5 active torsions:
REMARK  status: ('A' for Active; 'I' for Inactive)
REMARK    1  A    between atoms: C_1  and  C_2
REMARK    2  A    between atoms: C_2  and  C_3
REMARK    3  A    between atoms: C_12  and  C_13
REMARK    4  A    between atoms: C_12  and  C_14
REMARK    5  A    between atoms: C_14  and  C_15
REMARK                            x       y       z     vdW  Elec       q    Type
REMARK                         _______ _______ _______ _____ _____    ______ ____
ROOT
ATOM      1  C   UNL     1       6.612   4.610  14.359  0.00  0.00    +0.000 A 
ATOM      2  C   UNL     1       5.340   4.114  14.723  0.00  0.00    +0.000 A 
ATOM      3  C   UNL     1       4.886   4.166  16.049  0.00  0.00    +0.000 A 
ATOM      4  C   UNL     1       5.725   4.709  17.006  0.00  0.00    +0.000 A 
ATOM      5  C   UNL     1       6.975   5.204  16.634  0.00  0.00    +0.000 A 
ATOM      6  C   UNL     1       7.441   5.175  15.338  0.00  0.00    +0.000 A 
ATOM      7  N   UNL     1       7.661   5.647  17.746  0.00  0.00    +0.000 N 
ATOM      8  C   UNL     1       6.949   5.418  18.912  0.00  0.00    +0.000 C 
ATOM      9  O   UNL     1       7.383   5.634  20.030  0.00  0.00    +0.000 OA
ATOM     10  C   UNL     1       5.566   4.820  18.518  0.00  0.00    +0.000 C 
ATOM     11  C   UNL     1       5.424   3.421  19.125  0.00  0.00    +0.000 C 
ATOM     12  H   UNL     1       8.606   6.005  17.752  0.00  0.00    +0.000 HD
ENDROOT
BRANCH   1  14
ATOM     13  C   UNL     1       6.323   3.434  12.163  0.00  0.00    +0.000 C 
ATOM     14  C   UNL     1       7.114   4.475  12.942  0.00  0.00    +0.000 C 
ENDBRANCH   1  14
BRANCH  10  15
ATOM     15  C   UNL     1       4.410   5.780  18.883  0.00  0.00    +0.000 C 
BRANCH  15  16
ATOM     16  C   UNL     1       3.132   5.092  19.295  0.00  0.00    +0.000 A 
ATOM     17  C   UNL     1       2.495   5.149  20.523  0.00  0.00    +0.000 A 
ATOM     18  C   UNL     1       1.379   4.263  20.599  0.00  0.00    +0.000 A 
ATOM     19  C   UNL     1       1.183   3.618  19.407  0.00  0.00    +0.000 A 
ATOM     20 CL   UNL     1      -0.014   2.434  19.068  0.00  0.00    +0.000 Cl
ATOM     21  S   UNL     1       2.268   4.089  18.198  0.00  0.00    +0.000 S 
ENDBRANCH  15  16
ENDBRANCH  10  15
TORSDOF 3
ENDMDL
MODEL 6
REMARK VINA RESULT:      -6.9      3.011      3.708
REMARK  Name = 
REMARK  5 active torsions:
REMARK  status: ('A' for Active; 'I' for Inactive)
REMARK    1  A    between atoms: C_1  and  C_2
REMARK    2  A    between atoms: C_2  and  C_3
REMARK    3  A    between atoms: C_12  and  C_13
REMARK    4  A    between atoms: C_12  and  C_14
REMARK    5  A    between atoms: C_14  and  C_15
REMARK                            x       y       z     vdW  Elec       q    Type
REMARK                         _______ _______ _______ _____ _____    ______ ____
ROOT
ATOM      1  C   UNL     1       6.030   4.734  15.101  0.00  0.00    +0.000 A 
ATOM      2  C   UNL     1       5.355   5.954  15.329  0.00  0.00    +0.000 A 
ATOM      3  C   UNL     1       4.430   6.095  16.374  0.00  0.00    +0.000 A 
ATOM      4  C   UNL     1       4.181   4.997  17.179  0.00  0.00    +0.000 A 
ATOM      5  C   UNL     1       4.860   3.800  16.949  0.00  0.00    +0.000 A 
ATOM      6  C   UNL     1       5.781   3.638  15.938  0.00  0.00    +0.000 A 
ATOM      7  N   UNL     1       4.423   2.831  17.829  0.00  0.00    +0.000 N 
ATOM      8  C   UNL     1       3.400   3.296  18.638  0.00  0.00    +0.000 C 
ATOM      9  O   UNL     1       2.785   2.601  19.428  0.00  0.00    +0.000 OA
ATOM     10  C   UNL     1       3.183   4.804  18.314  0.00  0.00    +0.000 C 
ATOM     11  C   UNL     1       1.759   5.013  17.789  0.00  0.00    +0.000 C 
ATOM     12  H   UNL     1       4.721   1.865  17.838  0.00  0.00    +0.000 HD
ENDROOT
BRANCH   1  14
ATOM     13  C   UNL     1       6.349   3.719  12.830  0.00  0.00    +0.000 C 
ATOM     14  C   UNL     1       6.963   4.580  13.925  0.00  0.00    +0.000 C 
ENDBRANCH   1  14
BRANCH  10  15
ATOM     15  C   UNL     1       3.541   5.699  19.523  0.00  0.00    +0.000 C 
BRANCH  15  16
ATOM     16  C   UNL     1       2.630   6.888  19.712  0.00  0.00    +0.000 A 
ATOM     17  C   UNL     1       1.837   7.184  20.807  0.00  0.00    +0.000 A 
ATOM     18  C   UNL     1       1.003   8.320  20.584  0.00  0.00    +0.000 A 
ATOM     19  C   UNL     1       1.243   8.871  19.354  0.00  0.00    +0.000 A 
ATOM     20 CL   UNL     1       0.435  10.217  18.659  0.00  0.00    +0.000 Cl
ATOM     21  S   UNL     1       2.473   8.090  18.493  0.00  0.00    +0.000 S 
ENDBRANCH  15  16
ENDBRANCH  10  15
TORSDOF 3
ENDMDL
MODEL 7
REMARK VINA RESULT:      -6.8      3.335      6.290
REMARK  Name = 
REMARK  5 active torsions:
REMARK  status: ('A' for Active; 'I' for Inactive)
REMARK    1  A    between atoms: C_1  and  C_2
REMARK    2  A    between atoms: C_2  and  C_3
REMARK    3  A    between atoms: C_12  and  C_13
REMARK    4  A    between atoms: C_12  and  C_14
REMARK    5  A    between atoms: C_14  and  C_15
REMARK                            x       y       z     vdW  Elec       q    Type
REMARK                         _______ _______ _______ _____ _____    ______ ____
ROOT
ATOM      1  C   UNL     1       2.332   3.394  19.253  0.00  0.00    +0.000 A 
ATOM      2  C   UNL     1       2.296   3.291  17.844  0.00  0.00    +0.000 A 
ATOM      3  C   UNL     1       3.335   3.793  17.046  0.00  0.00    +0.000 A 
ATOM      4  C   UNL     1       4.403   4.408  17.675  0.00  0.00    +0.000 A 
ATOM      5  C   UNL     1       4.432   4.495  19.068  0.00  0.00    +0.000 A 
ATOM      6  C   UNL     1       3.431   4.002  19.875  0.00  0.00    +0.000 A 
ATOM      7  N   UNL     1       5.554   5.188  19.476  0.00  0.00    +0.000 N 
ATOM      8  C   UNL     1       6.290   5.651  18.399  0.00  0.00    +0.000 C 
ATOM      9  O   UNL     1       7.270   6.370  18.501  0.00  0.00    +0.000 OA
ATOM     10  C   UNL     1       5.617   5.125  17.097  0.00  0.00    +0.000 C 
ATOM     11  C   UNL     1       5.158   6.312  16.245  0.00  0.00    +0.000 C 
ATOM     12  H   UNL     1       5.782   5.430  20.431  0.00  0.00    +0.000 HD
ENDROOT
BRANCH   1  14
ATOM     13  C   UNL     1       1.530   2.847  21.565  0.00  0.00    +0.000 C 
ATOM     14  C   UNL     1       1.170   2.917  20.088  0.00  0.00    +0.000 C 
ENDBRANCH   1  14
BRANCH  10  15
ATOM     15  C   UNL     1       6.537   4.135  16.346  0.00  0.00    +0.000 C 
BRANCH  15  16
ATOM     16  C   UNL     1       6.392   4.163  14.844  0.00  0.00    +0.000 A 
ATOM     17  C   UNL     1       5.440   3.521  14.070  0.00  0.00    +0.000 A 
ATOM     18  C   UNL     1       5.689   3.662  12.673  0.00  0.00    +0.000 A 
ATOM     19  C   UNL     1       6.784   4.453  12.446  0.00  0.00    +0.000 A 
ATOM     20 CL   UNL     1       7.466   4.847  10.920  0.00  0.00    +0.000 Cl
ATOM     21  S   UNL     1       7.478   5.064  13.863  0.00  0.00    +0.000 S 
ENDBRANCH  15  16
ENDBRANCH  10  15
TORSDOF 3
ENDMDL
MODEL 8
REMARK VINA RESULT:      -6.8      3.452      6.510
REMARK  Name = 
REMARK  5 active torsions:
REMARK  status: ('A' for Active; 'I' for Inactive)
REMARK    1  A    between atoms: C_1  and  C_2
REMARK    2  A    between atoms: C_2  and  C_3
REMARK    3  A    between atoms: C_12  and  C_13
REMARK    4  A    between atoms: C_12  and  C_14
REMARK    5  A    between atoms: C_14  and  C_15
REMARK                            x       y       z     vdW  Elec       q    Type
REMARK                         _______ _______ _______ _____ _____    ______ ____
ROOT
ATOM      1  C   UNL     1       2.182   3.172  19.351  0.00  0.00    +0.000 A 
ATOM      2  C   UNL     1       1.835   3.408  18.001  0.00  0.00    +0.000 A 
ATOM      3  C   UNL     1       2.795   3.802  17.057  0.00  0.00    +0.000 A 
ATOM      4  C   UNL     1       4.101   3.967  17.483  0.00  0.00    +0.000 A 
ATOM      5  C   UNL     1       4.433   3.722  18.816  0.00  0.00    +0.000 A 
ATOM      6  C   UNL     1       3.513   3.324  19.760  0.00  0.00    +0.000 A 
ATOM      7  N   UNL     1       5.768   3.997  19.030  0.00  0.00    +0.000 N 
ATOM      8  C   UNL     1       6.378   4.496  17.891  0.00  0.00    +0.000 C 
ATOM      9  O   UNL     1       7.527   4.901  17.854  0.00  0.00    +0.000 OA
ATOM     10  C   UNL     1       5.332   4.469  16.737  0.00  0.00    +0.000 C 
ATOM     11  C   UNL     1       5.087   5.896  16.239  0.00  0.00    +0.000 C 
ATOM     12  H   UNL     1       6.245   3.949  19.920  0.00  0.00    +0.000 HD
ENDROOT
BRANCH   1  14
ATOM     13  C   UNL     1       1.728   2.530  21.732  0.00  0.00    +0.000 C 
ATOM     14  C   UNL     1       1.122   2.824  20.367  0.00  0.00    +0.000 C 
ENDBRANCH   1  14
BRANCH  10  15
ATOM     15  C   UNL     1       5.744   3.479  15.623  0.00  0.00    +0.000 C 
BRANCH  15  16
ATOM     16  C   UNL     1       6.528   4.101  14.493  0.00  0.00    +0.000 A 
ATOM     17  C   UNL     1       7.604   4.967  14.581  0.00  0.00    +0.000 A 
ATOM     18  C   UNL     1       8.011   5.461  13.307  0.00  0.00    +0.000 A 
ATOM     19  C   UNL     1       7.266   4.903  12.302  0.00  0.00    +0.000 A 
ATOM     20 CL   UNL     1       7.386   5.246  10.624  0.00  0.00    +0.000 Cl
ATOM     21  S   UNL     1       6.135   3.771  12.852  0.00  0.00    +0.000 S 
ENDBRANCH  15  16
ENDBRANCH  10  15
TORSDOF 3
ENDMDL
MODEL 9
REMARK VINA RESULT:      -6.7      2.894      5.922
REMARK  Name = 
REMARK  5 active torsions:
REMARK  status: ('A' for Active; 'I' for Inactive)
REMARK    1  A    between atoms: C_1  and  C_2
REMARK    2  A    between atoms: C_2  and  C_3
REMARK    3  A    between atoms: C_12  and  C_13
REMARK    4  A    between atoms: C_12  and  C_14
REMARK    5  A    between atoms: C_14  and  C_15
REMARK                            x       y       z     vdW  Elec       q    Type
REMARK                         _______ _______ _______ _____ _____    ______ ____
ROOT
ATOM      1  C   UNL     1       2.312   3.792  18.392  0.00  0.00    +0.000 A 
ATOM      2  C   UNL     1       2.168   5.162  18.077  0.00  0.00    +0.000 A 
ATOM      3  C   UNL     1       3.222   5.899  17.518  0.00  0.00    +0.000 A 
ATOM      4  C   UNL     1       4.423   5.252  17.290  0.00  0.00    +0.000 A 
ATOM      5  C   UNL     1       4.551   3.896  17.596  0.00  0.00    +0.000 A 
ATOM      6  C   UNL     1       3.529   3.147  18.136  0.00  0.00    +0.000 A 
ATOM      7  N   UNL     1       5.839   3.471  17.339  0.00  0.00    +0.000 N 
ATOM      8  C   UNL     1       6.648   4.513  16.917  0.00  0.00    +0.000 C 
ATOM      9  O   UNL     1       7.846   4.409  16.720  0.00  0.00    +0.000 OA
ATOM     10  C   UNL     1       5.761   5.787  16.793  0.00  0.00    +0.000 C 
ATOM     11  C   UNL     1       6.276   6.862  17.755  0.00  0.00    +0.000 C 
ATOM     12  H   UNL     1       6.202   2.546  17.524  0.00  0.00    +0.000 HD
ENDROOT
BRANCH   1  14
ATOM     13  C   UNL     1       1.066   3.408  20.534  0.00  0.00    +0.000 C 
ATOM     14  C   UNL     1       1.192   3.036  19.064  0.00  0.00    +0.000 C 
ENDBRANCH   1  14
BRANCH  10  15
ATOM     15  C   UNL     1       5.655   6.261  15.325  0.00  0.00    +0.000 C 
BRANCH  15  16
ATOM     16  C   UNL     1       6.086   5.237  14.304  0.00  0.00    +0.000 A 
ATOM     17  C   UNL     1       7.287   5.173  13.618  0.00  0.00    +0.000 A 
ATOM     18  C   UNL     1       7.296   4.146  12.630  0.00  0.00    +0.000 A 
ATOM     19  C   UNL     1       6.125   3.437  12.647  0.00  0.00    +0.000 A 
ATOM     20 CL   UNL     1       5.691   2.147  11.600  0.00  0.00    +0.000 Cl
ATOM     21  S   UNL     1       5.049   3.943  13.851  0.00  0.00    +0.000 S 
ENDBRANCH  15  16
ENDBRANCH  10  15
TORSDOF 3
ENDMDL
