MODEL 1
REMARK VINA RESULT:      -8.6      0.000      0.000
REMARK  Name = 
REMARK  6 active torsions:
REMARK  status: ('A' for Active; 'I' for Inactive)
REMARK    1  A    between atoms: C_2  and  C_10
REMARK    2  A    between atoms: C_10  and  O_11
REMARK    3  A    between atoms: C_10  and  C_18
REMARK    4  A    between atoms: O_11  and  C_12
REMARK    5  A    between atoms: C_21  and  S_22
REMARK    6  A    between atoms: S_22  and  N_25
REMARK                            x       y       z     vdW  Elec       q    Type
REMARK                         _______ _______ _______ _____ _____    ______ ____
ROOT
ATOM      1  C   UNL     1       0.408  10.313  19.549  0.00  0.00    +0.000 C 
ENDROOT
BRANCH   1   3
ATOM      2  O   UNL     1       0.885  11.524  21.585  0.00  0.00    +0.000 OA
ATOM      3  C   UNL     1       1.049  11.458  20.365  0.00  0.00    +0.000 C 
ATOM      4  N   UNL     1       1.783  12.363  19.622  0.00  0.00    +0.000 N 
ATOM      5  C   UNL     1       2.276  13.484  20.234  0.00  0.00    +0.000 A 
ATOM      6  N   UNL     1       2.327  13.734  21.519  0.00  0.00    +0.000 NA
ATOM      7  C   UNL     1       2.690  15.047  21.718  0.00  0.00    +0.000 A 
ATOM      8  C   UNL     1       2.960  15.739  20.565  0.00  0.00    +0.000 A 
ATOM      9  F   UNL     1       3.272  17.006  20.525  0.00  0.00    +0.000 F 
ATOM     10  S   UNL     1       2.814  14.731  19.199  0.00  0.00    +0.000 S 
ATOM     11  H   UNL     1       1.828  12.320  18.612  0.00  0.00    +0.000 HD
ENDBRANCH   1   3
BRANCH   1  12
ATOM     12  C   UNL     1       1.327   9.121  19.248  0.00  0.00    +0.000 A 
ATOM     13  C   UNL     1       1.929   8.901  17.995  0.00  0.00    +0.000 A 
ATOM     14  C   UNL     1       2.669   7.741  17.744  0.00  0.00    +0.000 A 
ATOM     15  C   UNL     1       2.834   6.796  18.754  0.00  0.00    +0.000 A 
ATOM     16  C   UNL     1       2.245   6.989  20.003  0.00  0.00    +0.000 A 
ATOM     17  C   UNL     1       1.511   8.150  20.251  0.00  0.00    +0.000 A 
BRANCH  15  18
ATOM     18  S   UNL     1       3.678   5.269  18.406  0.00  0.00    +0.000 S 
ATOM     19  O   UNL     1       4.007   4.678  19.686  0.00  0.00    +0.000 OA
ATOM     20  O   UNL     1       2.897   4.556  17.424  0.00  0.00    +0.000 OA
BRANCH  18  21
ATOM     21  N   UNL     1       5.100   5.748  17.667  0.00  0.00    +0.000 NA
ATOM     22  C   UNL     1       5.232   5.811  16.198  0.00  0.00    +0.000 C 
ATOM     23  C   UNL     1       6.288   4.825  15.695  0.00  0.00    +0.000 C 
ATOM     24  O   UNL     1       7.539   5.000  16.368  0.00  0.00    +0.000 OA
ATOM     25  C   UNL     1       7.392   4.802  17.782  0.00  0.00    +0.000 C 
ATOM     26  C   UNL     1       6.382   5.777  18.397  0.00  0.00    +0.000 C 
ENDBRANCH  18  21
ENDBRANCH  15  18
ENDBRANCH   1  12
BRANCH   1  27
ATOM     27  O   UNL     1      -0.290  10.746  18.374  0.00  0.00    +0.000 OA
BRANCH  27  28
ATOM     28  C   UNL     1      -1.704  10.473  18.275  0.00  0.00    +0.000 C 
ATOM     29  C   UNL     1      -1.952  10.016  16.831  0.00  0.00    +0.000 C 
ATOM     30  C   UNL     1      -3.431   9.990  16.480  0.00  0.00    +0.000 C 
ATOM     31  O   UNL     1      -4.027  11.258  16.734  0.00  0.00    +0.000 OA
ATOM     32  C   UNL     1      -4.015  11.563  18.124  0.00  0.00    +0.000 C 
ATOM     33  C   UNL     1      -2.593  11.669  18.636  0.00  0.00    +0.000 C 
ENDBRANCH  27  28
ENDBRANCH   1  27
TORSDOF 6
ENDMDL
MODEL 2
REMARK VINA RESULT:      -8.6      3.832      9.115
REMARK  Name = 
REMARK  6 active torsions:
REMARK  status: ('A' for Active; 'I' for Inactive)
REMARK    1  A    between atoms: C_2  and  C_10
REMARK    2  A    between atoms: C_10  and  O_11
REMARK    3  A    between atoms: C_10  and  C_18
REMARK    4  A    between atoms: O_11  and  C_12
REMARK    5  A    between atoms: C_21  and  S_22
REMARK    6  A    between atoms: S_22  and  N_25
REMARK                            x       y       z     vdW  Elec       q    Type
REMARK                         _______ _______ _______ _____ _____    ______ ____
ROOT
ATOM      1  C   UNL     1       3.661   5.622  18.381  0.00  0.00    +0.000 C 
ENDROOT
BRANCH   1   3
ATOM      2  O   UNL     1       5.748   6.565  17.610  0.00  0.00    +0.000 OA
ATOM      3  C   UNL     1       4.889   5.696  17.446  0.00  0.00    +0.000 C 
ATOM      4  N   UNL     1       4.920   4.741  16.447  0.00  0.00    +0.000 N 
ATOM      5  C   UNL     1       5.896   4.809  15.489  0.00  0.00    +0.000 A 
ATOM      6  N   UNL     1       6.970   5.560  15.496  0.00  0.00    +0.000 NA
ATOM      7  C   UNL     1       7.581   5.498  14.265  0.00  0.00    +0.000 A 
ATOM      8  C   UNL     1       6.976   4.648  13.375  0.00  0.00    +0.000 A 
ATOM      9  F   UNL     1       7.363   4.481  12.139  0.00  0.00    +0.000 F 
ATOM     10  S   UNL     1       5.644   3.862  14.091  0.00  0.00    +0.000 S 
ATOM     11  H   UNL     1       4.156   4.095  16.295  0.00  0.00    +0.000 HD
ENDBRANCH   1   3
BRANCH   1  12
ATOM     12  C   UNL     1       2.884   6.935  18.555  0.00  0.00    +0.000 A 
ATOM     13  C   UNL     1       2.838   7.947  17.578  0.00  0.00    +0.000 A 
ATOM     14  C   UNL     1       2.205   9.167  17.834  0.00  0.00    +0.000 A 
ATOM     15  C   UNL     1       1.588   9.380  19.065  0.00  0.00    +0.000 A 
ATOM     16  C   UNL     1       1.623   8.394  20.051  0.00  0.00    +0.000 A 
ATOM     17  C   UNL     1       2.251   7.176  19.790  0.00  0.00    +0.000 A 
BRANCH  15  18
ATOM     18  S   UNL     1       0.881  10.970  19.436  0.00  0.00    +0.000 S 
ATOM     19  O   UNL     1       1.144  11.222  20.836  0.00  0.00    +0.000 OA
ATOM     20  O   UNL     1       1.314  11.887  18.410  0.00  0.00    +0.000 OA
BRANCH  18  21
ATOM     21  N   UNL     1      -0.764  10.740  19.242  0.00  0.00    +0.000 NA
ATOM     22  C   UNL     1      -1.332  10.166  18.006  0.00  0.00    +0.000 C 
ATOM     23  C   UNL     1      -2.240  11.172  17.296  0.00  0.00    +0.000 C 
ATOM     24  O   UNL     1      -3.245  11.689  18.175  0.00  0.00    +0.000 OA
ATOM     25  C   UNL     1      -2.651  12.352  19.300  0.00  0.00    +0.000 C 
ATOM     26  C   UNL     1      -1.749  11.414  20.110  0.00  0.00    +0.000 C 
ENDBRANCH  18  21
ENDBRANCH  15  18
ENDBRANCH   1  12
BRANCH   1  27
ATOM     27  O   UNL     1       3.918   4.995  19.644  0.00  0.00    +0.000 OA
BRANCH  27  28
ATOM     28  C   UNL     1       3.220   3.770  19.957  0.00  0.00    +0.000 C 
ATOM     29  C   UNL     1       2.448   3.382  18.689  0.00  0.00    +0.000 C 
ATOM     30  C   UNL     1       1.422   2.292  18.950  0.00  0.00    +0.000 C 
ATOM     31  O   UNL     1       0.539   2.678  19.998  0.00  0.00    +0.000 OA
ATOM     32  C   UNL     1       1.230   2.793  21.236  0.00  0.00    +0.000 C 
ATOM     33  C   UNL     1       2.279   3.884  21.162  0.00  0.00    +0.000 C 
ENDBRANCH  27  28
ENDBRANCH   1  27
TORSDOF 6
ENDMDL
MODEL 3
REMARK VINA RESULT:      -8.5      0.588      1.037
REMARK  Name = 
REMARK  6 active torsions:
REMARK  status: ('A' for Active; 'I' for Inactive)
REMARK    1  A    between atoms: C_2  and  C_10
REMARK    2  A    between atoms: C_10  and  O_11
REMARK    3  A    between atoms: C_10  and  C_18
REMARK    4  A    between atoms: O_11  and  C_12
REMARK    5  A    between atoms: C_21  and  S_22
REMARK    6  A    between atoms: S_22  and  N_25
REMARK                            x       y       z     vdW  Elec       q    Type
REMARK                         _______ _______ _______ _____ _____    ______ ____
ROOT
ATOM      1  C   UNL     1       0.368  10.193  19.480  0.00  0.00    +0.000 C 
ENDROOT
BRANCH   1   3
ATOM      2  O   UNL     1       1.083  11.376  21.462  0.00  0.00    +0.000 OA
ATOM      3  C   UNL     1       1.082  11.339  20.230  0.00  0.00    +0.000 C 
ATOM      4  N   UNL     1       1.682  12.283  19.417  0.00  0.00    +0.000 N 
ATOM      5  C   UNL     1       2.222  13.406  19.985  0.00  0.00    +0.000 A 
ATOM      6  N   UNL     1       2.441  13.630  21.258  0.00  0.00    +0.000 NA
ATOM      7  C   UNL     1       2.790  14.949  21.438  0.00  0.00    +0.000 A 
ATOM      8  C   UNL     1       2.882  15.673  20.278  0.00  0.00    +0.000 A 
ATOM      9  F   UNL     1       3.150  16.950  20.228  0.00  0.00    +0.000 F 
ATOM     10  S   UNL     1       2.580  14.690  18.919  0.00  0.00    +0.000 S 
ATOM     11  H   UNL     1       1.591  12.263  18.410  0.00  0.00    +0.000 HD
ENDBRANCH   1   3
BRANCH   1  12
ATOM     12  C   UNL     1       1.207   8.927  19.256  0.00  0.00    +0.000 A 
ATOM     13  C   UNL     1       1.460   7.974  20.260  0.00  0.00    +0.000 A 
ATOM     14  C   UNL     1       2.321   6.896  20.030  0.00  0.00    +0.000 A 
ATOM     15  C   UNL     1       2.920   6.745  18.781  0.00  0.00    +0.000 A 
ATOM     16  C   UNL     1       2.687   7.678  17.771  0.00  0.00    +0.000 A 
ATOM     17  C   UNL     1       1.824   8.750  18.002  0.00  0.00    +0.000 A 
BRANCH  15  18
ATOM     18  S   UNL     1       4.102   5.441  18.520  0.00  0.00    +0.000 S 
ATOM     19  O   UNL     1       4.938   5.400  19.700  0.00  0.00    +0.000 OA
ATOM     20  O   UNL     1       3.373   4.280  18.070  0.00  0.00    +0.000 OA
BRANCH  18  21
ATOM     21  N   UNL     1       5.028   5.981  17.236  0.00  0.00    +0.000 NA
ATOM     22  C   UNL     1       5.128   5.224  15.973  0.00  0.00    +0.000 C 
ATOM     23  C   UNL     1       6.562   4.756  15.720  0.00  0.00    +0.000 C 
ATOM     24  O   UNL     1       7.492   5.843  15.785  0.00  0.00    +0.000 OA
ATOM     25  C   UNL     1       7.456   6.472  17.075  0.00  0.00    +0.000 C 
ATOM     26  C   UNL     1       6.064   7.018  17.409  0.00  0.00    +0.000 C 
ENDBRANCH  18  21
ENDBRANCH  15  18
ENDBRANCH   1  12
BRANCH   1  27
ATOM     27  O   UNL     1      -0.297  10.600  18.276  0.00  0.00    +0.000 OA
BRANCH  27  28
ATOM     28  C   UNL     1      -1.716  10.362  18.162  0.00  0.00    +0.000 C 
ATOM     29  C   UNL     1      -1.974  10.007  16.691  0.00  0.00    +0.000 C 
ATOM     30  C   UNL     1      -3.452  10.034  16.342  0.00  0.00    +0.000 C 
ATOM     31  O   UNL     1      -4.023  11.294  16.680  0.00  0.00    +0.000 OA
ATOM     32  C   UNL     1      -4.005  11.505  18.087  0.00  0.00    +0.000 C 
ATOM     33  C   UNL     1      -2.581  11.549  18.602  0.00  0.00    +0.000 C 
ENDBRANCH  27  28
ENDBRANCH   1  27
TORSDOF 6
ENDMDL
MODEL 4
REMARK VINA RESULT:      -8.5      1.647      2.540
REMARK  Name = 
REMARK  6 active torsions:
REMARK  status: ('A' for Active; 'I' for Inactive)
REMARK    1  A    between atoms: C_2  and  C_10
REMARK    2  A    between atoms: C_10  and  O_11
REMARK    3  A    between atoms: C_10  and  C_18
REMARK    4  A    between atoms: O_11  and  C_12
REMARK    5  A    between atoms: C_21  and  S_22
REMARK    6  A    between atoms: S_22  and  N_25
REMARK                            x       y       z     vdW  Elec       q    Type
REMARK                         _______ _______ _______ _____ _____    ______ ____
ROOT
ATOM      1  C   UNL     1       0.460   9.975  19.511  0.00  0.00    +0.000 C 
ENDROOT
BRANCH   1   3
ATOM      2  O   UNL     1       1.191  11.095  21.523  0.00  0.00    +0.000 OA
ATOM      3  C   UNL     1       1.107  11.139  20.294  0.00  0.00    +0.000 C 
ATOM      4  N   UNL     1       1.549  12.191  19.514  0.00  0.00    +0.000 N 
ATOM      5  C   UNL     1       2.013  13.325  20.126  0.00  0.00    +0.000 A 
ATOM      6  N   UNL     1       2.298  13.488  21.394  0.00  0.00    +0.000 NA
ATOM      7  C   UNL     1       2.525  14.822  21.646  0.00  0.00    +0.000 A 
ATOM      8  C   UNL     1       2.461  15.625  20.537  0.00  0.00    +0.000 A 
ATOM      9  F   UNL     1       2.595  16.924  20.563  0.00  0.00    +0.000 F 
ATOM     10  S   UNL     1       2.163  14.707  19.134  0.00  0.00    +0.000 S 
ATOM     11  H   UNL     1       1.389  12.227  18.516  0.00  0.00    +0.000 HD
ENDBRANCH   1   3
BRANCH   1  12
ATOM     12  C   UNL     1       1.370   8.766  19.252  0.00  0.00    +0.000 A 
ATOM     13  C   UNL     1       1.618   7.762  20.206  0.00  0.00    +0.000 A 
ATOM     14  C   UNL     1       2.541   6.741  19.955  0.00  0.00    +0.000 A 
ATOM     15  C   UNL     1       3.210   6.701  18.733  0.00  0.00    +0.000 A 
ATOM     16  C   UNL     1       2.984   7.687  17.773  0.00  0.00    +0.000 A 
ATOM     17  C   UNL     1       2.059   8.700  18.025  0.00  0.00    +0.000 A 
BRANCH  15  18
ATOM     18  S   UNL     1       4.466   5.472  18.454  0.00  0.00    +0.000 S 
ATOM     19  O   UNL     1       4.948   5.675  17.104  0.00  0.00    +0.000 OA
ATOM     20  O   UNL     1       5.360   5.500  19.586  0.00  0.00    +0.000 OA
BRANCH  18  21
ATOM     21  N   UNL     1       3.635   4.022  18.504  0.00  0.00    +0.000 NA
ATOM     22  C   UNL     1       2.478   3.754  17.628  0.00  0.00    +0.000 C 
ATOM     23  C   UNL     1       1.201   3.548  18.444  0.00  0.00    +0.000 C 
ATOM     24  O   UNL     1       1.373   2.545  19.451  0.00  0.00    +0.000 OA
ATOM     25  C   UNL     1       2.422   2.905  20.361  0.00  0.00    +0.000 C 
ATOM     26  C   UNL     1       3.764   3.093  19.644  0.00  0.00    +0.000 C 
ENDBRANCH  18  21
ENDBRANCH  15  18
ENDBRANCH   1  12
BRANCH   1  27
ATOM     27  O   UNL     1      -0.228  10.377  18.318  0.00  0.00    +0.000 OA
BRANCH  27  28
ATOM     28  C   UNL     1      -1.670  10.313  18.302  0.00  0.00    +0.000 C 
ATOM     29  C   UNL     1      -2.069  10.019  16.849  0.00  0.00    +0.000 C 
ATOM     30  C   UNL     1      -3.554  10.229  16.606  0.00  0.00    +0.000 C 
ATOM     31  O   UNL     1      -3.944  11.542  16.997  0.00  0.00    +0.000 OA
ATOM     32  C   UNL     1      -3.803  11.723  18.401  0.00  0.00    +0.000 C 
ATOM     33  C   UNL     1      -2.352  11.587  18.815  0.00  0.00    +0.000 C 
ENDBRANCH  27  28
ENDBRANCH   1  27
TORSDOF 6
ENDMDL
MODEL 5
REMARK VINA RESULT:      -8.4      1.811      2.607
REMARK  Name = 
REMARK  6 active torsions:
REMARK  status: ('A' for Active; 'I' for Inactive)
REMARK    1  A    between atoms: C_2  and  C_10
REMARK    2  A    between atoms: C_10  and  O_11
REMARK    3  A    between atoms: C_10  and  C_18
REMARK    4  A    between atoms: O_11  and  C_12
REMARK    5  A    between atoms: C_21  and  S_22
REMARK    6  A    between atoms: S_22  and  N_25
REMARK                            x       y       z     vdW  Elec       q    Type
REMARK                         _______ _______ _______ _____ _____    ______ ____
ROOT
ATOM      1  C   UNL     1       0.243  10.730  19.780  0.00  0.00    +0.000 C 
ENDROOT
BRANCH   1   3
ATOM      2  O   UNL     1       0.954  11.989  21.716  0.00  0.00    +0.000 OA
ATOM      3  C   UNL     1       1.076  11.812  20.502  0.00  0.00    +0.000 C 
ATOM      4  N   UNL     1       1.924  12.536  19.685  0.00  0.00    +0.000 N 
ATOM      5  C   UNL     1       2.602  13.605  20.208  0.00  0.00    +0.000 A 
ATOM      6  N   UNL     1       2.724  13.932  21.471  0.00  0.00    +0.000 NA
ATOM      7  C   UNL     1       3.293  15.181  21.569  0.00  0.00    +0.000 A 
ATOM      8  C   UNL     1       3.641  15.739  20.366  0.00  0.00    +0.000 A 
ATOM      9  F   UNL     1       4.147  16.936  20.231  0.00  0.00    +0.000 F 
ATOM     10  S   UNL     1       3.304  14.676  19.079  0.00  0.00    +0.000 S 
ATOM     11  H   UNL     1       1.937  12.417  18.680  0.00  0.00    +0.000 HD
ENDBRANCH   1   3
BRANCH   1  12
ATOM     12  C   UNL     1       0.978   9.414  19.488  0.00  0.00    +0.000 A 
ATOM     13  C   UNL     1       1.274   8.454  20.474  0.00  0.00    +0.000 A 
ATOM     14  C   UNL     1       2.041   7.325  20.173  0.00  0.00    +0.000 A 
ATOM     15  C   UNL     1       2.504   7.131  18.872  0.00  0.00    +0.000 A 
ATOM     16  C   UNL     1       2.227   8.070  17.879  0.00  0.00    +0.000 A 
ATOM     17  C   UNL     1       1.456   9.193  18.182  0.00  0.00    +0.000 A 
BRANCH  15  18
ATOM     18  S   UNL     1       3.573   5.757  18.511  0.00  0.00    +0.000 S 
ATOM     19  O   UNL     1       4.130   6.001  17.197  0.00  0.00    +0.000 OA
ATOM     20  O   UNL     1       4.419   5.550  19.662  0.00  0.00    +0.000 OA
BRANCH  18  21
ATOM     21  N   UNL     1       2.536   4.449  18.408  0.00  0.00    +0.000 NA
ATOM     22  C   UNL     1       1.690   4.032  19.543  0.00  0.00    +0.000 C 
ATOM     23  C   UNL     1       2.061   2.629  20.025  0.00  0.00    +0.000 C 
ATOM     24  O   UNL     1       2.048   1.681  18.952  0.00  0.00    +0.000 OA
ATOM     25  C   UNL     1       2.980   2.054  17.927  0.00  0.00    +0.000 C 
ATOM     26  C   UNL     1       2.669   3.435  17.343  0.00  0.00    +0.000 C 
ENDBRANCH  18  21
ENDBRANCH  15  18
ENDBRANCH   1  12
BRANCH   1  27
ATOM     27  O   UNL     1      -0.462  11.202  18.624  0.00  0.00    +0.000 OA
BRANCH  27  28
ATOM     28  C   UNL     1      -1.816  10.747  18.411  0.00  0.00    +0.000 C 
ATOM     29  C   UNL     1      -1.879  10.258  16.957  0.00  0.00    +0.000 C 
ATOM     30  C   UNL     1      -3.306  10.038  16.484  0.00  0.00    +0.000 C 
ATOM     31  O   UNL     1      -4.081  11.218  16.670  0.00  0.00    +0.000 OA
ATOM     32  C   UNL     1      -4.227  11.525  18.052  0.00  0.00    +0.000 C 
ATOM     33  C   UNL     1      -2.879  11.817  18.679  0.00  0.00    +0.000 C 
ENDBRANCH  27  28
ENDBRANCH   1  27
TORSDOF 6
ENDMDL
MODEL 6
REMARK VINA RESULT:      -8.4      3.930      9.052
REMARK  Name = 
REMARK  6 active torsions:
REMARK  status: ('A' for Active; 'I' for Inactive)
REMARK    1  A    between atoms: C_2  and  C_10
REMARK    2  A    between atoms: C_10  and  O_11
REMARK    3  A    between atoms: C_10  and  C_18
REMARK    4  A    between atoms: O_11  and  C_12
REMARK    5  A    between atoms: C_21  and  S_22
REMARK    6  A    between atoms: S_22  and  N_25
REMARK                            x       y       z     vdW  Elec       q    Type
REMARK                         _______ _______ _______ _____ _____    ______ ____
ROOT
ATOM      1  C   UNL     1       3.859   5.329  18.337  0.00  0.00    +0.000 C 
ENDROOT
BRANCH   1   3
ATOM      2  O   UNL     1       5.895   6.373  17.561  0.00  0.00    +0.000 OA
ATOM      3  C   UNL     1       5.061   5.485  17.378  0.00  0.00    +0.000 C 
ATOM      4  N   UNL     1       5.097   4.576  16.337  0.00  0.00    +0.000 N 
ATOM      5  C   UNL     1       6.047   4.718  15.361  0.00  0.00    +0.000 A 
ATOM      6  N   UNL     1       7.096   5.503  15.376  0.00  0.00    +0.000 NA
ATOM      7  C   UNL     1       7.678   5.517  14.130  0.00  0.00    +0.000 A 
ATOM      8  C   UNL     1       7.079   4.688  13.217  0.00  0.00    +0.000 A 
ATOM      9  F   UNL     1       7.440   4.588  11.966  0.00  0.00    +0.000 F 
ATOM     10  S   UNL     1       5.791   3.827  13.927  0.00  0.00    +0.000 S 
ATOM     11  H   UNL     1       4.350   3.913  16.174  0.00  0.00    +0.000 HD
ENDBRANCH   1   3
BRANCH   1  12
ATOM     12  C   UNL     1       3.083   6.619  18.638  0.00  0.00    +0.000 A 
ATOM     13  C   UNL     1       2.504   6.904  19.889  0.00  0.00    +0.000 A 
ATOM     14  C   UNL     1       1.716   8.044  20.076  0.00  0.00    +0.000 A 
ATOM     15  C   UNL     1       1.517   8.926  19.016  0.00  0.00    +0.000 A 
ATOM     16  C   UNL     1       2.077   8.665  17.767  0.00  0.00    +0.000 A 
ATOM     17  C   UNL     1       2.867   7.529  17.585  0.00  0.00    +0.000 A 
BRANCH  15  18
ATOM     18  S   UNL     1       0.425  10.316  19.218  0.00  0.00    +0.000 S 
ATOM     19  O   UNL     1      -0.228  10.516  17.941  0.00  0.00    +0.000 OA
ATOM     20  O   UNL     1      -0.333  10.101  20.427  0.00  0.00    +0.000 OA
BRANCH  18  21
ATOM     21  N   UNL     1       1.453  11.606  19.492  0.00  0.00    +0.000 NA
ATOM     22  C   UNL     1       1.376  12.417  20.723  0.00  0.00    +0.000 C 
ATOM     23  C   UNL     1       1.003  13.867  20.408  0.00  0.00    +0.000 C 
ATOM     24  O   UNL     1       1.876  14.437  19.427  0.00  0.00    +0.000 OA
ATOM     25  C   UNL     1       1.824  13.694  18.200  0.00  0.00    +0.000 C 
ATOM     26  C   UNL     1       2.225  12.229  18.399  0.00  0.00    +0.000 C 
ENDBRANCH  18  21
ENDBRANCH  15  18
ENDBRANCH   1  12
BRANCH   1  27
ATOM     27  O   UNL     1       4.152   4.602  19.538  0.00  0.00    +0.000 OA
BRANCH  27  28
ATOM     28  C   UNL     1       3.332   3.461  19.868  0.00  0.00    +0.000 C 
ATOM     29  C   UNL     1       2.438   3.210  18.646  0.00  0.00    +0.000 C 
ATOM     30  C   UNL     1       1.305   2.243  18.950  0.00  0.00    +0.000 C 
ATOM     31  O   UNL     1       0.546   2.697  20.065  0.00  0.00    +0.000 OA
ATOM     32  C   UNL     1       1.326   2.688  21.256  0.00  0.00    +0.000 C 
ATOM     33  C   UNL     1       2.493   3.647  21.137  0.00  0.00    +0.000 C 
ENDBRANCH  27  28
ENDBRANCH   1  27
TORSDOF 6
ENDMDL
MODEL 7
REMARK VINA RESULT:      -8.2      3.879      9.170
REMARK  Name = 
REMARK  6 active torsions:
REMARK  status: ('A' for Active; 'I' for Inactive)
REMARK    1  A    between atoms: C_2  and  C_10
REMARK    2  A    between atoms: C_10  and  O_11
REMARK    3  A    between atoms: C_10  and  C_18
REMARK    4  A    between atoms: O_11  and  C_12
REMARK    5  A    between atoms: C_21  and  S_22
REMARK    6  A    between atoms: S_22  and  N_25
REMARK                            x       y       z     vdW  Elec       q    Type
REMARK                         _______ _______ _______ _____ _____    ______ ____
ROOT
ATOM      1  C   UNL     1       3.428   5.867  18.489  0.00  0.00    +0.000 C 
ENDROOT
BRANCH   1   3
ATOM      2  O   UNL     1       5.310   6.984  17.465  0.00  0.00    +0.000 OA
ATOM      3  C   UNL     1       4.612   5.970  17.500  0.00  0.00    +0.000 C 
ATOM      4  N   UNL     1       4.791   4.865  16.689  0.00  0.00    +0.000 N 
ATOM      5  C   UNL     1       5.727   4.916  15.690  0.00  0.00    +0.000 A 
ATOM      6  N   UNL     1       6.655   5.823  15.512  0.00  0.00    +0.000 NA
ATOM      7  C   UNL     1       7.249   5.638  14.285  0.00  0.00    +0.000 A 
ATOM      8  C   UNL     1       6.786   4.550  13.592  0.00  0.00    +0.000 A 
ATOM      9  F   UNL     1       7.177   4.224  12.389  0.00  0.00    +0.000 F 
ATOM     10  S   UNL     1       5.621   3.699  14.498  0.00  0.00    +0.000 S 
ATOM     11  H   UNL     1       4.147   4.084  16.691  0.00  0.00    +0.000 HD
ENDBRANCH   1   3
BRANCH   1  12
ATOM     12  C   UNL     1       2.685   7.180  18.769  0.00  0.00    +0.000 A 
ATOM     13  C   UNL     1       2.115   7.501  20.016  0.00  0.00    +0.000 A 
ATOM     14  C   UNL     1       1.356   8.663  20.184  0.00  0.00    +0.000 A 
ATOM     15  C   UNL     1       1.177   9.532  19.109  0.00  0.00    +0.000 A 
ATOM     16  C   UNL     1       1.729   9.235  17.864  0.00  0.00    +0.000 A 
ATOM     17  C   UNL     1       2.490   8.077  17.701  0.00  0.00    +0.000 A 
BRANCH  15  18
ATOM     18  S   UNL     1       0.120  10.951  19.288  0.00  0.00    +0.000 S 
ATOM     19  O   UNL     1       0.590  11.938  18.340  0.00  0.00    +0.000 OA
ATOM     20  O   UNL     1      -1.244  10.481  19.273  0.00  0.00    +0.000 OA
BRANCH  18  21
ATOM     21  N   UNL     1       0.442  11.508  20.832  0.00  0.00    +0.000 NA
ATOM     22  C   UNL     1      -0.292  11.009  22.011  0.00  0.00    +0.000 C 
ATOM     23  C   UNL     1      -1.090  12.128  22.681  0.00  0.00    +0.000 C 
ATOM     24  O   UNL     1      -0.264  13.258  22.984  0.00  0.00    +0.000 OA
ATOM     25  C   UNL     1       0.329  13.795  21.793  0.00  0.00    +0.000 C 
ATOM     26  C   UNL     1       1.191  12.759  21.064  0.00  0.00    +0.000 C 
ENDBRANCH  18  21
ENDBRANCH  15  18
ENDBRANCH   1  12
BRANCH   1  27
ATOM     27  O   UNL     1       3.734   5.169  19.705  0.00  0.00    +0.000 OA
BRANCH  27  28
ATOM     28  C   UNL     1       3.086   3.903  19.952  0.00  0.00    +0.000 C 
ATOM     29  C   UNL     1       2.157   3.658  18.755  0.00  0.00    +0.000 C 
ATOM     30  C   UNL     1       1.176   2.525  19.009  0.00  0.00    +0.000 C 
ATOM     31  O   UNL     1       0.436   2.765  20.201  0.00  0.00    +0.000 OA
ATOM     32  C   UNL     1       1.281   2.741  21.345  0.00  0.00    +0.000 C 
ATOM     33  C   UNL     1       2.309   3.852  21.272  0.00  0.00    +0.000 C 
ENDBRANCH  27  28
ENDBRANCH   1  27
TORSDOF 6
ENDMDL
MODEL 8
REMARK VINA RESULT:      -8.2      1.853      2.551
REMARK  Name = 
REMARK  6 active torsions:
REMARK  status: ('A' for Active; 'I' for Inactive)
REMARK    1  A    between atoms: C_2  and  C_10
REMARK    2  A    between atoms: C_10  and  O_11
REMARK    3  A    between atoms: C_10  and  C_18
REMARK    4  A    between atoms: O_11  and  C_12
REMARK    5  A    between atoms: C_21  and  S_22
REMARK    6  A    between atoms: S_22  and  N_25
REMARK                            x       y       z     vdW  Elec       q    Type
REMARK                         _______ _______ _______ _____ _____    ______ ____
ROOT
ATOM      1  C   UNL     1       0.128  10.579  19.543  0.00  0.00    +0.000 C 
ENDROOT
BRANCH   1   3
ATOM      2  O   UNL     1       0.795  11.624  21.617  0.00  0.00    +0.000 OA
ATOM      3  C   UNL     1       0.690  11.739  20.394  0.00  0.00    +0.000 C 
ATOM      4  N   UNL     1       1.035  12.872  19.681  0.00  0.00    +0.000 N 
ATOM      5  C   UNL     1       1.413  13.999  20.361  0.00  0.00    +0.000 A 
ATOM      6  N   UNL     1       1.702  14.103  21.634  0.00  0.00    +0.000 NA
ATOM      7  C   UNL     1       1.824  15.431  21.970  0.00  0.00    +0.000 A 
ATOM      8  C   UNL     1       1.680  16.296  20.917  0.00  0.00    +0.000 A 
ATOM      9  F   UNL     1       1.708  17.598  21.025  0.00  0.00    +0.000 F 
ATOM     10  S   UNL     1       1.437  15.448  19.459  0.00  0.00    +0.000 S 
ATOM     11  H   UNL     1       0.858  12.958  18.688  0.00  0.00    +0.000 HD
ENDBRANCH   1   3
BRANCH   1  12
ATOM     12  C   UNL     1       1.109   9.433  19.258  0.00  0.00    +0.000 A 
ATOM     13  C   UNL     1       1.702   9.211  18.001  0.00  0.00    +0.000 A 
ATOM     14  C   UNL     1       2.503   8.088  17.770  0.00  0.00    +0.000 A 
ATOM     15  C   UNL     1       2.740   7.185  18.804  0.00  0.00    +0.000 A 
ATOM     16  C   UNL     1       2.161   7.381  20.058  0.00  0.00    +0.000 A 
ATOM     17  C   UNL     1       1.367   8.505  20.286  0.00  0.00    +0.000 A 
BRANCH  15  18
ATOM     18  S   UNL     1       3.664   5.699  18.485  0.00  0.00    +0.000 S 
ATOM     19  O   UNL     1       4.328   5.891  17.213  0.00  0.00    +0.000 OA
ATOM     20  O   UNL     1       4.405   5.382  19.682  0.00  0.00    +0.000 OA
BRANCH  18  21
ATOM     21  N   UNL     1       2.491   4.522  18.293  0.00  0.00    +0.000 NA
ATOM     22  C   UNL     1       1.499   4.230  19.347  0.00  0.00    +0.000 C 
ATOM     23  C   UNL     1       1.653   2.801  19.871  0.00  0.00    +0.000 C 
ATOM     24  O   UNL     1       1.626   1.842  18.808  0.00  0.00    +0.000 OA
ATOM     25  C   UNL     1       2.687   2.083  17.872  0.00  0.00    +0.000 C 
ATOM     26  C   UNL     1       2.599   3.481  17.252  0.00  0.00    +0.000 C 
ENDBRANCH  18  21
ENDBRANCH  15  18
ENDBRANCH   1  12
BRANCH   1  27
ATOM     27  O   UNL     1      -0.548  10.996  18.349  0.00  0.00    +0.000 OA
BRANCH  27  28
ATOM     28  C   UNL     1      -1.934  10.630  18.181  0.00  0.00    +0.000 C 
ATOM     29  C   UNL     1      -2.103  10.262  16.701  0.00  0.00    +0.000 C 
ATOM     30  C   UNL     1      -3.564  10.155  16.296  0.00  0.00    +0.000 C 
ATOM     31  O   UNL     1      -4.260  11.355  16.616  0.00  0.00    +0.000 OA
ATOM     32  C   UNL     1      -4.314  11.558  18.023  0.00  0.00    +0.000 C 
ATOM     33  C   UNL     1      -2.920  11.730  18.592  0.00  0.00    +0.000 C 
ENDBRANCH  27  28
ENDBRANCH   1  27
TORSDOF 6
ENDMDL
MODEL 9
REMARK VINA RESULT:      -8.2      1.780      2.666
REMARK  Name = 
REMARK  6 active torsions:
REMARK  status: ('A' for Active; 'I' for Inactive)
REMARK    1  A    between atoms: C_2  and  C_10
REMARK    2  A    between atoms: C_10  and  O_11
REMARK    3  A    between atoms: C_10  and  C_18
REMARK    4  A    between atoms: O_11  and  C_12
REMARK    5  A    between atoms: C_21  and  S_22
REMARK    6  A    between atoms: S_22  and  N_25
REMARK                            x       y       z     vdW  Elec       q    Type
REMARK                         _______ _______ _______ _____ _____    ______ ____
ROOT
ATOM      1  C   UNL     1       0.200  10.006  19.412  0.00  0.00    +0.000 C 
ENDROOT
BRANCH   1   3
ATOM      2  O   UNL     1       0.156  11.427  21.366  0.00  0.00    +0.000 OA
ATOM      3  C   UNL     1       0.659  11.213  20.261  0.00  0.00    +0.000 C 
ATOM      4  N   UNL     1       1.635  11.998  19.677  0.00  0.00    +0.000 N 
ATOM      5  C   UNL     1       2.008  13.164  20.292  0.00  0.00    +0.000 A 
ATOM      6  N   UNL     1       1.706  13.559  21.504  0.00  0.00    +0.000 NA
ATOM      7  C   UNL     1       2.087  14.871  21.667  0.00  0.00    +0.000 A 
ATOM      8  C   UNL     1       2.723  15.415  20.581  0.00  0.00    +0.000 A 
ATOM      9  F   UNL     1       3.119  16.657  20.508  0.00  0.00    +0.000 F 
ATOM     10  S   UNL     1       2.905  14.262  19.340  0.00  0.00    +0.000 S 
ATOM     11  H   UNL     1       1.965  11.837  18.734  0.00  0.00    +0.000 HD
ENDBRANCH   1   3
BRANCH   1  12
ATOM     12  C   UNL     1       1.253   8.909  19.201  0.00  0.00    +0.000 A 
ATOM     13  C   UNL     1       1.839   8.623  17.953  0.00  0.00    +0.000 A 
ATOM     14  C   UNL     1       2.711   7.541  17.797  0.00  0.00    +0.000 A 
ATOM     15  C   UNL     1       3.027   6.745  18.896  0.00  0.00    +0.000 A 
ATOM     16  C   UNL     1       2.458   7.007  20.142  0.00  0.00    +0.000 A 
ATOM     17  C   UNL     1       1.591   8.090  20.295  0.00  0.00    +0.000 A 
BRANCH  15  18
ATOM     18  S   UNL     1       4.046   5.303  18.679  0.00  0.00    +0.000 S 
ATOM     19  O   UNL     1       4.347   5.220  17.266  0.00  0.00    +0.000 OA
ATOM     20  O   UNL     1       5.092   5.358  19.672  0.00  0.00    +0.000 OA
BRANCH  18  21
ATOM     21  N   UNL     1       3.040   4.029  19.079  0.00  0.00    +0.000 NA
ATOM     22  C   UNL     1       1.590   4.063  18.803  0.00  0.00    +0.000 C 
ATOM     23  C   UNL     1       0.778   4.011  20.098  0.00  0.00    +0.000 C 
ATOM     24  O   UNL     1       1.157   2.898  20.916  0.00  0.00    +0.000 OA
ATOM     25  C   UNL     1       2.546   2.971  21.270  0.00  0.00    +0.000 C 
ATOM     26  C   UNL     1       3.454   2.984  20.036  0.00  0.00    +0.000 C 
ENDBRANCH  18  21
ENDBRANCH  15  18
ENDBRANCH   1  12
BRANCH   1  27
ATOM     27  O   UNL     1      -0.439  10.361  18.178  0.00  0.00    +0.000 OA
BRANCH  27  28
ATOM     28  C   UNL     1      -1.879  10.288  18.106  0.00  0.00    +0.000 C 
ATOM     29  C   UNL     1      -2.225  10.131  16.619  0.00  0.00    +0.000 C 
ATOM     30  C   UNL     1      -3.703  10.352  16.344  0.00  0.00    +0.000 C 
ATOM     31  O   UNL     1      -4.121  11.618  16.844  0.00  0.00    +0.000 OA
ATOM     32  C   UNL     1      -4.031  11.664  18.263  0.00  0.00    +0.000 C 
ATOM     33  C   UNL     1      -2.593  11.501  18.713  0.00  0.00    +0.000 C 
ENDBRANCH  27  28
ENDBRANCH   1  27
TORSDOF 6
ENDMDL
