MODEL 1
REMARK VINA RESULT:      -7.8      0.000      0.000
REMARK  Name = 
REMARK  7 active torsions:
REMARK  status: ('A' for Active; 'I' for Inactive)
REMARK    1  A    between atoms: C_1  and  N_2
REMARK    2  A    between atoms: N_5  and  C_6
REMARK    3  A    between atoms: C_6  and  C_7
REMARK    4  A    between atoms: C_7  and  C_8
REMARK    5  A    between atoms: C_8  and  O_9
REMARK    6  A    between atoms: O_9  and  C_10
REMARK    7  A    between atoms: N_17  and  C_18
REMARK                            x       y       z     vdW  Elec       q    Type
REMARK                         _______ _______ _______ _____ _____    ______ ____
ROOT
ATOM      1  C   UNL     1       0.460  10.500  20.217  0.00  0.00    +0.000 A 
ATOM      2  C   UNL     1       0.072  10.379  21.559  0.00  0.00    +0.000 A 
ATOM      3  C   UNL     1       0.416   9.248  22.290  0.00  0.00    +0.000 A 
ATOM      4  C   UNL     1       1.143   8.231  21.682  0.00  0.00    +0.000 A 
ATOM      5  C   UNL     1       1.543   8.320  20.359  0.00  0.00    +0.000 A 
ATOM      6  N   UNL     1       2.215   7.282  19.849  0.00  0.00    +0.000 NA
ATOM      7  C   UNL     1       2.616   7.310  18.561  0.00  0.00    +0.000 A 
ATOM      8  N   UNL     1       3.248   6.169  18.019  0.00  0.00    +0.000 N 
ATOM      9  C   UNL     1       2.394   8.413  17.755  0.00  0.00    +0.000 A 
ATOM     10  C   UNL     1       1.676   9.491  18.278  0.00  0.00    +0.000 A 
ATOM     11  C   UNL     1       1.218   9.465  19.611  0.00  0.00    +0.000 A 
ATOM     12  H   UNL     1       4.207   6.391  17.774  0.00  0.00    +0.000 HD
ENDROOT
BRANCH   8  13
ATOM     13  C   UNL     1       3.061   4.859  18.518  0.00  0.00    +0.000 A 
ATOM     14  C   UNL     1       1.849   4.181  18.302  0.00  0.00    +0.000 A 
ATOM     15  C   UNL     1       1.656   2.886  18.774  0.00  0.00    +0.000 A 
ATOM     16 CL   UNL     1       0.149   2.099  18.509  0.00  0.00    +0.000 Cl
ATOM     17  C   UNL     1       2.672   2.229  19.454  0.00  0.00    +0.000 A 
ATOM     18  C   UNL     1       3.887   2.882  19.648  0.00  0.00    +0.000 A 
ATOM     19 CL   UNL     1       5.154   2.071  20.488  0.00  0.00    +0.000 Cl
ATOM     20  C   UNL     1       4.092   4.183  19.176  0.00  0.00    +0.000 A 
ENDBRANCH   8  13
BRANCH   1  21
ATOM     21  O   UNL     1       0.135  11.576  19.421  0.00  0.00    +0.000 OA
BRANCH  21  22
ATOM     22  C   UNL     1      -0.425  12.704  20.099  0.00  0.00    +0.000 C 
BRANCH  22  23
ATOM     23  C   UNL     1      -1.898  12.820  19.737  0.00  0.00    +0.000 C 
BRANCH  23  24
ATOM     24  C   UNL     1      -2.191  12.203  18.364  0.00  0.00    +0.000 C 
BRANCH  24  29
ATOM     25  C   UNL     1      -3.442  10.123  14.186  0.00  0.00    +0.000 C 
ATOM     26  N   UNL     1      -3.587  10.066  15.636  0.00  0.00    +0.000 NA
ATOM     27  C   UNL     1      -4.235  11.283  16.156  0.00  0.00    +0.000 C 
ATOM     28  C   UNL     1      -4.364  11.244  17.696  0.00  0.00    +0.000 C 
ATOM     29  N   UNL     1      -3.086  11.035  18.415  0.00  0.00    +0.000 NA
ATOM     30  C   UNL     1      -2.435   9.834  17.842  0.00  0.00    +0.000 C 
ATOM     31  C   UNL     1      -2.290   9.856  16.301  0.00  0.00    +0.000 C 
ENDBRANCH  24  29
ENDBRANCH  23  24
ENDBRANCH  22  23
ENDBRANCH  21  22
ENDBRANCH   1  21
TORSDOF 6
ENDMDL
MODEL 2
REMARK VINA RESULT:      -7.7      3.518      4.868
REMARK  Name = 
REMARK  7 active torsions:
REMARK  status: ('A' for Active; 'I' for Inactive)
REMARK    1  A    between atoms: C_1  and  N_2
REMARK    2  A    between atoms: N_5  and  C_6
REMARK    3  A    between atoms: C_6  and  C_7
REMARK    4  A    between atoms: C_7  and  C_8
REMARK    5  A    between atoms: C_8  and  O_9
REMARK    6  A    between atoms: O_9  and  C_10
REMARK    7  A    between atoms: N_17  and  C_18
REMARK                            x       y       z     vdW  Elec       q    Type
REMARK                         _______ _______ _______ _____ _____    ______ ____
ROOT
ATOM      1  C   UNL     1       0.673   9.566  20.231  0.00  0.00    +0.000 A 
ATOM      2  C   UNL     1       0.885  10.591  19.298  0.00  0.00    +0.000 A 
ATOM      3  C   UNL     1       1.692  10.374  18.188  0.00  0.00    +0.000 A 
ATOM      4  C   UNL     1       2.297   9.135  18.011  0.00  0.00    +0.000 A 
ATOM      5  C   UNL     1       2.108   8.101  18.912  0.00  0.00    +0.000 A 
ATOM      6  N   UNL     1       2.751   6.953  18.676  0.00  0.00    +0.000 NA
ATOM      7  C   UNL     1       2.614   5.918  19.530  0.00  0.00    +0.000 A 
ATOM      8  N   UNL     1       3.368   4.745  19.308  0.00  0.00    +0.000 N 
ATOM      9  C   UNL     1       1.779   5.992  20.632  0.00  0.00    +0.000 A 
ATOM     10  C   UNL     1       1.120   7.196  20.894  0.00  0.00    +0.000 A 
ATOM     11  C   UNL     1       1.280   8.300  20.031  0.00  0.00    +0.000 A 
ATOM     12  H   UNL     1       2.747   3.971  19.098  0.00  0.00    +0.000 HD
ENDROOT
BRANCH   8  13
ATOM     13  C   UNL     1       4.590   4.723  18.596  0.00  0.00    +0.000 A 
ATOM     14  C   UNL     1       4.624   4.310  17.253  0.00  0.00    +0.000 A 
ATOM     15  C   UNL     1       5.817   4.297  16.535  0.00  0.00    +0.000 A 
ATOM     16 CL   UNL     1       5.820   3.763  14.900  0.00  0.00    +0.000 Cl
ATOM     17  C   UNL     1       6.999   4.713  17.133  0.00  0.00    +0.000 A 
ATOM     18  C   UNL     1       6.970   5.150  18.455  0.00  0.00    +0.000 A 
ATOM     19 CL   UNL     1       8.433   5.671  19.202  0.00  0.00    +0.000 Cl
ATOM     20  C   UNL     1       5.776   5.169  19.184  0.00  0.00    +0.000 A 
ENDBRANCH   8  13
BRANCH   1  21
ATOM     21  O   UNL     1      -0.091   9.713  21.368  0.00  0.00    +0.000 OA
BRANCH  21  22
ATOM     22  C   UNL     1      -0.525  11.045  21.657  0.00  0.00    +0.000 C 
BRANCH  22  23
ATOM     23  C   UNL     1      -1.245  11.052  22.998  0.00  0.00    +0.000 C 
BRANCH  23  24
ATOM     24  C   UNL     1      -2.021  12.357  23.213  0.00  0.00    +0.000 C 
BRANCH  24  29
ATOM     25  C   UNL     1      -4.760  16.320  22.853  0.00  0.00    +0.000 C 
ATOM     26  N   UNL     1      -4.777  14.866  22.962  0.00  0.00    +0.000 NA
ATOM     27  C   UNL     1      -4.170  14.419  24.227  0.00  0.00    +0.000 C 
ATOM     28  C   UNL     1      -4.156  12.877  24.336  0.00  0.00    +0.000 C 
ATOM     29  N   UNL     1      -3.483  12.188  23.210  0.00  0.00    +0.000 NA
ATOM     30  C   UNL     1      -4.080  12.690  21.951  0.00  0.00    +0.000 C 
ATOM     31  C   UNL     1      -4.098  14.232  21.819  0.00  0.00    +0.000 C 
ENDBRANCH  24  29
ENDBRANCH  23  24
ENDBRANCH  22  23
ENDBRANCH  21  22
ENDBRANCH   1  21
TORSDOF 6
ENDMDL
MODEL 3
REMARK VINA RESULT:      -7.5      2.805      4.136
REMARK  Name = 
REMARK  7 active torsions:
REMARK  status: ('A' for Active; 'I' for Inactive)
REMARK    1  A    between atoms: C_1  and  N_2
REMARK    2  A    between atoms: N_5  and  C_6
REMARK    3  A    between atoms: C_6  and  C_7
REMARK    4  A    between atoms: C_7  and  C_8
REMARK    5  A    between atoms: C_8  and  O_9
REMARK    6  A    between atoms: O_9  and  C_10
REMARK    7  A    between atoms: N_17  and  C_18
REMARK                            x       y       z     vdW  Elec       q    Type
REMARK                         _______ _______ _______ _____ _____    ______ ____
ROOT
ATOM      1  C   UNL     1      -0.679  10.714  21.197  0.00  0.00    +0.000 A 
ATOM      2  C   UNL     1      -0.574  10.365  22.551  0.00  0.00    +0.000 A 
ATOM      3  C   UNL     1       0.332   9.394  22.959  0.00  0.00    +0.000 A 
ATOM      4  C   UNL     1       1.132   8.762  22.015  0.00  0.00    +0.000 A 
ATOM      5  C   UNL     1       1.056   9.082  20.670  0.00  0.00    +0.000 A 
ATOM      6  N   UNL     1       1.844   8.403  19.830  0.00  0.00    +0.000 NA
ATOM      7  C   UNL     1       1.799   8.666  18.508  0.00  0.00    +0.000 A 
ATOM      8  N   UNL     1       2.577   7.879  17.630  0.00  0.00    +0.000 N 
ATOM      9  C   UNL     1       0.988   9.661  17.992  0.00  0.00    +0.000 A 
ATOM     10  C   UNL     1       0.148  10.360  18.863  0.00  0.00    +0.000 A 
ATOM     11  C   UNL     1       0.156  10.075  20.244  0.00  0.00    +0.000 A 
ATOM     12  H   UNL     1       3.283   8.456  17.185  0.00  0.00    +0.000 HD
ENDROOT
BRANCH   8  13
ATOM     13  C   UNL     1       2.998   6.562  17.923  0.00  0.00    +0.000 A 
ATOM     14  C   UNL     1       2.057   5.529  18.070  0.00  0.00    +0.000 A 
ATOM     15  C   UNL     1       2.457   4.224  18.345  0.00  0.00    +0.000 A 
ATOM     16 CL   UNL     1       1.271   2.993  18.541  0.00  0.00    +0.000 Cl
ATOM     17  C   UNL     1       3.805   3.915  18.460  0.00  0.00    +0.000 A 
ATOM     18  C   UNL     1       4.747   4.926  18.288  0.00  0.00    +0.000 A 
ATOM     19 CL   UNL     1       6.423   4.548  18.426  0.00  0.00    +0.000 Cl
ATOM     20  C   UNL     1       4.356   6.240  18.009  0.00  0.00    +0.000 A 
ENDBRANCH   8  13
BRANCH   1  21
ATOM     21  O   UNL     1      -1.570  11.645  20.713  0.00  0.00    +0.000 OA
BRANCH  21  22
ATOM     22  C   UNL     1      -1.607  12.892  21.413  0.00  0.00    +0.000 C 
BRANCH  22  23
ATOM     23  C   UNL     1      -1.557  14.029  20.403  0.00  0.00    +0.000 C 
BRANCH  23  24
ATOM     24  C   UNL     1      -0.257  14.003  19.590  0.00  0.00    +0.000 C 
BRANCH  24  29
ATOM     25  C   UNL     1       3.764  15.583  17.428  0.00  0.00    +0.000 C 
ATOM     26  N   UNL     1       3.185  15.145  18.693  0.00  0.00    +0.000 NA
ATOM     27  C   UNL     1       2.723  13.749  18.612  0.00  0.00    +0.000 C 
ATOM     28  C   UNL     1       2.079  13.287  19.940  0.00  0.00    +0.000 C 
ATOM     29  N   UNL     1       0.960  14.137  20.408  0.00  0.00    +0.000 NA
ATOM     30  C   UNL     1       1.437  15.539  20.435  0.00  0.00    +0.000 C 
ATOM     31  C   UNL     1       2.080  16.024  19.113  0.00  0.00    +0.000 C 
ENDBRANCH  24  29
ENDBRANCH  23  24
ENDBRANCH  22  23
ENDBRANCH  21  22
ENDBRANCH   1  21
TORSDOF 6
ENDMDL
MODEL 4
REMARK VINA RESULT:      -7.4      3.508      4.771
REMARK  Name = 
REMARK  7 active torsions:
REMARK  status: ('A' for Active; 'I' for Inactive)
REMARK    1  A    between atoms: C_1  and  N_2
REMARK    2  A    between atoms: N_5  and  C_6
REMARK    3  A    between atoms: C_6  and  C_7
REMARK    4  A    between atoms: C_7  and  C_8
REMARK    5  A    between atoms: C_8  and  O_9
REMARK    6  A    between atoms: O_9  and  C_10
REMARK    7  A    between atoms: N_17  and  C_18
REMARK                            x       y       z     vdW  Elec       q    Type
REMARK                         _______ _______ _______ _____ _____    ______ ____
ROOT
ATOM      1  C   UNL     1       0.634   9.762  20.200  0.00  0.00    +0.000 A 
ATOM      2  C   UNL     1       0.853  10.770  19.250  0.00  0.00    +0.000 A 
ATOM      3  C   UNL     1       1.653  10.527  18.140  0.00  0.00    +0.000 A 
ATOM      4  C   UNL     1       2.243   9.278  17.979  0.00  0.00    +0.000 A 
ATOM      5  C   UNL     1       2.046   8.260  18.897  0.00  0.00    +0.000 A 
ATOM      6  N   UNL     1       2.675   7.101  18.675  0.00  0.00    +0.000 NA
ATOM      7  C   UNL     1       2.529   6.082  19.546  0.00  0.00    +0.000 A 
ATOM      8  N   UNL     1       3.269   4.897  19.338  0.00  0.00    +0.000 N 
ATOM      9  C   UNL     1       1.701   6.182  20.651  0.00  0.00    +0.000 A 
ATOM     10  C   UNL     1       1.057   7.397  20.897  0.00  0.00    +0.000 A 
ATOM     11  C   UNL     1       1.225   8.486  20.016  0.00  0.00    +0.000 A 
ATOM     12  H   UNL     1       2.638   4.127  19.143  0.00  0.00    +0.000 HD
ENDROOT
BRANCH   8  13
ATOM     13  C   UNL     1       4.487   4.849  18.621  0.00  0.00    +0.000 A 
ATOM     14  C   UNL     1       4.507   4.440  17.277  0.00  0.00    +0.000 A 
ATOM     15  C   UNL     1       5.696   4.403  16.554  0.00  0.00    +0.000 A 
ATOM     16 CL   UNL     1       5.682   3.874  14.917  0.00  0.00    +0.000 Cl
ATOM     17  C   UNL     1       6.890   4.791  17.148  0.00  0.00    +0.000 A 
ATOM     18  C   UNL     1       6.876   5.225  18.472  0.00  0.00    +0.000 A 
ATOM     19 CL   UNL     1       8.353   5.711  19.214  0.00  0.00    +0.000 Cl
ATOM     20  C   UNL     1       5.686   5.268  19.206  0.00  0.00    +0.000 A 
ENDBRANCH   8  13
BRANCH   1  21
ATOM     21  O   UNL     1      -0.123   9.935  21.338  0.00  0.00    +0.000 OA
BRANCH  21  22
ATOM     22  C   UNL     1      -0.195  11.272  21.839  0.00  0.00    +0.000 C 
BRANCH  22  23
ATOM     23  C   UNL     1      -1.617  11.788  21.677  0.00  0.00    +0.000 C 
BRANCH  23  24
ATOM     24  C   UNL     1      -2.301  11.991  23.034  0.00  0.00    +0.000 C 
BRANCH  24  29
ATOM     25  C   UNL     1      -7.105  12.422  23.315  0.00  0.00    +0.000 C 
ATOM     26  N   UNL     1      -5.839  13.146  23.352  0.00  0.00    +0.000 NA
ATOM     27  C   UNL     1      -5.115  13.020  22.076  0.00  0.00    +0.000 C 
ATOM     28  C   UNL     1      -3.758  13.759  22.118  0.00  0.00    +0.000 C 
ATOM     29  N   UNL     1      -2.864  13.339  23.222  0.00  0.00    +0.000 NA
ATOM     30  C   UNL     1      -3.630  13.430  24.486  0.00  0.00    +0.000 C 
ATOM     31  C   UNL     1      -4.990  12.691  24.466  0.00  0.00    +0.000 C 
ENDBRANCH  24  29
ENDBRANCH  23  24
ENDBRANCH  22  23
ENDBRANCH  21  22
ENDBRANCH   1  21
TORSDOF 6
ENDMDL
MODEL 5
REMARK VINA RESULT:      -7.4      3.345      4.717
REMARK  Name = 
REMARK  7 active torsions:
REMARK  status: ('A' for Active; 'I' for Inactive)
REMARK    1  A    between atoms: C_1  and  N_2
REMARK    2  A    between atoms: N_5  and  C_6
REMARK    3  A    between atoms: C_6  and  C_7
REMARK    4  A    between atoms: C_7  and  C_8
REMARK    5  A    between atoms: C_8  and  O_9
REMARK    6  A    between atoms: O_9  and  C_10
REMARK    7  A    between atoms: N_17  and  C_18
REMARK                            x       y       z     vdW  Elec       q    Type
REMARK                         _______ _______ _______ _____ _____    ______ ____
ROOT
ATOM      1  C   UNL     1       0.635   9.450  20.064  0.00  0.00    +0.000 A 
ATOM      2  C   UNL     1       0.852  10.472  19.129  0.00  0.00    +0.000 A 
ATOM      3  C   UNL     1       1.696  10.265  18.045  0.00  0.00    +0.000 A 
ATOM      4  C   UNL     1       2.332   9.039  17.895  0.00  0.00    +0.000 A 
ATOM      5  C   UNL     1       2.139   8.007  18.798  0.00  0.00    +0.000 A 
ATOM      6  N   UNL     1       2.813   6.871  18.589  0.00  0.00    +0.000 NA
ATOM      7  C   UNL     1       2.673   5.840  19.447  0.00  0.00    +0.000 A 
ATOM      8  N   UNL     1       3.459   4.682  19.255  0.00  0.00    +0.000 N 
ATOM      9  C   UNL     1       1.806   5.904  20.524  0.00  0.00    +0.000 A 
ATOM     10  C   UNL     1       1.113   7.095  20.757  0.00  0.00    +0.000 A 
ATOM     11  C   UNL     1       1.274   8.196  19.891  0.00  0.00    +0.000 A 
ATOM     12  H   UNL     1       2.860   3.893  19.034  0.00  0.00    +0.000 HD
ENDROOT
BRANCH   8  13
ATOM     13  C   UNL     1       4.701   4.681  18.580  0.00  0.00    +0.000 A 
ATOM     14  C   UNL     1       4.786   4.246  17.246  0.00  0.00    +0.000 A 
ATOM     15  C   UNL     1       5.999   4.254  16.563  0.00  0.00    +0.000 A 
ATOM     16 CL   UNL     1       6.065   3.691  14.939  0.00  0.00    +0.000 Cl
ATOM     17  C   UNL     1       7.151   4.713  17.187  0.00  0.00    +0.000 A 
ATOM     18  C   UNL     1       7.071   5.172  18.499  0.00  0.00    +0.000 A 
ATOM     19 CL   UNL     1       8.497   5.747  19.278  0.00  0.00    +0.000 Cl
ATOM     20  C   UNL     1       5.857   5.171  19.193  0.00  0.00    +0.000 A 
ENDBRANCH   8  13
BRANCH   1  21
ATOM     21  O   UNL     1      -0.164   9.588  21.177  0.00  0.00    +0.000 OA
BRANCH  21  22
ATOM     22  C   UNL     1      -0.047  10.831  21.876  0.00  0.00    +0.000 C 
BRANCH  22  23
ATOM     23  C   UNL     1      -0.856  10.755  23.163  0.00  0.00    +0.000 C 
BRANCH  23  24
ATOM     24  C   UNL     1      -2.096  11.655  23.103  0.00  0.00    +0.000 C 
BRANCH  24  29
ATOM     25  C   UNL     1      -5.516  15.067  23.117  0.00  0.00    +0.000 C 
ATOM     26  N   UNL     1      -4.290  14.612  22.471  0.00  0.00    +0.000 NA
ATOM     27  C   UNL     1      -4.474  13.288  21.850  0.00  0.00    +0.000 C 
ATOM     28  C   UNL     1      -3.170  12.785  21.190  0.00  0.00    +0.000 C 
ATOM     29  N   UNL     1      -2.003  12.730  22.101  0.00  0.00    +0.000 NA
ATOM     30  C   UNL     1      -1.869  14.056  22.746  0.00  0.00    +0.000 C 
ATOM     31  C   UNL     1      -3.162  14.576  23.419  0.00  0.00    +0.000 C 
ENDBRANCH  24  29
ENDBRANCH  23  24
ENDBRANCH  22  23
ENDBRANCH  21  22
ENDBRANCH   1  21
TORSDOF 6
ENDMDL
MODEL 6
REMARK VINA RESULT:      -7.3      3.473      4.754
REMARK  Name = 
REMARK  7 active torsions:
REMARK  status: ('A' for Active; 'I' for Inactive)
REMARK    1  A    between atoms: C_1  and  N_2
REMARK    2  A    between atoms: N_5  and  C_6
REMARK    3  A    between atoms: C_6  and  C_7
REMARK    4  A    between atoms: C_7  and  C_8
REMARK    5  A    between atoms: C_8  and  O_9
REMARK    6  A    between atoms: O_9  and  C_10
REMARK    7  A    between atoms: N_17  and  C_18
REMARK                            x       y       z     vdW  Elec       q    Type
REMARK                         _______ _______ _______ _____ _____    ______ ____
ROOT
ATOM      1  C   UNL     1       0.671   8.995  20.729  0.00  0.00    +0.000 A 
ATOM      2  C   UNL     1       0.635  10.201  20.016  0.00  0.00    +0.000 A 
ATOM      3  C   UNL     1       1.266  10.308  18.783  0.00  0.00    +0.000 A 
ATOM      4  C   UNL     1       1.942   9.212  18.261  0.00  0.00    +0.000 A 
ATOM      5  C   UNL     1       1.996   8.004  18.938  0.00  0.00    +0.000 A 
ATOM      6  N   UNL     1       2.692   7.013  18.372  0.00  0.00    +0.000 NA
ATOM      7  C   UNL     1       2.790   5.821  18.996  0.00  0.00    +0.000 A 
ATOM      8  N   UNL     1       3.600   4.815  18.423  0.00  0.00    +0.000 N 
ATOM      9  C   UNL     1       2.144   5.573  20.195  0.00  0.00    +0.000 A 
ATOM     10  C   UNL     1       1.432   6.613  20.799  0.00  0.00    +0.000 A 
ATOM     11  C   UNL     1       1.348   7.876  20.178  0.00  0.00    +0.000 A 
ATOM     12  H   UNL     1       3.024   4.028  18.143  0.00  0.00    +0.000 HD
ENDROOT
BRANCH   8  13
ATOM     13  C   UNL     1       4.685   5.083  17.557  0.00  0.00    +0.000 A 
ATOM     14  C   UNL     1       5.619   6.084  17.875  0.00  0.00    +0.000 A 
ATOM     15  C   UNL     1       6.701   6.349  17.040  0.00  0.00    +0.000 A 
ATOM     16 CL   UNL     1       7.809   7.598  17.453  0.00  0.00    +0.000 Cl
ATOM     17  C   UNL     1       6.889   5.609  15.880  0.00  0.00    +0.000 A 
ATOM     18  C   UNL     1       5.984   4.596  15.571  0.00  0.00    +0.000 A 
ATOM     19 CL   UNL     1       6.212   3.672  14.135  0.00  0.00    +0.000 Cl
ATOM     20  C   UNL     1       4.895   4.321  16.404  0.00  0.00    +0.000 A 
ENDBRANCH   8  13
BRANCH   1  21
ATOM     21  O   UNL     1       0.095   8.820  21.968  0.00  0.00    +0.000 OA
BRANCH  21  22
ATOM     22  C   UNL     1       0.214   9.923  22.870  0.00  0.00    +0.000 C 
BRANCH  22  23
ATOM     23  C   UNL     1      -1.129  10.632  22.968  0.00  0.00    +0.000 C 
BRANCH  23  24
ATOM     24  C   UNL     1      -0.973  12.153  22.844  0.00  0.00    +0.000 C 
BRANCH  24  29
ATOM     25  C   UNL     1      -0.461  15.457  19.357  0.00  0.00    +0.000 C 
ATOM     26  N   UNL     1      -1.419  14.771  20.217  0.00  0.00    +0.000 NA
ATOM     27  C   UNL     1      -1.155  15.053  21.639  0.00  0.00    +0.000 C 
ATOM     28  C   UNL     1      -2.146  14.305  22.559  0.00  0.00    +0.000 C 
ATOM     29  N   UNL     1      -2.183  12.837  22.359  0.00  0.00    +0.000 NA
ATOM     30  C   UNL     1      -2.402  12.583  20.916  0.00  0.00    +0.000 C 
ATOM     31  C   UNL     1      -1.415  13.318  19.977  0.00  0.00    +0.000 C 
ENDBRANCH  24  29
ENDBRANCH  23  24
ENDBRANCH  22  23
ENDBRANCH  21  22
ENDBRANCH   1  21
TORSDOF 6
ENDMDL
MODEL 7
REMARK VINA RESULT:      -7.3      3.572      5.210
REMARK  Name = 
REMARK  7 active torsions:
REMARK  status: ('A' for Active; 'I' for Inactive)
REMARK    1  A    between atoms: C_1  and  N_2
REMARK    2  A    between atoms: N_5  and  C_6
REMARK    3  A    between atoms: C_6  and  C_7
REMARK    4  A    between atoms: C_7  and  C_8
REMARK    5  A    between atoms: C_8  and  O_9
REMARK    6  A    between atoms: O_9  and  C_10
REMARK    7  A    between atoms: N_17  and  C_18
REMARK                            x       y       z     vdW  Elec       q    Type
REMARK                         _______ _______ _______ _____ _____    ______ ____
ROOT
ATOM      1  C   UNL     1       0.630   9.815  20.420  0.00  0.00    +0.000 A 
ATOM      2  C   UNL     1       0.836  10.852  19.500  0.00  0.00    +0.000 A 
ATOM      3  C   UNL     1       1.598  10.639  18.358  0.00  0.00    +0.000 A 
ATOM      4  C   UNL     1       2.164   9.389  18.134  0.00  0.00    +0.000 A 
ATOM      5  C   UNL     1       1.979   8.341  19.021  0.00  0.00    +0.000 A 
ATOM      6  N   UNL     1       2.584   7.182  18.739  0.00  0.00    +0.000 NA
ATOM      7  C   UNL     1       2.449   6.134  19.577  0.00  0.00    +0.000 A 
ATOM      8  N   UNL     1       3.165   4.947  19.304  0.00  0.00    +0.000 N 
ATOM      9  C   UNL     1       1.656   6.206  20.709  0.00  0.00    +0.000 A 
ATOM     10  C   UNL     1       1.038   7.420  21.018  0.00  0.00    +0.000 A 
ATOM     11  C   UNL     1       1.196   8.538  20.172  0.00  0.00    +0.000 A 
ATOM     12  H   UNL     1       2.516   4.194  19.101  0.00  0.00    +0.000 HD
ENDROOT
BRANCH   8  13
ATOM     13  C   UNL     1       4.360   4.909  18.549  0.00  0.00    +0.000 A 
ATOM     14  C   UNL     1       4.329   4.585  17.181  0.00  0.00    +0.000 A 
ATOM     15  C   UNL     1       5.495   4.558  16.422  0.00  0.00    +0.000 A 
ATOM     16 CL   UNL     1       5.416   4.134  14.756  0.00  0.00    +0.000 Cl
ATOM     17  C   UNL     1       6.716   4.872  17.002  0.00  0.00    +0.000 A 
ATOM     18  C   UNL     1       6.754   5.222  18.350  0.00  0.00    +0.000 A 
ATOM     19 CL   UNL     1       8.266   5.616  19.076  0.00  0.00    +0.000 Cl
ATOM     20  C   UNL     1       5.587   5.254  19.121  0.00  0.00    +0.000 A 
ENDBRANCH   8  13
BRANCH   1  21
ATOM     21  O   UNL     1      -0.089   9.957  21.586  0.00  0.00    +0.000 OA
BRANCH  21  22
ATOM     22  C   UNL     1      -0.548  11.280  21.876  0.00  0.00    +0.000 C 
BRANCH  22  23
ATOM     23  C   UNL     1      -1.462  11.233  23.091  0.00  0.00    +0.000 C 
BRANCH  23  24
ATOM     24  C   UNL     1      -2.444  12.411  23.103  0.00  0.00    +0.000 C 
BRANCH  24  29
ATOM     25  C   UNL     1      -4.357  16.468  24.896  0.00  0.00    +0.000 C 
ATOM     26  N   UNL     1      -3.311  15.922  24.040  0.00  0.00    +0.000 NA
ATOM     27  C   UNL     1      -3.885  15.199  22.891  0.00  0.00    +0.000 C 
ATOM     28  C   UNL     1      -2.782  14.590  21.995  0.00  0.00    +0.000 C 
ATOM     29  N   UNL     1      -1.840  13.694  22.705  0.00  0.00    +0.000 NA
ATOM     30  C   UNL     1      -1.314  14.427  23.879  0.00  0.00    +0.000 C 
ATOM     31  C   UNL     1      -2.403  15.040  24.793  0.00  0.00    +0.000 C 
ENDBRANCH  24  29
ENDBRANCH  23  24
ENDBRANCH  22  23
ENDBRANCH  21  22
ENDBRANCH   1  21
TORSDOF 6
ENDMDL
MODEL 8
REMARK VINA RESULT:      -7.3      4.774      9.294
REMARK  Name = 
REMARK  7 active torsions:
REMARK  status: ('A' for Active; 'I' for Inactive)
REMARK    1  A    between atoms: C_1  and  N_2
REMARK    2  A    between atoms: N_5  and  C_6
REMARK    3  A    between atoms: C_6  and  C_7
REMARK    4  A    between atoms: C_7  and  C_8
REMARK    5  A    between atoms: C_8  and  O_9
REMARK    6  A    between atoms: O_9  and  C_10
REMARK    7  A    between atoms: N_17  and  C_18
REMARK                            x       y       z     vdW  Elec       q    Type
REMARK                         _______ _______ _______ _____ _____    ______ ____
ROOT
ATOM      1  C   UNL     1       1.957   7.792  19.495  0.00  0.00    +0.000 A 
ATOM      2  C   UNL     1       2.255   8.209  18.190  0.00  0.00    +0.000 A 
ATOM      3  C   UNL     1       1.920   9.489  17.767  0.00  0.00    +0.000 A 
ATOM      4  C   UNL     1       1.277  10.355  18.643  0.00  0.00    +0.000 A 
ATOM      5  C   UNL     1       0.969   9.977  19.940  0.00  0.00    +0.000 A 
ATOM      6  N   UNL     1       0.326  10.867  20.703  0.00  0.00    +0.000 NA
ATOM      7  C   UNL     1      -0.011  10.545  21.969  0.00  0.00    +0.000 A 
ATOM      8  N   UNL     1      -0.764  11.467  22.729  0.00  0.00    +0.000 N 
ATOM      9  C   UNL     1       0.334   9.325  22.525  0.00  0.00    +0.000 A 
ATOM     10  C   UNL     1       0.989   8.385  21.724  0.00  0.00    +0.000 A 
ATOM     11  C   UNL     1       1.319   8.692  20.388  0.00  0.00    +0.000 A 
ATOM     12  H   UNL     1      -0.214  11.793  23.517  0.00  0.00    +0.000 HD
ENDROOT
BRANCH   8  13
ATOM     13  C   UNL     1      -1.607  12.448  22.160  0.00  0.00    +0.000 A 
ATOM     14  C   UNL     1      -3.004  12.293  22.192  0.00  0.00    +0.000 A 
ATOM     15  C   UNL     1      -3.847  13.258  21.649  0.00  0.00    +0.000 A 
ATOM     16 CL   UNL     1      -5.551  13.019  21.688  0.00  0.00    +0.000 Cl
ATOM     17  C   UNL     1      -3.320  14.408  21.077  0.00  0.00    +0.000 A 
ATOM     18  C   UNL     1      -1.938  14.584  21.066  0.00  0.00    +0.000 A 
ATOM     19 CL   UNL     1      -1.277  16.011  20.361  0.00  0.00    +0.000 Cl
ATOM     20  C   UNL     1      -1.082  13.622  21.611  0.00  0.00    +0.000 A 
ENDBRANCH   8  13
BRANCH   1  21
ATOM     21  O   UNL     1       2.233   6.533  19.979  0.00  0.00    +0.000 OA
BRANCH  21  22
ATOM     22  C   UNL     1       2.362   5.504  18.994  0.00  0.00    +0.000 C 
BRANCH  22  23
ATOM     23  C   UNL     1       3.462   4.542  19.422  0.00  0.00    +0.000 C 
BRANCH  23  24
ATOM     24  C   UNL     1       4.849   5.186  19.307  0.00  0.00    +0.000 C 
BRANCH  24  29
ATOM     25  C   UNL     1       7.872   8.504  17.522  0.00  0.00    +0.000 C 
ATOM     26  N   UNL     1       7.306   7.176  17.318  0.00  0.00    +0.000 NA
ATOM     27  C   UNL     1       5.844   7.240  17.143  0.00  0.00    +0.000 C 
ATOM     28  C   UNL     1       5.233   5.832  16.957  0.00  0.00    +0.000 C 
ATOM     29  N   UNL     1       5.545   4.879  18.047  0.00  0.00    +0.000 NA
ATOM     30  C   UNL     1       7.014   4.868  18.233  0.00  0.00    +0.000 C 
ATOM     31  C   UNL     1       7.646   6.268  18.427  0.00  0.00    +0.000 C 
ENDBRANCH  24  29
ENDBRANCH  23  24
ENDBRANCH  22  23
ENDBRANCH  21  22
ENDBRANCH   1  21
TORSDOF 6
ENDMDL
MODEL 9
REMARK VINA RESULT:      -7.3      2.781      3.935
REMARK  Name = 
REMARK  7 active torsions:
REMARK  status: ('A' for Active; 'I' for Inactive)
REMARK    1  A    between atoms: C_1  and  N_2
REMARK    2  A    between atoms: N_5  and  C_6
REMARK    3  A    between atoms: C_6  and  C_7
REMARK    4  A    between atoms: C_7  and  C_8
REMARK    5  A    between atoms: C_8  and  O_9
REMARK    6  A    between atoms: O_9  and  C_10
REMARK    7  A    between atoms: N_17  and  C_18
REMARK                            x       y       z     vdW  Elec       q    Type
REMARK                         _______ _______ _______ _____ _____    ______ ____
ROOT
ATOM      1  C   UNL     1      -0.671  10.746  21.156  0.00  0.00    +0.000 A 
ATOM      2  C   UNL     1      -0.596  10.397  22.512  0.00  0.00    +0.000 A 
ATOM      3  C   UNL     1       0.284   9.410  22.936  0.00  0.00    +0.000 A 
ATOM      4  C   UNL     1       1.087   8.760  22.006  0.00  0.00    +0.000 A 
ATOM      5  C   UNL     1       1.040   9.080  20.659  0.00  0.00    +0.000 A 
ATOM      6  N   UNL     1       1.828   8.385  19.833  0.00  0.00    +0.000 NA
ATOM      7  C   UNL     1       1.810   8.646  18.511  0.00  0.00    +0.000 A 
ATOM      8  N   UNL     1       2.587   7.842  17.646  0.00  0.00    +0.000 N 
ATOM      9  C   UNL     1       1.027   9.656  17.980  0.00  0.00    +0.000 A 
ATOM     10  C   UNL     1       0.187  10.373  18.836  0.00  0.00    +0.000 A 
ATOM     11  C   UNL     1       0.166  10.090  20.218  0.00  0.00    +0.000 A 
ATOM     12  H   UNL     1       3.312   8.405  17.213  0.00  0.00    +0.000 HD
ENDROOT
BRANCH   8  13
ATOM     13  C   UNL     1       2.978   6.518  17.949  0.00  0.00    +0.000 A 
ATOM     14  C   UNL     1       2.011   5.513  18.129  0.00  0.00    +0.000 A 
ATOM     15  C   UNL     1       2.380   4.202  18.412  0.00  0.00    +0.000 A 
ATOM     16 CL   UNL     1       1.165   3.007  18.648  0.00  0.00    +0.000 Cl
ATOM     17  C   UNL     1       3.722   3.856  18.503  0.00  0.00    +0.000 A 
ATOM     18  C   UNL     1       4.688   4.838  18.299  0.00  0.00    +0.000 A 
ATOM     19 CL   UNL     1       6.355   4.415  18.408  0.00  0.00    +0.000 Cl
ATOM     20  C   UNL     1       4.327   6.159  18.011  0.00  0.00    +0.000 A 
ENDBRANCH   8  13
BRANCH   1  21
ATOM     21  O   UNL     1      -1.537  11.693  20.656  0.00  0.00    +0.000 OA
BRANCH  21  22
ATOM     22  C   UNL     1      -1.834  12.786  21.530  0.00  0.00    +0.000 C 
BRANCH  22  23
ATOM     23  C   UNL     1      -2.167  14.013  20.694  0.00  0.00    +0.000 C 
BRANCH  23  24
ATOM     24  C   UNL     1      -0.972  14.970  20.596  0.00  0.00    +0.000 C 
BRANCH  24  29
ATOM     25  C   UNL     1       3.728  14.629  19.533  0.00  0.00    +0.000 C 
ATOM     26  N   UNL     1       2.404  14.922  18.997  0.00  0.00    +0.000 NA
ATOM     27  C   UNL     1       1.810  16.098  19.657  0.00  0.00    +0.000 C 
ATOM     28  C   UNL     1       0.392  16.397  19.116  0.00  0.00    +0.000 C 
ATOM     29  N   UNL     1      -0.554  15.261  19.215  0.00  0.00    +0.000 NA
ATOM     30  C   UNL     1       0.085  14.082  18.587  0.00  0.00    +0.000 C 
ATOM     31  C   UNL     1       1.504  13.762  19.119  0.00  0.00    +0.000 C 
ENDBRANCH  24  29
ENDBRANCH  23  24
ENDBRANCH  22  23
ENDBRANCH  21  22
ENDBRANCH   1  21
TORSDOF 6
ENDMDL
