MODEL 1
REMARK VINA RESULT:      -7.8      0.000      0.000
REMARK  Name = 
REMARK  5 active torsions:
REMARK  status: ('A' for Active; 'I' for Inactive)
REMARK    1  A    between atoms: C_2  and  C_3
REMARK    2  A    between atoms: C_8  and  O_9
REMARK    3  A    between atoms: C_16  and  C_17
REMARK    4  A    between atoms: C_17  and  C_18
REMARK    5  A    between atoms: C_18  and  C_19
REMARK                            x       y       z     vdW  Elec       q    Type
REMARK                         _______ _______ _______ _____ _____    ______ ____
ROOT
ATOM      1  O   UNL     1       4.919   2.531  19.901  0.00  0.00    +0.000 OA
ATOM      2  C   UNL     1       4.590   3.511  19.234  0.00  0.00    +0.000 C 
ATOM      3  N   UNL     1       3.648   4.423  19.711  0.00  0.00    +0.000 N 
ATOM      4  C   UNL     1       2.952   4.132  20.965  0.00  0.00    +0.000 C 
ATOM      5  C   UNL     1       1.451   4.409  20.829  0.00  0.00    +0.000 C 
ATOM      6  C   UNL     1       1.137   5.798  20.230  0.00  0.00    +0.000 C 
ATOM      7  C   UNL     1       1.969   5.995  18.947  0.00  0.00    +0.000 C 
ATOM      8  C   UNL     1       3.453   5.783  19.219  0.00  0.00    +0.000 C 
ENDROOT
BRANCH   2   9
ATOM      9  C   UNL     1       5.153   3.723  17.913  0.00  0.00    +0.000 A 
ATOM     10  C   UNL     1       4.568   3.432  16.691  0.00  0.00    +0.000 A 
ATOM     11  C   UNL     1       5.413   3.916  15.656  0.00  0.00    +0.000 A 
ATOM     12  C   UNL     1       5.326   3.946  14.251  0.00  0.00    +0.000 A 
ATOM     13  C   UNL     1       6.346   4.559  13.513  0.00  0.00    +0.000 A 
ATOM     14  C   UNL     1       7.447   5.103  14.166  0.00  0.00    +0.000 A 
ATOM     15  C   UNL     1       7.575   5.064  15.553  0.00  0.00    +0.000 A 
ATOM     16  C   UNL     1       6.524   4.484  16.272  0.00  0.00    +0.000 A 
ATOM     17  N   UNL     1       6.327   4.382  17.628  0.00  0.00    +0.000 N 
ATOM     18  H   UNL     1       6.948   4.774  18.321  0.00  0.00    +0.000 HD
BRANCH  14  19
ATOM     19  O   UNL     1       8.447   5.720  13.468  0.00  0.00    +0.000 OA
ATOM     20  H   UNL     1       8.042   6.264  12.771  0.00  0.00    +0.000 HD
ENDBRANCH  14  19
ENDBRANCH   2   9
BRANCH   6  21
ATOM     21  C   UNL     1       1.348   6.919  21.272  0.00  0.00    +0.000 C 
BRANCH  21  22
ATOM     22  C   UNL     1       1.462   8.309  20.636  0.00  0.00    +0.000 C 
BRANCH  22  23
ATOM     23  C   UNL     1       0.542   9.306  21.287  0.00  0.00    +0.000 A 
ATOM     24  C   UNL     1      -0.016  10.349  20.536  0.00  0.00    +0.000 A 
ATOM     25  C   UNL     1      -0.864  11.279  21.136  0.00  0.00    +0.000 A 
ATOM     26  C   UNL     1      -1.157  11.174  22.494  0.00  0.00    +0.000 A 
ATOM     27  C   UNL     1      -0.606  10.141  23.250  0.00  0.00    +0.000 A 
ATOM     28  C   UNL     1       0.244   9.211  22.651  0.00  0.00    +0.000 A 
ENDBRANCH  22  23
ENDBRANCH  21  22
ENDBRANCH   6  21
TORSDOF 5
ENDMDL
MODEL 2
REMARK VINA RESULT:      -7.5      3.751      6.400
REMARK  Name = 
REMARK  5 active torsions:
REMARK  status: ('A' for Active; 'I' for Inactive)
REMARK    1  A    between atoms: C_2  and  C_3
REMARK    2  A    between atoms: C_8  and  O_9
REMARK    3  A    between atoms: C_16  and  C_17
REMARK    4  A    between atoms: C_17  and  C_18
REMARK    5  A    between atoms: C_18  and  C_19
REMARK                            x       y       z     vdW  Elec       q    Type
REMARK                         _______ _______ _______ _____ _____    ______ ____
ROOT
ATOM      1  O   UNL     1       3.567   8.300  17.248  0.00  0.00    +0.000 OA
ATOM      2  C   UNL     1       2.608   8.153  18.003  0.00  0.00    +0.000 C 
ATOM      3  N   UNL     1       1.791   9.230  18.349  0.00  0.00    +0.000 N 
ATOM      4  C   UNL     1       2.167  10.574  17.906  0.00  0.00    +0.000 C 
ATOM      5  C   UNL     1       2.020  11.583  19.049  0.00  0.00    +0.000 C 
ATOM      6  C   UNL     1       0.653  11.503  19.765  0.00  0.00    +0.000 C 
ATOM      7  C   UNL     1       0.359  10.035  20.131  0.00  0.00    +0.000 C 
ATOM      8  C   UNL     1       0.445   9.136  18.903  0.00  0.00    +0.000 C 
ENDROOT
BRANCH   2   9
ATOM      9  C   UNL     1       2.322   6.853  18.583  0.00  0.00    +0.000 A 
ATOM     10  C   UNL     1       1.981   5.688  17.916  0.00  0.00    +0.000 A 
ATOM     11  C   UNL     1       1.914   4.627  18.858  0.00  0.00    +0.000 A 
ATOM     12  C   UNL     1       1.660   3.245  18.764  0.00  0.00    +0.000 A 
ATOM     13  C   UNL     1       1.719   2.456  19.920  0.00  0.00    +0.000 A 
ATOM     14  C   UNL     1       1.995   3.043  21.150  0.00  0.00    +0.000 A 
ATOM     15  C   UNL     1       2.224   4.412  21.279  0.00  0.00    +0.000 A 
ATOM     16  C   UNL     1       2.200   5.174  20.105  0.00  0.00    +0.000 A 
ATOM     17  N   UNL     1       2.472   6.505  19.907  0.00  0.00    +0.000 N 
ATOM     18  H   UNL     1       2.778   7.135  20.635  0.00  0.00    +0.000 HD
BRANCH  14  19
ATOM     19  O   UNL     1       2.074   2.291  22.288  0.00  0.00    +0.000 OA
ATOM     20  H   UNL     1       1.247   1.789  22.381  0.00  0.00    +0.000 HD
ENDBRANCH  14  19
ENDBRANCH   2   9
BRANCH   6  21
ATOM     21  C   UNL     1      -0.462  12.155  18.918  0.00  0.00    +0.000 C 
BRANCH  21  22
ATOM     22  C   UNL     1      -1.850  11.578  19.215  0.00  0.00    +0.000 C 
BRANCH  22  23
ATOM     23  C   UNL     1      -2.590  11.209  17.956  0.00  0.00    +0.000 A 
ATOM     24  C   UNL     1      -1.967  10.428  16.974  0.00  0.00    +0.000 A 
ATOM     25  C   UNL     1      -2.645  10.089  15.804  0.00  0.00    +0.000 A 
ATOM     26  C   UNL     1      -3.950  10.533  15.606  0.00  0.00    +0.000 A 
ATOM     27  C   UNL     1      -4.577  11.313  16.577  0.00  0.00    +0.000 A 
ATOM     28  C   UNL     1      -3.900  11.653  17.747  0.00  0.00    +0.000 A 
ENDBRANCH  22  23
ENDBRANCH  21  22
ENDBRANCH   6  21
TORSDOF 5
ENDMDL
MODEL 3
REMARK VINA RESULT:      -7.5      1.483      2.169
REMARK  Name = 
REMARK  5 active torsions:
REMARK  status: ('A' for Active; 'I' for Inactive)
REMARK    1  A    between atoms: C_2  and  C_3
REMARK    2  A    between atoms: C_8  and  O_9
REMARK    3  A    between atoms: C_16  and  C_17
REMARK    4  A    between atoms: C_17  and  C_18
REMARK    5  A    between atoms: C_18  and  C_19
REMARK                            x       y       z     vdW  Elec       q    Type
REMARK                         _______ _______ _______ _____ _____    ______ ____
ROOT
ATOM      1  O   UNL     1       7.148   4.362  18.576  0.00  0.00    +0.000 OA
ATOM      2  C   UNL     1       6.295   4.761  17.786  0.00  0.00    +0.000 C 
ATOM      3  N   UNL     1       5.125   5.374  18.237  0.00  0.00    +0.000 N 
ATOM      4  C   UNL     1       4.860   5.421  19.675  0.00  0.00    +0.000 C 
ATOM      5  C   UNL     1       3.406   5.041  19.972  0.00  0.00    +0.000 C 
ATOM      6  C   UNL     1       2.384   5.812  19.106  0.00  0.00    +0.000 C 
ATOM      7  C   UNL     1       2.807   5.724  17.627  0.00  0.00    +0.000 C 
ATOM      8  C   UNL     1       4.238   6.210  17.436  0.00  0.00    +0.000 C 
ENDROOT
BRANCH   2   9
ATOM      9  C   UNL     1       6.471   4.571  16.357  0.00  0.00    +0.000 A 
ATOM     10  C   UNL     1       5.817   3.663  15.540  0.00  0.00    +0.000 A 
ATOM     11  C   UNL     1       6.200   3.903  14.194  0.00  0.00    +0.000 A 
ATOM     12  C   UNL     1       5.840   3.340  12.955  0.00  0.00    +0.000 A 
ATOM     13  C   UNL     1       6.390   3.862  11.778  0.00  0.00    +0.000 A 
ATOM     14  C   UNL     1       7.307   4.906  11.841  0.00  0.00    +0.000 A 
ATOM     15  C   UNL     1       7.704   5.466  13.054  0.00  0.00    +0.000 A 
ATOM     16  C   UNL     1       7.110   4.957  14.214  0.00  0.00    +0.000 A 
ATOM     17  N   UNL     1       7.230   5.359  15.521  0.00  0.00    +0.000 N 
ATOM     18  H   UNL     1       7.777   6.153  15.821  0.00  0.00    +0.000 HD
BRANCH  14  19
ATOM     19  O   UNL     1       7.844   5.442  10.704  0.00  0.00    +0.000 OA
ATOM     20  H   UNL     1       8.327   4.742  10.234  0.00  0.00    +0.000 HD
ENDBRANCH  14  19
ENDBRANCH   2   9
BRANCH   6  21
ATOM     21  C   UNL     1       2.208   7.263  19.606  0.00  0.00    +0.000 C 
BRANCH  21  22
ATOM     22  C   UNL     1       1.503   7.343  20.965  0.00  0.00    +0.000 C 
BRANCH  22  23
ATOM     23  C   UNL     1       0.825   8.671  21.172  0.00  0.00    +0.000 A 
ATOM     24  C   UNL     1       0.236   8.978  22.406  0.00  0.00    +0.000 A 
ATOM     25  C   UNL     1      -0.399  10.205  22.600  0.00  0.00    +0.000 A 
ATOM     26  C   UNL     1      -0.452  11.130  21.561  0.00  0.00    +0.000 A 
ATOM     27  C   UNL     1       0.130  10.832  20.330  0.00  0.00    +0.000 A 
ATOM     28  C   UNL     1       0.763   9.606  20.133  0.00  0.00    +0.000 A 
ENDBRANCH  22  23
ENDBRANCH  21  22
ENDBRANCH   6  21
TORSDOF 5
ENDMDL
MODEL 4
REMARK VINA RESULT:      -7.4      3.661      9.188
REMARK  Name = 
REMARK  5 active torsions:
REMARK  status: ('A' for Active; 'I' for Inactive)
REMARK    1  A    between atoms: C_2  and  C_3
REMARK    2  A    between atoms: C_8  and  O_9
REMARK    3  A    between atoms: C_16  and  C_17
REMARK    4  A    between atoms: C_17  and  C_18
REMARK    5  A    between atoms: C_18  and  C_19
REMARK                            x       y       z     vdW  Elec       q    Type
REMARK                         _______ _______ _______ _____ _____    ______ ____
ROOT
ATOM      1  O   UNL     1       1.903   9.558  17.424  0.00  0.00    +0.000 OA
ATOM      2  C   UNL     1       1.691   9.136  18.560  0.00  0.00    +0.000 C 
ATOM      3  N   UNL     1       2.096   7.856  18.940  0.00  0.00    +0.000 N 
ATOM      4  C   UNL     1       2.663   6.963  17.928  0.00  0.00    +0.000 C 
ATOM      5  C   UNL     1       2.064   5.558  18.048  0.00  0.00    +0.000 C 
ATOM      6  C   UNL     1       2.099   4.999  19.488  0.00  0.00    +0.000 C 
ATOM      7  C   UNL     1       1.523   6.053  20.453  0.00  0.00    +0.000 C 
ATOM      8  C   UNL     1       2.251   7.383  20.311  0.00  0.00    +0.000 C 
ENDROOT
BRANCH   2   9
ATOM      9  C   UNL     1       0.980   9.953  19.526  0.00  0.00    +0.000 A 
ATOM     10  C   UNL     1       0.056   9.533  20.469  0.00  0.00    +0.000 A 
ATOM     11  C   UNL     1      -0.295  10.639  21.288  0.00  0.00    +0.000 A 
ATOM     12  C   UNL     1      -1.133  10.806  22.406  0.00  0.00    +0.000 A 
ATOM     13  C   UNL     1      -1.217  12.063  23.019  0.00  0.00    +0.000 A 
ATOM     14  C   UNL     1      -0.501  13.138  22.505  0.00  0.00    +0.000 A 
ATOM     15  C   UNL     1       0.316  13.011  21.382  0.00  0.00    +0.000 A 
ATOM     16  C   UNL     1       0.416  11.737  20.811  0.00  0.00    +0.000 A 
ATOM     17  N   UNL     1       1.197  11.290  19.773  0.00  0.00    +0.000 N 
ATOM     18  H   UNL     1       1.869  11.863  19.284  0.00  0.00    +0.000 HD
BRANCH  14  19
ATOM     19  O   UNL     1      -0.555  14.369  23.096  0.00  0.00    +0.000 OA
ATOM     20  H   UNL     1       0.231  14.873  22.825  0.00  0.00    +0.000 HD
ENDBRANCH  14  19
ENDBRANCH   2   9
BRANCH   6  21
ATOM     21  C   UNL     1       3.520   4.531  19.873  0.00  0.00    +0.000 C 
BRANCH  21  22
ATOM     22  C   UNL     1       4.071   3.460  18.925  0.00  0.00    +0.000 C 
BRANCH  22  23
ATOM     23  C   UNL     1       5.081   4.023  17.962  0.00  0.00    +0.000 A 
ATOM     24  C   UNL     1       6.160   4.783  18.434  0.00  0.00    +0.000 A 
ATOM     25  C   UNL     1       7.095   5.313  17.544  0.00  0.00    +0.000 A 
ATOM     26  C   UNL     1       6.954   5.089  16.177  0.00  0.00    +0.000 A 
ATOM     27  C   UNL     1       5.883   4.337  15.698  0.00  0.00    +0.000 A 
ATOM     28  C   UNL     1       4.947   3.808  16.586  0.00  0.00    +0.000 A 
ENDBRANCH  22  23
ENDBRANCH  21  22
ENDBRANCH   6  21
TORSDOF 5
ENDMDL
MODEL 5
REMARK VINA RESULT:      -7.4      3.648      9.052
REMARK  Name = 
REMARK  5 active torsions:
REMARK  status: ('A' for Active; 'I' for Inactive)
REMARK    1  A    between atoms: C_2  and  C_3
REMARK    2  A    between atoms: C_8  and  O_9
REMARK    3  A    between atoms: C_16  and  C_17
REMARK    4  A    between atoms: C_17  and  C_18
REMARK    5  A    between atoms: C_18  and  C_19
REMARK                            x       y       z     vdW  Elec       q    Type
REMARK                         _______ _______ _______ _____ _____    ______ ____
ROOT
ATOM      1  O   UNL     1       2.068   9.259  17.570  0.00  0.00    +0.000 OA
ATOM      2  C   UNL     1       1.744   8.731  18.633  0.00  0.00    +0.000 C 
ATOM      3  N   UNL     1       2.172   7.444  18.958  0.00  0.00    +0.000 N 
ATOM      4  C   UNL     1       2.910   6.670  17.959  0.00  0.00    +0.000 C 
ATOM      5  C   UNL     1       2.383   5.232  17.890  0.00  0.00    +0.000 C 
ATOM      6  C   UNL     1       2.274   4.554  19.273  0.00  0.00    +0.000 C 
ATOM      7  C   UNL     1       1.523   5.492  20.239  0.00  0.00    +0.000 C 
ATOM      8  C   UNL     1       2.185   6.863  20.296  0.00  0.00    +0.000 C 
ENDROOT
BRANCH   2   9
ATOM      9  C   UNL     1       0.873   9.428  19.563  0.00  0.00    +0.000 A 
ATOM     10  C   UNL     1       0.785   9.246  20.933  0.00  0.00    +0.000 A 
ATOM     11  C   UNL     1      -0.100  10.220  21.466  0.00  0.00    +0.000 A 
ATOM     12  C   UNL     1      -0.537  10.545  22.764  0.00  0.00    +0.000 A 
ATOM     13  C   UNL     1      -1.405  11.629  22.945  0.00  0.00    +0.000 A 
ATOM     14  C   UNL     1      -1.853  12.354  21.846  0.00  0.00    +0.000 A 
ATOM     15  C   UNL     1      -1.460  12.040  20.546  0.00  0.00    +0.000 A 
ATOM     16  C   UNL     1      -0.560  10.979  20.393  0.00  0.00    +0.000 A 
ATOM     17  N   UNL     1       0.064  10.502  19.267  0.00  0.00    +0.000 N 
ATOM     18  H   UNL     1      -0.032  10.913  18.350  0.00  0.00    +0.000 HD
BRANCH  14  19
ATOM     19  O   UNL     1      -2.687  13.426  22.000  0.00  0.00    +0.000 OA
ATOM     20  H   UNL     1      -2.983  13.712  21.119  0.00  0.00    +0.000 HD
ENDBRANCH  14  19
ENDBRANCH   2   9
BRANCH   6  21
ATOM     21  C   UNL     1       3.661   4.122  19.797  0.00  0.00    +0.000 C 
BRANCH  21  22
ATOM     22  C   UNL     1       4.537   3.489  18.710  0.00  0.00    +0.000 C 
BRANCH  22  23
ATOM     23  C   UNL     1       5.599   4.436  18.217  0.00  0.00    +0.000 A 
ATOM     24  C   UNL     1       6.280   5.264  19.119  0.00  0.00    +0.000 A 
ATOM     25  C   UNL     1       7.260   6.148  18.666  0.00  0.00    +0.000 A 
ATOM     26  C   UNL     1       7.562   6.211  17.308  0.00  0.00    +0.000 A 
ATOM     27  C   UNL     1       6.887   5.392  16.404  0.00  0.00    +0.000 A 
ATOM     28  C   UNL     1       5.907   4.510  16.854  0.00  0.00    +0.000 A 
ENDBRANCH  22  23
ENDBRANCH  21  22
ENDBRANCH   6  21
TORSDOF 5
ENDMDL
MODEL 6
REMARK VINA RESULT:      -7.4      4.805      7.449
REMARK  Name = 
REMARK  5 active torsions:
REMARK  status: ('A' for Active; 'I' for Inactive)
REMARK    1  A    between atoms: C_2  and  C_3
REMARK    2  A    between atoms: C_8  and  O_9
REMARK    3  A    between atoms: C_16  and  C_17
REMARK    4  A    between atoms: C_17  and  C_18
REMARK    5  A    between atoms: C_18  and  C_19
REMARK                            x       y       z     vdW  Elec       q    Type
REMARK                         _______ _______ _______ _____ _____    ______ ____
ROOT
ATOM      1  O   UNL     1       1.166  11.983  19.323  0.00  0.00    +0.000 OA
ATOM      2  C   UNL     1       0.599  11.008  18.835  0.00  0.00    +0.000 C 
ATOM      3  N   UNL     1      -0.719  11.092  18.384  0.00  0.00    +0.000 N 
ATOM      4  C   UNL     1      -1.470  12.326  18.619  0.00  0.00    +0.000 C 
ATOM      5  C   UNL     1      -2.881  12.014  19.129  0.00  0.00    +0.000 C 
ATOM      6  C   UNL     1      -3.623  10.965  18.272  0.00  0.00    +0.000 C 
ATOM      7  C   UNL     1      -2.707   9.744  18.061  0.00  0.00    +0.000 C 
ATOM      8  C   UNL     1      -1.367  10.160  17.467  0.00  0.00    +0.000 C 
ENDROOT
BRANCH   2   9
ATOM      9  C   UNL     1       1.281   9.729  18.748  0.00  0.00    +0.000 A 
ATOM     10  C   UNL     1       2.157   9.305  17.763  0.00  0.00    +0.000 A 
ATOM     11  C   UNL     1       2.686   8.041  18.137  0.00  0.00    +0.000 A 
ATOM     12  C   UNL     1       3.628   7.163  17.567  0.00  0.00    +0.000 A 
ATOM     13  C   UNL     1       3.962   5.983  18.243  0.00  0.00    +0.000 A 
ATOM     14  C   UNL     1       3.344   5.672  19.450  0.00  0.00    +0.000 A 
ATOM     15  C   UNL     1       2.388   6.507  20.025  0.00  0.00    +0.000 A 
ATOM     16  C   UNL     1       2.100   7.700  19.353  0.00  0.00    +0.000 A 
ATOM     17  N   UNL     1       1.284   8.745  19.712  0.00  0.00    +0.000 N 
ATOM     18  H   UNL     1       0.784   8.797  20.587  0.00  0.00    +0.000 HD
BRANCH  14  19
ATOM     19  O   UNL     1       3.667   4.534  20.135  0.00  0.00    +0.000 OA
ATOM     20  H   UNL     1       2.856   4.176  20.533  0.00  0.00    +0.000 HD
ENDBRANCH  14  19
ENDBRANCH   2   9
BRANCH   6  21
ATOM     21  C   UNL     1      -4.134  11.580  16.951  0.00  0.00    +0.000 C 
BRANCH  21  22
ATOM     22  C   UNL     1      -5.562  12.126  17.062  0.00  0.00    +0.000 C 
BRANCH  22  23
ATOM     23  C   UNL     1      -6.231  11.702  18.342  0.00  0.00    +0.000 A 
ATOM     24  C   UNL     1      -6.580  10.361  18.546  0.00  0.00    +0.000 A 
ATOM     25  C   UNL     1      -7.206   9.964  19.728  0.00  0.00    +0.000 A 
ATOM     26  C   UNL     1      -7.490  10.908  20.712  0.00  0.00    +0.000 A 
ATOM     27  C   UNL     1      -7.149  12.245  20.517  0.00  0.00    +0.000 A 
ATOM     28  C   UNL     1      -6.524  12.644  19.335  0.00  0.00    +0.000 A 
ENDBRANCH  22  23
ENDBRANCH  21  22
ENDBRANCH   6  21
TORSDOF 5
ENDMDL
MODEL 7
REMARK VINA RESULT:      -7.4      1.588      2.347
REMARK  Name = 
REMARK  5 active torsions:
REMARK  status: ('A' for Active; 'I' for Inactive)
REMARK    1  A    between atoms: C_2  and  C_3
REMARK    2  A    between atoms: C_8  and  O_9
REMARK    3  A    between atoms: C_16  and  C_17
REMARK    4  A    between atoms: C_17  and  C_18
REMARK    5  A    between atoms: C_18  and  C_19
REMARK                            x       y       z     vdW  Elec       q    Type
REMARK                         _______ _______ _______ _____ _____    ______ ____
ROOT
ATOM      1  O   UNL     1       6.663   4.389  18.730  0.00  0.00    +0.000 OA
ATOM      2  C   UNL     1       5.861   4.889  17.943  0.00  0.00    +0.000 C 
ATOM      3  N   UNL     1       4.733   5.572  18.399  0.00  0.00    +0.000 N 
ATOM      4  C   UNL     1       4.441   5.577  19.833  0.00  0.00    +0.000 C 
ATOM      5  C   UNL     1       2.955   5.302  20.084  0.00  0.00    +0.000 C 
ATOM      6  C   UNL     1       2.016   6.188  19.235  0.00  0.00    +0.000 C 
ATOM      7  C   UNL     1       2.464   6.132  17.761  0.00  0.00    +0.000 C 
ATOM      8  C   UNL     1       3.933   6.510  17.620  0.00  0.00    +0.000 C 
ENDROOT
BRANCH   2   9
ATOM      9  C   UNL     1       6.053   4.747  16.510  0.00  0.00    +0.000 A 
ATOM     10  C   UNL     1       7.005   5.372  15.721  0.00  0.00    +0.000 A 
ATOM     11  C   UNL     1       6.916   4.851  14.403  0.00  0.00    +0.000 A 
ATOM     12  C   UNL     1       7.633   5.068  13.211  0.00  0.00    +0.000 A 
ATOM     13  C   UNL     1       7.303   4.330  12.067  0.00  0.00    +0.000 A 
ATOM     14  C   UNL     1       6.256   3.416  12.106  0.00  0.00    +0.000 A 
ATOM     15  C   UNL     1       5.510   3.199  13.263  0.00  0.00    +0.000 A 
ATOM     16  C   UNL     1       5.884   3.917  14.405  0.00  0.00    +0.000 A 
ATOM     17  N   UNL     1       5.404   3.851  15.690  0.00  0.00    +0.000 N 
ATOM     18  H   UNL     1       4.694   3.203  15.996  0.00  0.00    +0.000 HD
BRANCH  14  19
ATOM     19  O   UNL     1       5.927   2.673  11.007  0.00  0.00    +0.000 OA
ATOM     20  H   UNL     1       6.747   2.428  10.547  0.00  0.00    +0.000 HD
ENDBRANCH  14  19
ENDBRANCH   2   9
BRANCH   6  21
ATOM     21  C   UNL     1       1.943   7.626  19.796  0.00  0.00    +0.000 C 
BRANCH  21  22
ATOM     22  C   UNL     1       1.328   7.687  21.199  0.00  0.00    +0.000 C 
BRANCH  22  23
ATOM     23  C   UNL     1       0.580   8.972  21.432  0.00  0.00    +0.000 A 
ATOM     24  C   UNL     1      -0.003   9.234  22.679  0.00  0.00    +0.000 A 
ATOM     25  C   UNL     1      -0.703  10.420  22.898  0.00  0.00    +0.000 A 
ATOM     26  C   UNL     1      -0.827  11.351  21.869  0.00  0.00    +0.000 A 
ATOM     27  C   UNL     1      -0.252  11.099  20.625  0.00  0.00    +0.000 A 
ATOM     28  C   UNL     1       0.446   9.912  20.404  0.00  0.00    +0.000 A 
ENDBRANCH  22  23
ENDBRANCH  21  22
ENDBRANCH   6  21
TORSDOF 5
ENDMDL
MODEL 8
REMARK VINA RESULT:      -7.4      2.758      8.745
REMARK  Name = 
REMARK  5 active torsions:
REMARK  status: ('A' for Active; 'I' for Inactive)
REMARK    1  A    between atoms: C_2  and  C_3
REMARK    2  A    between atoms: C_8  and  O_9
REMARK    3  A    between atoms: C_16  and  C_17
REMARK    4  A    between atoms: C_17  and  C_18
REMARK    5  A    between atoms: C_18  and  C_19
REMARK                            x       y       z     vdW  Elec       q    Type
REMARK                         _______ _______ _______ _____ _____    ______ ____
ROOT
ATOM      1  O   UNL     1       2.508   4.834  20.661  0.00  0.00    +0.000 OA
ATOM      2  C   UNL     1       2.877   5.692  19.862  0.00  0.00    +0.000 C 
ATOM      3  N   UNL     1       3.983   5.482  19.037  0.00  0.00    +0.000 N 
ATOM      4  C   UNL     1       4.785   4.271  19.224  0.00  0.00    +0.000 C 
ATOM      5  C   UNL     1       6.280   4.603  19.201  0.00  0.00    +0.000 C 
ATOM      6  C   UNL     1       6.697   5.467  17.990  0.00  0.00    +0.000 C 
ATOM      7  C   UNL     1       5.746   6.675  17.880  0.00  0.00    +0.000 C 
ATOM      8  C   UNL     1       4.292   6.224  17.820  0.00  0.00    +0.000 C 
ENDROOT
BRANCH   2   9
ATOM      9  C   UNL     1       2.188   6.968  19.784  0.00  0.00    +0.000 A 
ATOM     10  C   UNL     1       1.495   7.615  20.793  0.00  0.00    +0.000 A 
ATOM     11  C   UNL     1       1.087   8.891  20.320  0.00  0.00    +0.000 A 
ATOM     12  C   UNL     1       0.405   9.980  20.896  0.00  0.00    +0.000 A 
ATOM     13  C   UNL     1       0.203  11.140  20.139  0.00  0.00    +0.000 A 
ATOM     14  C   UNL     1       0.646  11.199  18.822  0.00  0.00    +0.000 A 
ATOM     15  C   UNL     1       1.300  10.128  18.216  0.00  0.00    +0.000 A 
ATOM     16  C   UNL     1       1.528   8.994  19.004  0.00  0.00    +0.000 A 
ATOM     17  N   UNL     1       2.212   7.839  18.717  0.00  0.00    +0.000 N 
ATOM     18  H   UNL     1       2.700   7.670  17.850  0.00  0.00    +0.000 HD
BRANCH  14  19
ATOM     19  O   UNL     1       0.474  12.328  18.069  0.00  0.00    +0.000 OA
ATOM     20  H   UNL     1       1.351  12.662  17.815  0.00  0.00    +0.000 HD
ENDBRANCH  14  19
ENDBRANCH   2   9
BRANCH   6  21
ATOM     21  C   UNL     1       6.766   4.625  16.697  0.00  0.00    +0.000 C 
BRANCH  21  22
ATOM     22  C   UNL     1       7.155   5.453  15.468  0.00  0.00    +0.000 C 
BRANCH  22  23
ATOM     23  C   UNL     1       6.774   4.768  14.182  0.00  0.00    +0.000 A 
ATOM     24  C   UNL     1       5.588   4.027  14.102  0.00  0.00    +0.000 A 
ATOM     25  C   UNL     1       5.233   3.385  12.915  0.00  0.00    +0.000 A 
ATOM     26  C   UNL     1       6.065   3.478  11.802  0.00  0.00    +0.000 A 
ATOM     27  C   UNL     1       7.248   4.212  11.873  0.00  0.00    +0.000 A 
ATOM     28  C   UNL     1       7.605   4.853  13.059  0.00  0.00    +0.000 A 
ENDBRANCH  22  23
ENDBRANCH  21  22
ENDBRANCH   6  21
TORSDOF 5
ENDMDL
MODEL 9
REMARK VINA RESULT:      -7.4      3.733      9.451
REMARK  Name = 
REMARK  5 active torsions:
REMARK  status: ('A' for Active; 'I' for Inactive)
REMARK    1  A    between atoms: C_2  and  C_3
REMARK    2  A    between atoms: C_8  and  O_9
REMARK    3  A    between atoms: C_16  and  C_17
REMARK    4  A    between atoms: C_17  and  C_18
REMARK    5  A    between atoms: C_18  and  C_19
REMARK                            x       y       z     vdW  Elec       q    Type
REMARK                         _______ _______ _______ _____ _____    ______ ____
ROOT
ATOM      1  O   UNL     1       1.705   9.752  17.604  0.00  0.00    +0.000 OA
ATOM      2  C   UNL     1       1.464   9.206  18.680  0.00  0.00    +0.000 C 
ATOM      3  N   UNL     1       2.017   7.965  18.998  0.00  0.00    +0.000 N 
ATOM      4  C   UNL     1       2.790   7.253  17.979  0.00  0.00    +0.000 C 
ATOM      5  C   UNL     1       2.394   5.773  17.935  0.00  0.00    +0.000 C 
ATOM      6  C   UNL     1       2.390   5.099  19.325  0.00  0.00    +0.000 C 
ATOM      7  C   UNL     1       1.589   5.973  20.308  0.00  0.00    +0.000 C 
ATOM      8  C   UNL     1       2.125   7.399  20.338  0.00  0.00    +0.000 C 
ENDROOT
BRANCH   2   9
ATOM      9  C   UNL     1       0.563   9.828  19.634  0.00  0.00    +0.000 A 
ATOM     10  C   UNL     1       0.499   9.608  21.000  0.00  0.00    +0.000 A 
ATOM     11  C   UNL     1      -0.436  10.517  21.563  0.00  0.00    +0.000 A 
ATOM     12  C   UNL     1      -0.878  10.784  22.873  0.00  0.00    +0.000 A 
ATOM     13  C   UNL     1      -1.806  11.812  23.088  0.00  0.00    +0.000 A 
ATOM     14  C   UNL     1      -2.305  12.536  22.011  0.00  0.00    +0.000 A 
ATOM     15  C   UNL     1      -1.906  12.277  20.700  0.00  0.00    +0.000 A 
ATOM     16  C   UNL     1      -0.949  11.274  20.514  0.00  0.00    +0.000 A 
ATOM     17  N   UNL     1      -0.308  10.861  19.371  0.00  0.00    +0.000 N 
ATOM     18  H   UNL     1      -0.436  11.288  18.465  0.00  0.00    +0.000 HD
BRANCH  14  19
ATOM     19  O   UNL     1      -3.197  13.554  22.198  0.00  0.00    +0.000 OA
ATOM     20  H   UNL     1      -2.776  14.233  22.751  0.00  0.00    +0.000 HD
ENDBRANCH  14  19
ENDBRANCH   2   9
BRANCH   6  21
ATOM     21  C   UNL     1       3.827   4.799  19.806  0.00  0.00    +0.000 C 
BRANCH  21  22
ATOM     22  C   UNL     1       4.456   3.599  19.089  0.00  0.00    +0.000 C 
BRANCH  22  23
ATOM     23  C   UNL     1       5.321   4.022  17.931  0.00  0.00    +0.000 A 
ATOM     24  C   UNL     1       4.946   3.708  16.618  0.00  0.00    +0.000 A 
ATOM     25  C   UNL     1       5.747   4.093  15.543  0.00  0.00    +0.000 A 
ATOM     26  C   UNL     1       6.930   4.790  15.775  0.00  0.00    +0.000 A 
ATOM     27  C   UNL     1       7.312   5.105  17.077  0.00  0.00    +0.000 A 
ATOM     28  C   UNL     1       6.513   4.720  18.154  0.00  0.00    +0.000 A 
ENDBRANCH  22  23
ENDBRANCH  21  22
ENDBRANCH   6  21
TORSDOF 5
ENDMDL
