MODEL 1
REMARK VINA RESULT:      -7.3      0.000      0.000
REMARK  Name = 
REMARK  5 active torsions:
REMARK  status: ('A' for Active; 'I' for Inactive)
REMARK    1  A    between atoms: C_1  and  C_2
REMARK    2  A    between atoms: C_2  and  C_3
REMARK    3  A    between atoms: C_3  and  C_4
REMARK    4  A    between atoms: C_3  and  N_18
REMARK    5  A    between atoms: N_9  and  C_10
REMARK                            x       y       z     vdW  Elec       q    Type
REMARK                         _______ _______ _______ _____ _____    ______ ____
ROOT
ATOM      1  C   UNL     1       3.623   5.227  18.789  0.00  0.00    +0.000 C 
ATOM      2  O   UNL     1       3.787   4.459  19.748  0.00  0.00    +0.000 OA
ATOM      3  N   UNL     1       2.579   6.132  18.820  0.00  0.00    +0.000 N 
ATOM      4  C   UNL     1       1.797   6.307  20.059  0.00  0.00    +0.000 C 
ATOM      5  C   UNL     1       1.873   7.766  20.567  0.00  0.00    +0.000 C 
ATOM      6  N   UNL     1       1.580   8.727  19.483  0.00  0.00    +0.000 N 
ATOM      7  C   UNL     1       2.329   8.523  18.233  0.00  0.00    +0.000 C 
ATOM      8  C   UNL     1       2.163   7.064  17.777  0.00  0.00    +0.000 C 
ENDROOT
BRANCH   6   9
ATOM      9  C   UNL     1       0.584   9.680  19.566  0.00  0.00    +0.000 A 
ATOM     10  C   UNL     1      -0.121  10.102  18.425  0.00  0.00    +0.000 A 
ATOM     11  C   UNL     1      -1.130  11.068  18.493  0.00  0.00    +0.000 A 
ATOM     12  C   UNL     1      -1.463  11.637  19.716  0.00  0.00    +0.000 A 
ATOM     13  C   UNL     1      -0.788  11.236  20.865  0.00  0.00    +0.000 A 
ATOM     14  C   UNL     1       0.221  10.270  20.783  0.00  0.00    +0.000 A 
ENDBRANCH   6   9
BRANCH   1  15
ATOM     15  C   UNL     1       4.643   5.144  17.608  0.00  0.00    +0.000 C 
BRANCH  15  16
ATOM     16  N   UNL     1       5.869   5.923  17.862  0.00  0.00    +0.000 N 
ATOM     17  C   UNL     1       6.290   6.898  17.001  0.00  0.00    +0.000 C 
ATOM     18  O   UNL     1       5.742   7.261  15.982  0.00  0.00    +0.000 OA
ATOM     19  C   UNL     1       7.600   7.448  17.484  0.00  0.00    +0.000 C 
ATOM     20  C   UNL     1       7.901   6.670  18.743  0.00  0.00    +0.000 C 
ATOM     21  C   UNL     1       6.780   5.696  18.854  0.00  0.00    +0.000 C 
ATOM     22  O   UNL     1       6.762   4.841  19.727  0.00  0.00    +0.000 OA
ENDBRANCH  15  16
BRANCH  15  24
ATOM     23  C   UNL     1       5.748   3.631  15.806  0.00  0.00    +0.000 C 
ATOM     24  C   UNL     1       4.950   3.728  17.089  0.00  0.00    +0.000 C 
ENDBRANCH  15  24
ENDBRANCH   1  15
TORSDOF 4
ENDMDL
MODEL 2
REMARK VINA RESULT:      -7.2      1.013      1.290
REMARK  Name = 
REMARK  5 active torsions:
REMARK  status: ('A' for Active; 'I' for Inactive)
REMARK    1  A    between atoms: C_1  and  C_2
REMARK    2  A    between atoms: C_2  and  C_3
REMARK    3  A    between atoms: C_3  and  C_4
REMARK    4  A    between atoms: C_3  and  N_18
REMARK    5  A    between atoms: N_9  and  C_10
REMARK                            x       y       z     vdW  Elec       q    Type
REMARK                         _______ _______ _______ _____ _____    ______ ____
ROOT
ATOM      1  C   UNL     1       3.537   4.493  18.014  0.00  0.00    +0.000 C 
ATOM      2  O   UNL     1       3.544   3.380  18.559  0.00  0.00    +0.000 OA
ATOM      3  N   UNL     1       2.628   5.445  18.435  0.00  0.00    +0.000 N 
ATOM      4  C   UNL     1       1.815   5.200  19.642  0.00  0.00    +0.000 C 
ATOM      5  C   UNL     1       2.066   6.284  20.716  0.00  0.00    +0.000 C 
ATOM      6  N   UNL     1       1.965   7.642  20.141  0.00  0.00    +0.000 N 
ATOM      7  C   UNL     1       2.742   7.871  18.912  0.00  0.00    +0.000 C 
ATOM      8  C   UNL     1       2.400   6.778  17.886  0.00  0.00    +0.000 C 
ENDROOT
BRANCH   6   9
ATOM      9  C   UNL     1       1.108   8.608  20.628  0.00  0.00    +0.000 A 
ATOM     10  C   UNL     1       0.516   9.557  19.777  0.00  0.00    +0.000 A 
ATOM     11  C   UNL     1      -0.352  10.543  20.257  0.00  0.00    +0.000 A 
ATOM     12  C   UNL     1      -0.654  10.601  21.612  0.00  0.00    +0.000 A 
ATOM     13  C   UNL     1      -0.089   9.671  22.480  0.00  0.00    +0.000 A 
ATOM     14  C   UNL     1       0.780   8.691  21.987  0.00  0.00    +0.000 A 
ENDBRANCH   6   9
BRANCH   1  15
ATOM     15  C   UNL     1       4.596   4.762  16.896  0.00  0.00    +0.000 C 
BRANCH  15  16
ATOM     16  N   UNL     1       5.710   5.608  17.362  0.00  0.00    +0.000 N 
ATOM     17  C   UNL     1       6.033   6.779  16.734  0.00  0.00    +0.000 C 
ATOM     18  O   UNL     1       5.472   7.276  15.780  0.00  0.00    +0.000 OA
ATOM     19  C   UNL     1       7.252   7.365  17.383  0.00  0.00    +0.000 C 
ATOM     20  C   UNL     1       7.610   6.387  18.477  0.00  0.00    +0.000 C 
ATOM     21  C   UNL     1       6.614   5.289  18.335  0.00  0.00    +0.000 C 
ATOM     22  O   UNL     1       6.676   4.278  19.019  0.00  0.00    +0.000 OA
ENDBRANCH  15  16
BRANCH  15  24
ATOM     23  C   UNL     1       6.025   3.766  14.967  0.00  0.00    +0.000 C 
ATOM     24  C   UNL     1       5.087   3.521  16.130  0.00  0.00    +0.000 C 
ENDBRANCH  15  24
ENDBRANCH   1  15
TORSDOF 4
ENDMDL
MODEL 3
REMARK VINA RESULT:      -7.2      0.548      1.196
REMARK  Name = 
REMARK  5 active torsions:
REMARK  status: ('A' for Active; 'I' for Inactive)
REMARK    1  A    between atoms: C_1  and  C_2
REMARK    2  A    between atoms: C_2  and  C_3
REMARK    3  A    between atoms: C_3  and  C_4
REMARK    4  A    between atoms: C_3  and  N_18
REMARK    5  A    between atoms: N_9  and  C_10
REMARK                            x       y       z     vdW  Elec       q    Type
REMARK                         _______ _______ _______ _____ _____    ______ ____
ROOT
ATOM      1  C   UNL     1       3.515   5.363  19.117  0.00  0.00    +0.000 C 
ATOM      2  O   UNL     1       3.732   4.758  20.177  0.00  0.00    +0.000 OA
ATOM      3  N   UNL     1       2.469   6.262  19.054  0.00  0.00    +0.000 N 
ATOM      4  C   UNL     1       1.748   6.636  20.286  0.00  0.00    +0.000 C 
ATOM      5  C   UNL     1       1.839   8.157  20.549  0.00  0.00    +0.000 C 
ATOM      6  N   UNL     1       1.487   8.932  19.341  0.00  0.00    +0.000 N 
ATOM      7  C   UNL     1       2.174   8.529  18.104  0.00  0.00    +0.000 C 
ATOM      8  C   UNL     1       1.996   7.015  17.897  0.00  0.00    +0.000 C 
ENDROOT
BRANCH   6   9
ATOM      9  C   UNL     1       0.490   9.887  19.319  0.00  0.00    +0.000 A 
ATOM     10  C   UNL     1       0.240  10.709  20.431  0.00  0.00    +0.000 A 
ATOM     11  C   UNL     1      -0.767  11.679  20.424  0.00  0.00    +0.000 A 
ATOM     12  C   UNL     1      -1.555  11.852  19.293  0.00  0.00    +0.000 A 
ATOM     13  C   UNL     1      -1.329  11.057  18.173  0.00  0.00    +0.000 A 
ATOM     14  C   UNL     1      -0.319  10.089  18.194  0.00  0.00    +0.000 A 
ENDBRANCH   6   9
BRANCH   1  15
ATOM     15  C   UNL     1       4.477   5.090  17.914  0.00  0.00    +0.000 C 
BRANCH  15  16
ATOM     16  N   UNL     1       5.731   5.859  18.005  0.00  0.00    +0.000 N 
ATOM     17  C   UNL     1       6.086   6.768  17.048  0.00  0.00    +0.000 C 
ATOM     18  O   UNL     1       5.452   7.075  16.061  0.00  0.00    +0.000 OA
ATOM     19  C   UNL     1       7.442   7.322  17.375  0.00  0.00    +0.000 C 
ATOM     20  C   UNL     1       7.844   6.621  18.650  0.00  0.00    +0.000 C 
ATOM     21  C   UNL     1       6.725   5.678  18.925  0.00  0.00    +0.000 C 
ATOM     22  O   UNL     1       6.774   4.881  19.851  0.00  0.00    +0.000 OA
ENDBRANCH  15  16
BRANCH  15  24
ATOM     23  C   UNL     1       3.509   2.706  17.542  0.00  0.00    +0.000 C 
ATOM     24  C   UNL     1       4.725   3.607  17.582  0.00  0.00    +0.000 C 
ENDBRANCH  15  24
ENDBRANCH   1  15
TORSDOF 4
ENDMDL
MODEL 4
REMARK VINA RESULT:      -6.9      1.330      2.418
REMARK  Name = 
REMARK  5 active torsions:
REMARK  status: ('A' for Active; 'I' for Inactive)
REMARK    1  A    between atoms: C_1  and  C_2
REMARK    2  A    between atoms: C_2  and  C_3
REMARK    3  A    between atoms: C_3  and  C_4
REMARK    4  A    between atoms: C_3  and  N_18
REMARK    5  A    between atoms: N_9  and  C_10
REMARK                            x       y       z     vdW  Elec       q    Type
REMARK                         _______ _______ _______ _____ _____    ______ ____
ROOT
ATOM      1  C   UNL     1       3.986   4.441  17.252  0.00  0.00    +0.000 C 
ATOM      2  O   UNL     1       3.687   3.250  17.419  0.00  0.00    +0.000 OA
ATOM      3  N   UNL     1       3.118   5.422  17.688  0.00  0.00    +0.000 N 
ATOM      4  C   UNL     1       1.948   5.056  18.509  0.00  0.00    +0.000 C 
ATOM      5  C   UNL     1       1.987   5.759  19.886  0.00  0.00    +0.000 C 
ATOM      6  N   UNL     1       2.238   7.208  19.741  0.00  0.00    +0.000 N 
ATOM      7  C   UNL     1       3.378   7.574  18.885  0.00  0.00    +0.000 C 
ATOM      8  C   UNL     1       3.237   6.868  17.526  0.00  0.00    +0.000 C 
ENDROOT
BRANCH   6   9
ATOM      9  C   UNL     1       1.399   8.176  20.255  0.00  0.00    +0.000 A 
ATOM     10  C   UNL     1       0.831   8.048  21.534  0.00  0.00    +0.000 A 
ATOM     11  C   UNL     1      -0.022   9.019  22.067  0.00  0.00    +0.000 A 
ATOM     12  C   UNL     1      -0.329  10.153  21.327  0.00  0.00    +0.000 A 
ATOM     13  C   UNL     1       0.223  10.314  20.059  0.00  0.00    +0.000 A 
ATOM     14  C   UNL     1       1.074   9.334  19.537  0.00  0.00    +0.000 A 
ENDBRANCH   6   9
BRANCH   1  15
ATOM     15  C   UNL     1       5.363   4.758  16.583  0.00  0.00    +0.000 C 
BRANCH  15  16
ATOM     16  N   UNL     1       6.338   5.324  17.533  0.00  0.00    +0.000 N 
ATOM     17  C   UNL     1       6.473   4.831  18.801  0.00  0.00    +0.000 C 
ATOM     18  O   UNL     1       5.869   3.901  19.293  0.00  0.00    +0.000 OA
ATOM     19  C   UNL     1       7.477   5.660  19.547  0.00  0.00    +0.000 C 
ATOM     20  C   UNL     1       7.918   6.710  18.554  0.00  0.00    +0.000 C 
ATOM     21  C   UNL     1       7.095   6.445  17.343  0.00  0.00    +0.000 C 
ATOM     22  O   UNL     1       7.140   7.180  16.367  0.00  0.00    +0.000 OA
ENDBRANCH  15  16
BRANCH  15  24
ATOM     23  C   UNL     1       6.168   3.914  14.260  0.00  0.00    +0.000 C 
ATOM     24  C   UNL     1       5.968   3.626  15.733  0.00  0.00    +0.000 C 
ENDBRANCH  15  24
ENDBRANCH   1  15
TORSDOF 4
ENDMDL
MODEL 5
REMARK VINA RESULT:      -6.9      1.141      2.093
REMARK  Name = 
REMARK  5 active torsions:
REMARK  status: ('A' for Active; 'I' for Inactive)
REMARK    1  A    between atoms: C_1  and  C_2
REMARK    2  A    between atoms: C_2  and  C_3
REMARK    3  A    between atoms: C_3  and  C_4
REMARK    4  A    between atoms: C_3  and  N_18
REMARK    5  A    between atoms: N_9  and  C_10
REMARK                            x       y       z     vdW  Elec       q    Type
REMARK                         _______ _______ _______ _____ _____    ______ ____
ROOT
ATOM      1  C   UNL     1       3.526   4.467  17.734  0.00  0.00    +0.000 C 
ATOM      2  O   UNL     1       3.372   3.300  18.124  0.00  0.00    +0.000 OA
ATOM      3  N   UNL     1       2.665   5.449  18.185  0.00  0.00    +0.000 N 
ATOM      4  C   UNL     1       1.703   5.144  19.261  0.00  0.00    +0.000 C 
ATOM      5  C   UNL     1       1.928   6.057  20.489  0.00  0.00    +0.000 C 
ATOM      6  N   UNL     1       2.015   7.478  20.091  0.00  0.00    +0.000 N 
ATOM      7  C   UNL     1       2.942   7.774  18.988  0.00  0.00    +0.000 C 
ATOM      8  C   UNL     1       2.620   6.855  17.797  0.00  0.00    +0.000 C 
ENDROOT
BRANCH   6   9
ATOM      9  C   UNL     1       1.198   8.460  20.614  0.00  0.00    +0.000 A 
ATOM     10  C   UNL     1       0.674   9.483  19.806  0.00  0.00    +0.000 A 
ATOM     11  C   UNL     1      -0.152  10.487  20.322  0.00  0.00    +0.000 A 
ATOM     12  C   UNL     1      -0.478  10.489  21.672  0.00  0.00    +0.000 A 
ATOM     13  C   UNL     1       0.020   9.486  22.499  0.00  0.00    +0.000 A 
ATOM     14  C   UNL     1       0.847   8.489  21.970  0.00  0.00    +0.000 A 
ENDBRANCH   6   9
BRANCH   1  15
ATOM     15  C   UNL     1       4.724   4.760  16.773  0.00  0.00    +0.000 C 
BRANCH  15  16
ATOM     16  N   UNL     1       5.857   5.406  17.459  0.00  0.00    +0.000 N 
ATOM     17  C   UNL     1       6.358   4.917  18.633  0.00  0.00    +0.000 C 
ATOM     18  O   UNL     1       5.986   3.929  19.232  0.00  0.00    +0.000 OA
ATOM     19  C   UNL     1       7.443   5.830  19.123  0.00  0.00    +0.000 C 
ATOM     20  C   UNL     1       7.518   6.925  18.086  0.00  0.00    +0.000 C 
ATOM     21  C   UNL     1       6.437   6.595  17.118  0.00  0.00    +0.000 C 
ATOM     22  O   UNL     1       6.162   7.340  16.189  0.00  0.00    +0.000 OA
ENDBRANCH  15  16
BRANCH  15  24
ATOM     23  C   UNL     1       5.965   3.928  14.647  0.00  0.00    +0.000 C 
ATOM     24  C   UNL     1       5.173   3.582  15.889  0.00  0.00    +0.000 C 
ENDBRANCH  15  24
ENDBRANCH   1  15
TORSDOF 4
ENDMDL
MODEL 6
REMARK VINA RESULT:      -6.8      2.713      7.615
REMARK  Name = 
REMARK  5 active torsions:
REMARK  status: ('A' for Active; 'I' for Inactive)
REMARK    1  A    between atoms: C_1  and  C_2
REMARK    2  A    between atoms: C_2  and  C_3
REMARK    3  A    between atoms: C_3  and  C_4
REMARK    4  A    between atoms: C_3  and  N_18
REMARK    5  A    between atoms: N_9  and  C_10
REMARK                            x       y       z     vdW  Elec       q    Type
REMARK                         _______ _______ _______ _____ _____    ______ ____
ROOT
ATOM      1  C   UNL     1       4.260   5.498  19.184  0.00  0.00    +0.000 C 
ATOM      2  O   UNL     1       4.967   5.307  20.184  0.00  0.00    +0.000 OA
ATOM      3  N   UNL     1       4.858   5.607  17.944  0.00  0.00    +0.000 N 
ATOM      4  C   UNL     1       6.295   5.307  17.793  0.00  0.00    +0.000 C 
ATOM      5  C   UNL     1       6.524   4.154  16.789  0.00  0.00    +0.000 C 
ATOM      6  N   UNL     1       5.783   4.383  15.531  0.00  0.00    +0.000 N 
ATOM      7  C   UNL     1       4.360   4.726  15.685  0.00  0.00    +0.000 C 
ATOM      8  C   UNL     1       4.227   5.906  16.662  0.00  0.00    +0.000 C 
ENDROOT
BRANCH   6   9
ATOM      9  C   UNL     1       6.388   4.408  14.291  0.00  0.00    +0.000 A 
ATOM     10  C   UNL     1       5.990   3.533  13.265  0.00  0.00    +0.000 A 
ATOM     11  C   UNL     1       6.596   3.545  12.005  0.00  0.00    +0.000 A 
ATOM     12  C   UNL     1       7.622   4.442  11.737  0.00  0.00    +0.000 A 
ATOM     13  C   UNL     1       8.035   5.327  12.730  0.00  0.00    +0.000 A 
ATOM     14  C   UNL     1       7.422   5.302  13.988  0.00  0.00    +0.000 A 
ENDBRANCH   6   9
BRANCH   1  15
ATOM     15  C   UNL     1       2.711   5.567  19.392  0.00  0.00    +0.000 C 
BRANCH  15  16
ATOM     16  N   UNL     1       2.091   4.233  19.485  0.00  0.00    +0.000 N 
ATOM     17  C   UNL     1       1.398   3.690  18.439  0.00  0.00    +0.000 C 
ATOM     18  O   UNL     1       1.224   4.181  17.343  0.00  0.00    +0.000 OA
ATOM     19  C   UNL     1       0.821   2.372  18.863  0.00  0.00    +0.000 C 
ATOM     20  C   UNL     1       1.261   2.206  20.298  0.00  0.00    +0.000 C 
ATOM     21  C   UNL     1       2.000   3.460  20.608  0.00  0.00    +0.000 C 
ATOM     22  O   UNL     1       2.420   3.694  21.732  0.00  0.00    +0.000 OA
ENDBRANCH  15  16
BRANCH  15  24
ATOM     23  C   UNL     1       1.827   7.910  20.088  0.00  0.00    +0.000 C 
ATOM     24  C   UNL     1       2.230   6.512  20.507  0.00  0.00    +0.000 C 
ENDBRANCH  15  24
ENDBRANCH   1  15
TORSDOF 4
ENDMDL
MODEL 7
REMARK VINA RESULT:      -6.7      1.063      1.924
REMARK  Name = 
REMARK  5 active torsions:
REMARK  status: ('A' for Active; 'I' for Inactive)
REMARK    1  A    between atoms: C_1  and  C_2
REMARK    2  A    between atoms: C_2  and  C_3
REMARK    3  A    between atoms: C_3  and  C_4
REMARK    4  A    between atoms: C_3  and  N_18
REMARK    5  A    between atoms: N_9  and  C_10
REMARK                            x       y       z     vdW  Elec       q    Type
REMARK                         _______ _______ _______ _____ _____    ______ ____
ROOT
ATOM      1  C   UNL     1       3.375   5.353  19.160  0.00  0.00    +0.000 C 
ATOM      2  O   UNL     1       3.512   4.863  20.290  0.00  0.00    +0.000 OA
ATOM      3  N   UNL     1       2.432   6.343  18.963  0.00  0.00    +0.000 N 
ATOM      4  C   UNL     1       1.739   6.938  20.121  0.00  0.00    +0.000 C 
ATOM      5  C   UNL     1       1.990   8.462  20.202  0.00  0.00    +0.000 C 
ATOM      6  N   UNL     1       1.738   9.116  18.901  0.00  0.00    +0.000 N 
ATOM      7  C   UNL     1       2.394   8.495  17.739  0.00  0.00    +0.000 C 
ATOM      8  C   UNL     1       2.057   6.995  17.711  0.00  0.00    +0.000 C 
ENDROOT
BRANCH   6   9
ATOM      9  C   UNL     1       0.850  10.161  18.739  0.00  0.00    +0.000 A 
ATOM     10  C   UNL     1      -0.452   9.945  18.256  0.00  0.00    +0.000 A 
ATOM     11  C   UNL     1      -1.362  10.994  18.085  0.00  0.00    +0.000 A 
ATOM     12  C   UNL     1      -0.987  12.294  18.396  0.00  0.00    +0.000 A 
ATOM     13  C   UNL     1       0.294  12.541  18.883  0.00  0.00    +0.000 A 
ATOM     14  C   UNL     1       1.195  11.483  19.048  0.00  0.00    +0.000 A 
ENDBRANCH   6   9
BRANCH   1  15
ATOM     15  C   UNL     1       4.317   4.836  18.024  0.00  0.00    +0.000 C 
BRANCH  15  16
ATOM     16  N   UNL     1       5.578   5.596  17.943  0.00  0.00    +0.000 N 
ATOM     17  C   UNL     1       6.537   5.497  18.912  0.00  0.00    +0.000 C 
ATOM     18  O   UNL     1       6.507   4.798  19.903  0.00  0.00    +0.000 OA
ATOM     19  C   UNL     1       7.657   6.444  18.593  0.00  0.00    +0.000 C 
ATOM     20  C   UNL     1       7.234   7.117  17.309  0.00  0.00    +0.000 C 
ATOM     21  C   UNL     1       5.885   6.556  17.022  0.00  0.00    +0.000 C 
ATOM     22  O   UNL     1       5.211   6.961  16.086  0.00  0.00    +0.000 OA
ENDBRANCH  15  16
BRANCH  15  24
ATOM     23  C   UNL     1       3.342   2.448  17.706  0.00  0.00    +0.000 C 
ATOM     24  C   UNL     1       4.550   3.315  17.992  0.00  0.00    +0.000 C 
ENDBRANCH  15  24
ENDBRANCH   1  15
TORSDOF 4
ENDMDL
MODEL 8
REMARK VINA RESULT:      -6.6      0.135      1.536
REMARK  Name = 
REMARK  5 active torsions:
REMARK  status: ('A' for Active; 'I' for Inactive)
REMARK    1  A    between atoms: C_1  and  C_2
REMARK    2  A    between atoms: C_2  and  C_3
REMARK    3  A    between atoms: C_3  and  C_4
REMARK    4  A    between atoms: C_3  and  N_18
REMARK    5  A    between atoms: N_9  and  C_10
REMARK                            x       y       z     vdW  Elec       q    Type
REMARK                         _______ _______ _______ _____ _____    ______ ____
ROOT
ATOM      1  C   UNL     1       3.654   5.208  18.727  0.00  0.00    +0.000 C 
ATOM      2  O   UNL     1       3.862   4.462  19.695  0.00  0.00    +0.000 OA
ATOM      3  N   UNL     1       2.610   6.111  18.782  0.00  0.00    +0.000 N 
ATOM      4  C   UNL     1       1.881   6.313  20.048  0.00  0.00    +0.000 C 
ATOM      5  C   UNL     1       1.973   7.783  20.520  0.00  0.00    +0.000 C 
ATOM      6  N   UNL     1       1.631   8.719  19.428  0.00  0.00    +0.000 N 
ATOM      7  C   UNL     1       2.327   8.488  18.152  0.00  0.00    +0.000 C 
ATOM      8  C   UNL     1       2.147   7.018  17.736  0.00  0.00    +0.000 C 
ENDROOT
BRANCH   6   9
ATOM      9  C   UNL     1       0.637   9.670  19.531  0.00  0.00    +0.000 A 
ATOM     10  C   UNL     1      -0.071  10.115  18.401  0.00  0.00    +0.000 A 
ATOM     11  C   UNL     1      -1.079  11.080  18.490  0.00  0.00    +0.000 A 
ATOM     12  C   UNL     1      -1.407  11.627  19.724  0.00  0.00    +0.000 A 
ATOM     13  C   UNL     1      -0.730  11.204  20.864  0.00  0.00    +0.000 A 
ATOM     14  C   UNL     1       0.279  10.239  20.760  0.00  0.00    +0.000 A 
ENDBRANCH   6   9
BRANCH   1  15
ATOM     15  C   UNL     1       4.624   5.101  17.505  0.00  0.00    +0.000 C 
BRANCH  15  16
ATOM     16  N   UNL     1       5.867   5.869  17.699  0.00  0.00    +0.000 N 
ATOM     17  C   UNL     1       6.740   5.579  18.710  0.00  0.00    +0.000 C 
ATOM     18  O   UNL     1       6.641   4.689  19.529  0.00  0.00    +0.000 OA
ATOM     19  C   UNL     1       7.858   6.579  18.697  0.00  0.00    +0.000 C 
ATOM     20  C   UNL     1       7.533   7.501  17.546  0.00  0.00    +0.000 C 
ATOM     21  C   UNL     1       6.230   7.003  17.027  0.00  0.00    +0.000 C 
ATOM     22  O   UNL     1       5.630   7.588  16.137  0.00  0.00    +0.000 OA
ENDBRANCH  15  16
BRANCH  15  24
ATOM     23  C   UNL     1       5.779   3.549  15.769  0.00  0.00    +0.000 C 
ATOM     24  C   UNL     1       4.894   3.675  16.992  0.00  0.00    +0.000 C 
ENDBRANCH  15  24
ENDBRANCH   1  15
TORSDOF 4
ENDMDL
MODEL 9
REMARK VINA RESULT:      -6.5      1.831      3.694
REMARK  Name = 
REMARK  5 active torsions:
REMARK  status: ('A' for Active; 'I' for Inactive)
REMARK    1  A    between atoms: C_1  and  C_2
REMARK    2  A    between atoms: C_2  and  C_3
REMARK    3  A    between atoms: C_3  and  C_4
REMARK    4  A    between atoms: C_3  and  N_18
REMARK    5  A    between atoms: N_9  and  C_10
REMARK                            x       y       z     vdW  Elec       q    Type
REMARK                         _______ _______ _______ _____ _____    ______ ____
ROOT
ATOM      1  C   UNL     1       4.591   5.871  16.949  0.00  0.00    +0.000 C 
ATOM      2  O   UNL     1       4.750   6.285  15.792  0.00  0.00    +0.000 OA
ATOM      3  N   UNL     1       4.072   6.721  17.906  0.00  0.00    +0.000 N 
ATOM      4  C   UNL     1       3.536   8.036  17.506  0.00  0.00    +0.000 C 
ATOM      5  C   UNL     1       2.044   8.173  17.887  0.00  0.00    +0.000 C 
ATOM      6  N   UNL     1       1.813   7.789  19.295  0.00  0.00    +0.000 N 
ATOM      7  C   UNL     1       2.386   6.497  19.705  0.00  0.00    +0.000 C 
ATOM      8  C   UNL     1       3.877   6.464  19.330  0.00  0.00    +0.000 C 
ENDROOT
BRANCH   6   9
ATOM      9  C   UNL     1       1.216   8.624  20.218  0.00  0.00    +0.000 A 
ATOM     10  C   UNL     1       0.505   9.768  19.818  0.00  0.00    +0.000 A 
ATOM     11  C   UNL     1      -0.102  10.625  20.742  0.00  0.00    +0.000 A 
ATOM     12  C   UNL     1      -0.012  10.354  22.101  0.00  0.00    +0.000 A 
ATOM     13  C   UNL     1       0.680   9.225  22.531  0.00  0.00    +0.000 A 
ATOM     14  C   UNL     1       1.285   8.377  21.596  0.00  0.00    +0.000 A 
ENDBRANCH   6   9
BRANCH   1  15
ATOM     15  C   UNL     1       4.962   4.380  17.245  0.00  0.00    +0.000 C 
BRANCH  15  16
ATOM     16  N   UNL     1       3.900   3.667  17.978  0.00  0.00    +0.000 N 
ATOM     17  C   UNL     1       4.139   3.069  19.185  0.00  0.00    +0.000 C 
ATOM     18  O   UNL     1       5.183   3.060  19.802  0.00  0.00    +0.000 OA
ATOM     19  C   UNL     1       2.897   2.360  19.636  0.00  0.00    +0.000 C 
ATOM     20  C   UNL     1       1.891   2.614  18.539  0.00  0.00    +0.000 C 
ATOM     21  C   UNL     1       2.644   3.392  17.518  0.00  0.00    +0.000 C 
ATOM     22  O   UNL     1       2.142   3.690  16.443  0.00  0.00    +0.000 OA
ENDBRANCH  15  16
BRANCH  15  24
ATOM     23  C   UNL     1       6.802   4.017  15.446  0.00  0.00    +0.000 C 
ATOM     24  C   UNL     1       5.484   3.572  16.044  0.00  0.00    +0.000 C 
ENDBRANCH  15  24
ENDBRANCH   1  15
TORSDOF 4
ENDMDL
