MODEL 1
REMARK VINA RESULT:      -8.7      0.000      0.000
REMARK  Name = 
REMARK  4 active torsions:
REMARK  status: ('A' for Active; 'I' for Inactive)
REMARK    1  A    between atoms: C_1  and  O_2
REMARK    2  A    between atoms: O_2  and  C_3
REMARK    3  A    between atoms: C_25  and  C_26
REMARK    4  A    between atoms: C_28  and  C_29
REMARK                            x       y       z     vdW  Elec       q    Type
REMARK                         _______ _______ _______ _____ _____    ______ ____
ROOT
ATOM      1  C   UNL     1       5.607   4.462  15.297  0.00  0.00    +0.000 A 
ATOM      2  C   UNL     1       5.746   5.775  14.856  0.00  0.00    +0.000 A 
ATOM      3  C   UNL     1       5.186   6.841  15.575  0.00  0.00    +0.000 A 
ATOM      4  C   UNL     1       4.500   6.545  16.761  0.00  0.00    +0.000 A 
ATOM      5  N   UNL     1       3.806   7.374  17.618  0.00  0.00    +0.000 N 
ATOM      6  C   UNL     1       3.225   6.637  18.619  0.00  0.00    +0.000 A 
ATOM      7  C   UNL     1       3.667   5.338  18.491  0.00  0.00    +0.000 A 
ATOM      8  C   UNL     1       4.380   5.244  17.257  0.00  0.00    +0.000 A 
ATOM      9  C   UNL     1       4.918   4.191  16.485  0.00  0.00    +0.000 A 
ATOM     10  C   UNL     1       3.258   4.385  19.496  0.00  0.00    +0.000 A 
ATOM     11  C   UNL     1       3.844   3.122  19.624  0.00  0.00    +0.000 A 
ATOM     12  C   UNL     1       3.407   2.241  20.615  0.00  0.00    +0.000 A 
ATOM     13  C   UNL     1       2.389   2.615  21.491  0.00  0.00    +0.000 A 
ATOM     14  C   UNL     1       1.815   3.880  21.386  0.00  0.00    +0.000 A 
ATOM     15  C   UNL     1       2.255   4.772  20.399  0.00  0.00    +0.000 A 
ATOM     16  C   UNL     1       1.635   6.129  20.312  0.00  0.00    +0.000 A 
ATOM     17  O   UNL     1       0.538   6.279  20.848  0.00  0.00    +0.000 OA
ATOM     18  N   UNL     1       2.305   7.125  19.565  0.00  0.00    +0.000 N 
ATOM     19  C   UNL     1       1.840   8.437  19.395  0.00  0.00    +0.000 C 
ATOM     20  O   UNL     1       1.982   9.151  18.400  0.00  0.00    +0.000 OA
ATOM     21  N   UNL     1       1.019   8.901  20.450  0.00  0.00    +0.000 N 
ATOM     22  N   UNL     1       1.449   8.861  21.751  0.00  0.00    +0.000 NA
ATOM     23  C   UNL     1       0.451   9.420  22.447  0.00  0.00    +0.000 A 
ATOM     24  C   UNL     1       0.498   9.514  23.928  0.00  0.00    +0.000 C 
ATOM     25  C   UNL     1      -0.589   9.878  21.611  0.00  0.00    +0.000 A 
ATOM     26  C   UNL     1      -0.191   9.569  20.332  0.00  0.00    +0.000 A 
ATOM     27  C   UNL     1      -0.888   9.735  19.034  0.00  0.00    +0.000 C 
ATOM     28  H   UNL     1       3.639   8.361  17.462  0.00  0.00    +0.000 HD
ENDROOT
BRANCH   1  30
ATOM     29  C   UNL     1       6.274   3.501  13.236  0.00  0.00    +0.000 C 
ATOM     30  O   UNL     1       6.056   3.350  14.634  0.00  0.00    +0.000 OA
ENDBRANCH   1  30
TORSDOF 1
ENDMDL
MODEL 2
REMARK VINA RESULT:      -8.7      1.849      7.078
REMARK  Name = 
REMARK  4 active torsions:
REMARK  status: ('A' for Active; 'I' for Inactive)
REMARK    1  A    between atoms: C_1  and  O_2
REMARK    2  A    between atoms: O_2  and  C_3
REMARK    3  A    between atoms: C_25  and  C_26
REMARK    4  A    between atoms: C_28  and  C_29
REMARK                            x       y       z     vdW  Elec       q    Type
REMARK                         _______ _______ _______ _____ _____    ______ ____
ROOT
ATOM      1  C   UNL     1       0.020   9.054  21.639  0.00  0.00    +0.000 A 
ATOM      2  C   UNL     1       0.365  10.124  20.818  0.00  0.00    +0.000 A 
ATOM      3  C   UNL     1       1.217   9.944  19.719  0.00  0.00    +0.000 A 
ATOM      4  C   UNL     1       1.695   8.652  19.461  0.00  0.00    +0.000 A 
ATOM      5  N   UNL     1       2.584   8.207  18.505  0.00  0.00    +0.000 N 
ATOM      6  C   UNL     1       2.821   6.866  18.671  0.00  0.00    +0.000 A 
ATOM      7  C   UNL     1       1.968   6.410  19.652  0.00  0.00    +0.000 A 
ATOM      8  C   UNL     1       1.334   7.548  20.236  0.00  0.00    +0.000 A 
ATOM      9  C   UNL     1       0.510   7.771  21.361  0.00  0.00    +0.000 A 
ATOM     10  C   UNL     1       1.970   4.994  19.942  0.00  0.00    +0.000 A 
ATOM     11  C   UNL     1       0.979   4.379  20.714  0.00  0.00    +0.000 A 
ATOM     12  C   UNL     1       1.034   3.006  20.962  0.00  0.00    +0.000 A 
ATOM     13  C   UNL     1       2.069   2.235  20.436  0.00  0.00    +0.000 A 
ATOM     14  C   UNL     1       3.048   2.835  19.647  0.00  0.00    +0.000 A 
ATOM     15  C   UNL     1       2.994   4.211  19.387  0.00  0.00    +0.000 A 
ATOM     16  C   UNL     1       4.047   4.833  18.527  0.00  0.00    +0.000 A 
ATOM     17  O   UNL     1       5.098   4.209  18.388  0.00  0.00    +0.000 OA
ATOM     18  N   UNL     1       3.800   6.119  17.991  0.00  0.00    +0.000 N 
ATOM     19  C   UNL     1       4.697   6.822  17.173  0.00  0.00    +0.000 C 
ATOM     20  O   UNL     1       4.862   8.043  17.134  0.00  0.00    +0.000 OA
ATOM     21  N   UNL     1       5.569   5.996  16.426  0.00  0.00    +0.000 N 
ATOM     22  N   UNL     1       5.082   5.003  15.617  0.00  0.00    +0.000 NA
ATOM     23  C   UNL     1       6.172   4.479  15.041  0.00  0.00    +0.000 A 
ATOM     24  C   UNL     1       6.080   3.316  14.123  0.00  0.00    +0.000 C 
ATOM     25  C   UNL     1       7.350   5.160  15.416  0.00  0.00    +0.000 A 
ATOM     26  C   UNL     1       6.939   6.152  16.276  0.00  0.00    +0.000 A 
ATOM     27  C   UNL     1       7.719   7.144  17.052  0.00  0.00    +0.000 C 
ATOM     28  H   UNL     1       3.088   8.802  17.858  0.00  0.00    +0.000 HD
ENDROOT
BRANCH   1  30
ATOM     29  C   UNL     1      -1.050  10.450  23.227  0.00  0.00    +0.000 C 
ATOM     30  O   UNL     1      -0.747   9.136  22.771  0.00  0.00    +0.000 OA
ENDBRANCH   1  30
TORSDOF 1
ENDMDL
MODEL 3
REMARK VINA RESULT:      -7.2      8.036      9.569
REMARK  Name = 
REMARK  4 active torsions:
REMARK  status: ('A' for Active; 'I' for Inactive)
REMARK    1  A    between atoms: C_1  and  O_2
REMARK    2  A    between atoms: O_2  and  C_3
REMARK    3  A    between atoms: C_25  and  C_26
REMARK    4  A    between atoms: C_28  and  C_29
REMARK                            x       y       z     vdW  Elec       q    Type
REMARK                         _______ _______ _______ _____ _____    ______ ____
ROOT
ATOM      1  C   UNL     1      -4.733  11.250  17.729  0.00  0.00    +0.000 A 
ATOM      2  C   UNL     1      -3.881  10.896  16.686  0.00  0.00    +0.000 A 
ATOM      3  C   UNL     1      -2.500  11.123  16.774  0.00  0.00    +0.000 A 
ATOM      4  C   UNL     1      -2.002  11.699  17.951  0.00  0.00    +0.000 A 
ATOM      5  N   UNL     1      -0.720  12.087  18.278  0.00  0.00    +0.000 N 
ATOM      6  C   UNL     1      -0.707  12.677  19.517  0.00  0.00    +0.000 A 
ATOM      7  C   UNL     1      -1.967  12.537  20.058  0.00  0.00    +0.000 A 
ATOM      8  C   UNL     1      -2.821  12.023  19.036  0.00  0.00    +0.000 A 
ATOM      9  C   UNL     1      -4.212  11.822  18.896  0.00  0.00    +0.000 A 
ATOM     10  C   UNL     1      -2.176  13.005  21.409  0.00  0.00    +0.000 A 
ATOM     11  C   UNL     1      -3.316  12.684  22.152  0.00  0.00    +0.000 A 
ATOM     12  C   UNL     1      -3.464  13.166  23.454  0.00  0.00    +0.000 A 
ATOM     13  C   UNL     1      -2.474  13.962  24.028  0.00  0.00    +0.000 A 
ATOM     14  C   UNL     1      -1.324  14.267  23.304  0.00  0.00    +0.000 A 
ATOM     15  C   UNL     1      -1.166  13.780  21.999  0.00  0.00    +0.000 A 
ATOM     16  C   UNL     1       0.082  14.108  21.245  0.00  0.00    +0.000 A 
ATOM     17  O   UNL     1       0.739  15.071  21.638  0.00  0.00    +0.000 OA
ATOM     18  N   UNL     1       0.388  13.345  20.094  0.00  0.00    +0.000 N 
ATOM     19  C   UNL     1       1.520  13.543  19.289  0.00  0.00    +0.000 C 
ATOM     20  O   UNL     1       1.599  13.382  18.069  0.00  0.00    +0.000 OA
ATOM     21  N   UNL     1       2.624  14.106  19.971  0.00  0.00    +0.000 N 
ATOM     22  N   UNL     1       3.118  13.531  21.113  0.00  0.00    +0.000 NA
ATOM     23  C   UNL     1       4.171  14.292  21.439  0.00  0.00    +0.000 A 
ATOM     24  C   UNL     1       4.959  14.036  22.670  0.00  0.00    +0.000 C 
ATOM     25  C   UNL     1       4.404  15.311  20.491  0.00  0.00    +0.000 A 
ATOM     26  C   UNL     1       3.424  15.153  19.539  0.00  0.00    +0.000 A 
ATOM     27  C   UNL     1       3.103  15.960  18.338  0.00  0.00    +0.000 C 
ATOM     28  H   UNL     1       0.073  12.062  17.648  0.00  0.00    +0.000 HD
ENDROOT
BRANCH   1  30
ATOM     29  C   UNL     1      -6.679  10.444  18.815  0.00  0.00    +0.000 C 
ATOM     30  O   UNL     1      -6.098  11.132  17.713  0.00  0.00    +0.000 OA
ENDBRANCH   1  30
TORSDOF 1
ENDMDL
MODEL 4
REMARK VINA RESULT:      -7.1      7.839      9.147
REMARK  Name = 
REMARK  4 active torsions:
REMARK  status: ('A' for Active; 'I' for Inactive)
REMARK    1  A    between atoms: C_1  and  O_2
REMARK    2  A    between atoms: O_2  and  C_3
REMARK    3  A    between atoms: C_25  and  C_26
REMARK    4  A    between atoms: C_28  and  C_29
REMARK                            x       y       z     vdW  Elec       q    Type
REMARK                         _______ _______ _______ _____ _____    ______ ____
ROOT
ATOM      1  C   UNL     1      -3.109  10.483  16.039  0.00  0.00    +0.000 A 
ATOM      2  C   UNL     1      -4.460  10.703  16.295  0.00  0.00    +0.000 A 
ATOM      3  C   UNL     1      -4.872  11.420  17.427  0.00  0.00    +0.000 A 
ATOM      4  C   UNL     1      -3.883  11.925  18.282  0.00  0.00    +0.000 A 
ATOM      5  N   UNL     1      -4.002  12.597  19.480  0.00  0.00    +0.000 N 
ATOM      6  C   UNL     1      -2.759  12.836  20.012  0.00  0.00    +0.000 A 
ATOM      7  C   UNL     1      -1.825  12.444  19.078  0.00  0.00    +0.000 A 
ATOM      8  C   UNL     1      -2.518  11.764  18.032  0.00  0.00    +0.000 A 
ATOM      9  C   UNL     1      -2.139  10.999  16.907  0.00  0.00    +0.000 A 
ATOM     10  C   UNL     1      -0.432  12.684  19.378  0.00  0.00    +0.000 A 
ATOM     11  C   UNL     1       0.578  12.577  18.417  0.00  0.00    +0.000 A 
ATOM     12  C   UNL     1       1.908  12.820  18.765  0.00  0.00    +0.000 A 
ATOM     13  C   UNL     1       2.241  13.180  20.070  0.00  0.00    +0.000 A 
ATOM     14  C   UNL     1       1.239  13.312  21.029  0.00  0.00    +0.000 A 
ATOM     15  C   UNL     1      -0.099  13.077  20.684  0.00  0.00    +0.000 A 
ATOM     16  C   UNL     1      -1.159  13.237  21.725  0.00  0.00    +0.000 A 
ATOM     17  O   UNL     1      -0.800  13.204  22.901  0.00  0.00    +0.000 OA
ATOM     18  N   UNL     1      -2.504  13.341  21.299  0.00  0.00    +0.000 N 
ATOM     19  C   UNL     1      -3.600  13.491  22.163  0.00  0.00    +0.000 C 
ATOM     20  O   UNL     1      -4.736  13.042  22.002  0.00  0.00    +0.000 OA
ATOM     21  N   UNL     1      -3.287  14.121  23.391  0.00  0.00    +0.000 N 
ATOM     22  N   UNL     1      -2.664  15.341  23.421  0.00  0.00    +0.000 NA
ATOM     23  C   UNL     1      -2.582  15.639  24.724  0.00  0.00    +0.000 A 
ATOM     24  C   UNL     1      -1.906  16.873  25.195  0.00  0.00    +0.000 C 
ATOM     25  C   UNL     1      -3.199  14.661  25.533  0.00  0.00    +0.000 A 
ATOM     26  C   UNL     1      -3.677  13.714  24.658  0.00  0.00    +0.000 A 
ATOM     27  C   UNL     1      -4.353  12.419  24.908  0.00  0.00    +0.000 C 
ATOM     28  H   UNL     1      -4.875  12.774  19.963  0.00  0.00    +0.000 HD
ENDROOT
BRANCH   1  30
ATOM     29  C   UNL     1      -3.232   9.931  13.738  0.00  0.00    +0.000 C 
ATOM     30  O   UNL     1      -2.608   9.742  15.002  0.00  0.00    +0.000 OA
ENDBRANCH   1  30
TORSDOF 1
ENDMDL
MODEL 5
REMARK VINA RESULT:      -7.0      7.761      9.350
REMARK  Name = 
REMARK  4 active torsions:
REMARK  status: ('A' for Active; 'I' for Inactive)
REMARK    1  A    between atoms: C_1  and  O_2
REMARK    2  A    between atoms: O_2  and  C_3
REMARK    3  A    between atoms: C_25  and  C_26
REMARK    4  A    between atoms: C_28  and  C_29
REMARK                            x       y       z     vdW  Elec       q    Type
REMARK                         _______ _______ _______ _____ _____    ______ ____
ROOT
ATOM      1  C   UNL     1       2.393  13.559  19.154  0.00  0.00    +0.000 A 
ATOM      2  C   UNL     1       2.552  14.180  20.390  0.00  0.00    +0.000 A 
ATOM      3  C   UNL     1       1.481  14.286  21.288  0.00  0.00    +0.000 A 
ATOM      4  C   UNL     1       0.251  13.729  20.913  0.00  0.00    +0.000 A 
ATOM      5  N   UNL     1      -0.966  13.743  21.561  0.00  0.00    +0.000 N 
ATOM      6  C   UNL     1      -1.920  13.134  20.785  0.00  0.00    +0.000 A 
ATOM      7  C   UNL     1      -1.283  12.591  19.691  0.00  0.00    +0.000 A 
ATOM      8  C   UNL     1       0.067  13.057  19.702  0.00  0.00    +0.000 A 
ATOM      9  C   UNL     1       1.154  13.008  18.803  0.00  0.00    +0.000 A 
ATOM     10  C   UNL     1      -2.076  11.814  18.767  0.00  0.00    +0.000 A 
ATOM     11  C   UNL     1      -1.507  11.003  17.779  0.00  0.00    +0.000 A 
ATOM     12  C   UNL     1      -2.324  10.274  16.912  0.00  0.00    +0.000 A 
ATOM     13  C   UNL     1      -3.712  10.339  17.030  0.00  0.00    +0.000 A 
ATOM     14  C   UNL     1      -4.286  11.125  18.026  0.00  0.00    +0.000 A 
ATOM     15  C   UNL     1      -3.472  11.853  18.904  0.00  0.00    +0.000 A 
ATOM     16  C   UNL     1      -4.109  12.680  19.974  0.00  0.00    +0.000 A 
ATOM     17  O   UNL     1      -5.292  12.982  19.820  0.00  0.00    +0.000 OA
ATOM     18  N   UNL     1      -3.302  13.121  21.048  0.00  0.00    +0.000 N 
ATOM     19  C   UNL     1      -3.763  13.903  22.117  0.00  0.00    +0.000 C 
ATOM     20  O   UNL     1      -3.130  14.765  22.731  0.00  0.00    +0.000 OA
ATOM     21  N   UNL     1      -5.140  13.742  22.400  0.00  0.00    +0.000 N 
ATOM     22  N   UNL     1      -5.673  12.502  22.636  0.00  0.00    +0.000 NA
ATOM     23  C   UNL     1      -6.961  12.742  22.915  0.00  0.00    +0.000 A 
ATOM     24  C   UNL     1      -7.917  11.636  23.173  0.00  0.00    +0.000 C 
ATOM     25  C   UNL     1      -7.254  14.122  22.927  0.00  0.00    +0.000 A 
ATOM     26  C   UNL     1      -6.066  14.749  22.630  0.00  0.00    +0.000 A 
ATOM     27  C   UNL     1      -5.753  16.184  22.428  0.00  0.00    +0.000 C 
ATOM     28  H   UNL     1      -1.161  14.243  22.420  0.00  0.00    +0.000 HD
ENDROOT
BRANCH   1  30
ATOM     29  C   UNL     1       4.364  14.465  18.203  0.00  0.00    +0.000 C 
ATOM     30  O   UNL     1       3.353  13.464  18.183  0.00  0.00    +0.000 OA
ENDBRANCH   1  30
TORSDOF 1
ENDMDL
MODEL 6
REMARK VINA RESULT:      -7.0      8.974     11.955
REMARK  Name = 
REMARK  4 active torsions:
REMARK  status: ('A' for Active; 'I' for Inactive)
REMARK    1  A    between atoms: C_1  and  O_2
REMARK    2  A    between atoms: O_2  and  C_3
REMARK    3  A    between atoms: C_25  and  C_26
REMARK    4  A    between atoms: C_28  and  C_29
REMARK                            x       y       z     vdW  Elec       q    Type
REMARK                         _______ _______ _______ _____ _____    ______ ____
ROOT
ATOM      1  C   UNL     1       5.841  12.548  25.716  0.00  0.00    +0.000 A 
ATOM      2  C   UNL     1       7.047  11.899  25.968  0.00  0.00    +0.000 A 
ATOM      3  C   UNL     1       8.110  11.975  25.057  0.00  0.00    +0.000 A 
ATOM      4  C   UNL     1       7.929  12.739  23.897  0.00  0.00    +0.000 A 
ATOM      5  N   UNL     1       8.768  12.931  22.818  0.00  0.00    +0.000 N 
ATOM      6  C   UNL     1       8.145  13.702  21.869  0.00  0.00    +0.000 A 
ATOM      7  C   UNL     1       6.949  14.133  22.401  0.00  0.00    +0.000 A 
ATOM      8  C   UNL     1       6.750  13.441  23.634  0.00  0.00    +0.000 A 
ATOM      9  C   UNL     1       5.684  13.307  24.550  0.00  0.00    +0.000 A 
ATOM     10  C   UNL     1       6.151  15.043  21.612  0.00  0.00    +0.000 A 
ATOM     11  C   UNL     1       5.065  15.749  22.141  0.00  0.00    +0.000 A 
ATOM     12  C   UNL     1       4.329  16.615  21.330  0.00  0.00    +0.000 A 
ATOM     13  C   UNL     1       4.673  16.790  19.991  0.00  0.00    +0.000 A 
ATOM     14  C   UNL     1       5.766  16.108  19.462  0.00  0.00    +0.000 A 
ATOM     15  C   UNL     1       6.515  15.245  20.272  0.00  0.00    +0.000 A 
ATOM     16  C   UNL     1       7.692  14.533  19.687  0.00  0.00    +0.000 A 
ATOM     17  O   UNL     1       7.740  14.442  18.462  0.00  0.00    +0.000 OA
ATOM     18  N   UNL     1       8.630  13.952  20.573  0.00  0.00    +0.000 N 
ATOM     19  C   UNL     1       9.777  13.254  20.166  0.00  0.00    +0.000 C 
ATOM     20  O   UNL     1      10.298  12.291  20.734  0.00  0.00    +0.000 OA
ATOM     21  N   UNL     1      10.278  13.649  18.903  0.00  0.00    +0.000 N 
ATOM     22  N   UNL     1      10.570  14.961  18.638  0.00  0.00    +0.000 NA
ATOM     23  C   UNL     1      11.061  14.946  17.392  0.00  0.00    +0.000 A 
ATOM     24  C   UNL     1      11.448  16.199  16.696  0.00  0.00    +0.000 C 
ATOM     25  C   UNL     1      11.151  13.637  16.872  0.00  0.00    +0.000 A 
ATOM     26  C   UNL     1      10.678  12.816  17.869  0.00  0.00    +0.000 A 
ATOM     27  C   UNL     1      10.459  11.350  17.893  0.00  0.00    +0.000 C 
ATOM     28  H   UNL     1       9.658  12.467  22.685  0.00  0.00    +0.000 HD
ENDROOT
BRANCH   1  30
ATOM     29  C   UNL     1       4.507  11.248  27.181  0.00  0.00    +0.000 C 
ATOM     30  O   UNL     1       4.723  12.481  26.505  0.00  0.00    +0.000 OA
ENDBRANCH   1  30
TORSDOF 1
ENDMDL
MODEL 7
REMARK VINA RESULT:      -6.9      8.690     10.609
REMARK  Name = 
REMARK  4 active torsions:
REMARK  status: ('A' for Active; 'I' for Inactive)
REMARK    1  A    between atoms: C_1  and  O_2
REMARK    2  A    between atoms: O_2  and  C_3
REMARK    3  A    between atoms: C_25  and  C_26
REMARK    4  A    between atoms: C_28  and  C_29
REMARK                            x       y       z     vdW  Elec       q    Type
REMARK                         _______ _______ _______ _____ _____    ______ ____
ROOT
ATOM      1  C   UNL     1       6.281  16.866  19.290  0.00  0.00    +0.000 A 
ATOM      2  C   UNL     1       6.602  15.706  19.990  0.00  0.00    +0.000 A 
ATOM      3  C   UNL     1       5.614  14.771  20.328  0.00  0.00    +0.000 A 
ATOM      4  C   UNL     1       4.298  15.030  19.923  0.00  0.00    +0.000 A 
ATOM      5  N   UNL     1       3.137  14.327  20.172  0.00  0.00    +0.000 N 
ATOM      6  C   UNL     1       2.061  14.994  19.640  0.00  0.00    +0.000 A 
ATOM      7  C   UNL     1       2.547  16.060  18.916  0.00  0.00    +0.000 A 
ATOM      8  C   UNL     1       3.946  16.160  19.181  0.00  0.00    +0.000 A 
ATOM      9  C   UNL     1       4.958  17.103  18.896  0.00  0.00    +0.000 A 
ATOM     10  C   UNL     1       1.597  16.865  18.183  0.00  0.00    +0.000 A 
ATOM     11  C   UNL     1       1.985  17.797  17.215  0.00  0.00    +0.000 A 
ATOM     12  C   UNL     1       1.022  18.548  16.537  0.00  0.00    +0.000 A 
ATOM     13  C   UNL     1      -0.333  18.370  16.812  0.00  0.00    +0.000 A 
ATOM     14  C   UNL     1      -0.729  17.427  17.759  0.00  0.00    +0.000 A 
ATOM     15  C   UNL     1       0.232  16.664  18.436  0.00  0.00    +0.000 A 
ATOM     16  C   UNL     1      -0.216  15.649  19.437  0.00  0.00    +0.000 A 
ATOM     17  O   UNL     1      -1.352  15.774  19.893  0.00  0.00    +0.000 OA
ATOM     18  N   UNL     1       0.710  14.663  19.850  0.00  0.00    +0.000 N 
ATOM     19  C   UNL     1       0.429  13.654  20.783  0.00  0.00    +0.000 C 
ATOM     20  O   UNL     1       1.213  13.157  21.595  0.00  0.00    +0.000 OA
ATOM     21  N   UNL     1      -0.936  13.289  20.849  0.00  0.00    +0.000 N 
ATOM     22  N   UNL     1      -1.621  12.909  19.724  0.00  0.00    +0.000 NA
ATOM     23  C   UNL     1      -2.843  12.592  20.172  0.00  0.00    +0.000 A 
ATOM     24  C   UNL     1      -3.926  12.182  19.243  0.00  0.00    +0.000 C 
ATOM     25  C   UNL     1      -2.939  12.699  21.575  0.00  0.00    +0.000 A 
ATOM     26  C   UNL     1      -1.697  13.112  21.995  0.00  0.00    +0.000 A 
ATOM     27  C   UNL     1      -1.200  13.467  23.346  0.00  0.00    +0.000 C 
ATOM     28  H   UNL     1       3.068  13.512  20.768  0.00  0.00    +0.000 HD
ENDROOT
BRANCH   1  30
ATOM     29  C   UNL     1       8.461  17.461  18.577  0.00  0.00    +0.000 C 
ATOM     30  O   UNL     1       7.157  17.870  18.972  0.00  0.00    +0.000 OA
ENDBRANCH   1  30
TORSDOF 1
ENDMDL
MODEL 8
REMARK VINA RESULT:      -6.8      8.453     12.254
REMARK  Name = 
REMARK  4 active torsions:
REMARK  status: ('A' for Active; 'I' for Inactive)
REMARK    1  A    between atoms: C_1  and  O_2
REMARK    2  A    between atoms: O_2  and  C_3
REMARK    3  A    between atoms: C_25  and  C_26
REMARK    4  A    between atoms: C_28  and  C_29
REMARK                            x       y       z     vdW  Elec       q    Type
REMARK                         _______ _______ _______ _____ _____    ______ ____
ROOT
ATOM      1  C   UNL     1       5.531  13.558  26.224  0.00  0.00    +0.000 A 
ATOM      2  C   UNL     1       6.219  12.378  26.497  0.00  0.00    +0.000 A 
ATOM      3  C   UNL     1       7.177  11.878  25.604  0.00  0.00    +0.000 A 
ATOM      4  C   UNL     1       7.436  12.611  24.439  0.00  0.00    +0.000 A 
ATOM      5  N   UNL     1       8.265  12.326  23.374  0.00  0.00    +0.000 N 
ATOM      6  C   UNL     1       8.147  13.297  22.412  0.00  0.00    +0.000 A 
ATOM      7  C   UNL     1       7.346  14.295  22.923  0.00  0.00    +0.000 A 
ATOM      8  C   UNL     1       6.800  13.822  24.154  0.00  0.00    +0.000 A 
ATOM      9  C   UNL     1       5.809  14.274  25.053  0.00  0.00    +0.000 A 
ATOM     10  C   UNL     1       7.149  15.479  22.118  0.00  0.00    +0.000 A 
ATOM     11  C   UNL     1       6.585  16.653  22.627  0.00  0.00    +0.000 A 
ATOM     12  C   UNL     1       6.419  17.767  21.802  0.00  0.00    +0.000 A 
ATOM     13  C   UNL     1       6.820  17.722  20.467  0.00  0.00    +0.000 A 
ATOM     14  C   UNL     1       7.404  16.565  19.958  0.00  0.00    +0.000 A 
ATOM     15  C   UNL     1       7.582  15.446  20.784  0.00  0.00    +0.000 A 
ATOM     16  C   UNL     1       8.223  14.219  20.221  0.00  0.00    +0.000 A 
ATOM     17  O   UNL     1       8.232  14.102  18.996  0.00  0.00    +0.000 OA
ATOM     18  N   UNL     1       8.708  13.244  21.123  0.00  0.00    +0.000 N 
ATOM     19  C   UNL     1       9.327  12.045  20.738  0.00  0.00    +0.000 C 
ATOM     20  O   UNL     1       9.262  10.959  21.317  0.00  0.00    +0.000 OA
ATOM     21  N   UNL     1       9.977  12.107  19.482  0.00  0.00    +0.000 N 
ATOM     22  N   UNL     1      10.914  13.071  19.218  0.00  0.00    +0.000 NA
ATOM     23  C   UNL     1      11.341  12.788  17.980  0.00  0.00    +0.000 A 
ATOM     24  C   UNL     1      12.333  13.647  17.287  0.00  0.00    +0.000 C 
ATOM     25  C   UNL     1      10.741  11.619  17.466  0.00  0.00    +0.000 A 
ATOM     26  C   UNL     1       9.897  11.176  18.457  0.00  0.00    +0.000 A 
ATOM     27  C   UNL     1       8.945  10.040  18.482  0.00  0.00    +0.000 C 
ATOM     28  H   UNL     1       8.784  11.464  23.257  0.00  0.00    +0.000 HD
ENDROOT
BRANCH   1  30
ATOM     29  C   UNL     1       4.927  14.600  28.264  0.00  0.00    +0.000 C 
ATOM     30  O   UNL     1       4.533  14.092  26.994  0.00  0.00    +0.000 OA
ENDBRANCH   1  30
TORSDOF 1
ENDMDL
MODEL 9
REMARK VINA RESULT:      -6.7      6.535     10.160
REMARK  Name = 
REMARK  4 active torsions:
REMARK  status: ('A' for Active; 'I' for Inactive)
REMARK    1  A    between atoms: C_1  and  O_2
REMARK    2  A    between atoms: O_2  and  C_3
REMARK    3  A    between atoms: C_25  and  C_26
REMARK    4  A    between atoms: C_28  and  C_29
REMARK                            x       y       z     vdW  Elec       q    Type
REMARK                         _______ _______ _______ _____ _____    ______ ____
ROOT
ATOM      1  C   UNL     1       5.984  16.806  18.905  0.00  0.00    +0.000 A 
ATOM      2  C   UNL     1       6.535  15.615  18.441  0.00  0.00    +0.000 A 
ATOM      3  C   UNL     1       5.720  14.519  18.122  0.00  0.00    +0.000 A 
ATOM      4  C   UNL     1       4.334  14.666  18.266  0.00  0.00    +0.000 A 
ATOM      5  N   UNL     1       3.319  13.749  18.090  0.00  0.00    +0.000 N 
ATOM      6  C   UNL     1       2.112  14.314  18.416  0.00  0.00    +0.000 A 
ATOM      7  C   UNL     1       2.331  15.651  18.664  0.00  0.00    +0.000 A 
ATOM      8  C   UNL     1       3.743  15.861  18.684  0.00  0.00    +0.000 A 
ATOM      9  C   UNL     1       4.595  16.930  19.039  0.00  0.00    +0.000 A 
ATOM     10  C   UNL     1       1.182  16.482  18.942  0.00  0.00    +0.000 A 
ATOM     11  C   UNL     1       1.243  17.879  18.948  0.00  0.00    +0.000 A 
ATOM     12  C   UNL     1       0.099  18.631  19.224  0.00  0.00    +0.000 A 
ATOM     13  C   UNL     1      -1.115  17.997  19.488  0.00  0.00    +0.000 A 
ATOM     14  C   UNL     1      -1.189  16.606  19.462  0.00  0.00    +0.000 A 
ATOM     15  C   UNL     1      -0.047  15.846  19.177  0.00  0.00    +0.000 A 
ATOM     16  C   UNL     1      -0.153  14.356  19.141  0.00  0.00    +0.000 A 
ATOM     17  O   UNL     1      -1.117  13.848  19.711  0.00  0.00    +0.000 OA
ATOM     18  N   UNL     1       0.890  13.626  18.523  0.00  0.00    +0.000 N 
ATOM     19  C   UNL     1       0.925  12.227  18.420  0.00  0.00    +0.000 C 
ATOM     20  O   UNL     1       1.925  11.507  18.449  0.00  0.00    +0.000 OA
ATOM     21  N   UNL     1      -0.351  11.615  18.411  0.00  0.00    +0.000 N 
ATOM     22  N   UNL     1      -1.311  11.996  17.510  0.00  0.00    +0.000 NA
ATOM     23  C   UNL     1      -2.343  11.179  17.760  0.00  0.00    +0.000 A 
ATOM     24  C   UNL     1      -3.628  11.308  17.028  0.00  0.00    +0.000 C 
ATOM     25  C   UNL     1      -2.042  10.235  18.764  0.00  0.00    +0.000 A 
ATOM     26  C   UNL     1      -0.748  10.507  19.143  0.00  0.00    +0.000 A 
ATOM     27  C   UNL     1       0.098   9.904  20.202  0.00  0.00    +0.000 C 
ATOM     28  H   UNL     1       3.454  12.767  17.879  0.00  0.00    +0.000 HD
ENDROOT
BRANCH   1  30
ATOM     29  C   UNL     1       6.424  18.380  20.621  0.00  0.00    +0.000 C 
ATOM     30  O   UNL     1       6.694  17.906  19.306  0.00  0.00    +0.000 OA
ENDBRANCH   1  30
TORSDOF 1
ENDMDL
