MODEL 1
REMARK VINA RESULT:      -6.2      0.000      0.000
REMARK  Name = 
REMARK  20 active torsions:
REMARK  status: ('A' for Active; 'I' for Inactive)
REMARK    1  A    between atoms: C_1  and  C_2
REMARK    2  A    between atoms: C_2  and  C_3
REMARK    3  A    between atoms: C_4  and  O_5
REMARK    4  A    between atoms: N_10  and  C_11
REMARK    5  A    between atoms: C_11  and  C_12
REMARK    6  A    between atoms: C_12  and  C_13
REMARK    7  A    between atoms: C_13  and  C_14
REMARK    8  A    between atoms: C_14  and  C_15
REMARK    9  A    between atoms: C_15  and  C_16
REMARK   10  A    between atoms: C_16  and  C_17
REMARK   11  A    between atoms: C_17  and  C_18
REMARK   12  A    between atoms: C_18  and  C_19
REMARK   13  A    between atoms: C_19  and  C_20
REMARK   14  A    between atoms: C_20  and  O_21
REMARK   15  A    between atoms: O_21  and  C_22
REMARK   16  A    between atoms: C_22  and  C_24
REMARK   17  A    between atoms: C_24  and  C_25
REMARK   18  A    between atoms: C_25  and  C_26
REMARK   19  A    between atoms: C_26  and  C_28
REMARK   20  A    between atoms: C_28  and  N_29
REMARK                            x       y       z     vdW  Elec       q    Type
REMARK                         _______ _______ _______ _____ _____    ______ ____
ROOT
ATOM      1  C   UNL     1       2.804   5.899  19.872  0.00  0.00    +0.000 C 
ENDROOT
BRANCH   1   2
ATOM      2  C   UNL     1       1.805   5.289  20.859  0.00  0.00    +0.000 C 
BRANCH   2   3
ATOM      3  C   UNL     1       0.822   4.349  20.146  0.00  0.00    +0.000 C 
BRANCH   3   4
ATOM      4  C   UNL     1       1.311   2.885  20.119  0.00  0.00    +0.000 C 
BRANCH   4   5
ATOM      5  C   UNL     1       1.202   2.196  18.741  0.00  0.00    +0.000 C 
BRANCH   5   6
ATOM      6  C   UNL     1       2.489   2.331  17.917  0.00  0.00    +0.000 C 
BRANCH   6   7
ATOM      7  O   UNL     1       3.573   2.525  18.753  0.00  0.00    +0.000 OA
BRANCH   7   8
ATOM      8  C   UNL     1       4.638   3.323  18.457  0.00  0.00    +0.000 C 
ATOM      9  O   UNL     1       5.428   3.675  19.324  0.00  0.00    +0.000 OA
BRANCH   8  10
ATOM     10  C   UNL     1       4.853   3.783  17.046  0.00  0.00    +0.000 C 
BRANCH  10  11
ATOM     11  C   UNL     1       5.263   5.261  16.981  0.00  0.00    +0.000 C 
BRANCH  11  12
ATOM     12  C   UNL     1       5.515   5.781  15.583  0.00  0.00    +0.000 C 
ATOM     13  O   UNL     1       5.113   6.882  15.233  0.00  0.00    +0.000 OA
BRANCH  12  14
ATOM     14  C   UNL     1       6.278   4.934  14.605  0.00  0.00    +0.000 C 
BRANCH  14  15
ATOM     15  N   UNL     1       7.683   5.331  14.584  0.00  0.00    +0.000 NA
ATOM     16  H   UNL     1       8.264   4.546  14.959  0.00  0.00    +0.000 HD
ATOM     17  H   UNL     1       7.802   6.148  15.227  0.00  0.00    +0.000 HD
ENDBRANCH  14  15
ENDBRANCH  12  14
ENDBRANCH  11  12
ENDBRANCH  10  11
ENDBRANCH   8  10
ENDBRANCH   7   8
ENDBRANCH   6   7
ENDBRANCH   5   6
ENDBRANCH   4   5
ENDBRANCH   3   4
ENDBRANCH   2   3
ENDBRANCH   1   2
BRANCH   1  18
ATOM     18  C   UNL     1       2.153   6.065  18.496  0.00  0.00    +0.000 C 
BRANCH  18  19
ATOM     19  C   UNL     1       2.376   7.478  17.936  0.00  0.00    +0.000 C 
BRANCH  19  20
ATOM     20  C   UNL     1       1.805   8.577  18.851  0.00  0.00    +0.000 C 
BRANCH  20  21
ATOM     21  C   UNL     1       1.746   9.976  18.185  0.00  0.00    +0.000 C 
BRANCH  21  28
ATOM     22  C   UNL     1       0.155  11.858  18.831  0.00  0.00    +0.000 A 
ATOM     23  C   UNL     1      -1.187  12.352  18.860  0.00  0.00    +0.000 A 
ATOM     24  C   UNL     1      -2.227  11.545  18.397  0.00  0.00    +0.000 A 
ATOM     25  O   UNL     1      -3.377  11.947  18.425  0.00  0.00    +0.000 OA
ATOM     26  C   UNL     1      -1.957  10.277  17.913  0.00  0.00    +0.000 A 
ATOM     27  C   UNL     1      -0.649   9.821  17.878  0.00  0.00    +0.000 A 
ATOM     28  N   UNL     1       0.400  10.593  18.309  0.00  0.00    +0.000 N 
BRANCH  22  30
ATOM     29  C   UNL     1       1.887  13.630  18.369  0.00  0.00    +0.000 C 
ATOM     30  C   UNL     1       1.252  12.734  19.425  0.00  0.00    +0.000 C 
ENDBRANCH  22  30
BRANCH  23  31
ATOM     31  O   UNL     1      -1.511  13.577  19.339  0.00  0.00    +0.000 OA
ATOM     32  H   UNL     1      -0.904  14.189  19.770  0.00  0.00    +0.000 HD
ENDBRANCH  23  31
ENDBRANCH  21  28
ENDBRANCH  20  21
ENDBRANCH  19  20
ENDBRANCH  18  19
ENDBRANCH   1  18
TORSDOF 19
ENDMDL
MODEL 2
REMARK VINA RESULT:      -5.9      6.518      8.855
REMARK  Name = 
REMARK  20 active torsions:
REMARK  status: ('A' for Active; 'I' for Inactive)
REMARK    1  A    between atoms: C_1  and  C_2
REMARK    2  A    between atoms: C_2  and  C_3
REMARK    3  A    between atoms: C_4  and  O_5
REMARK    4  A    between atoms: N_10  and  C_11
REMARK    5  A    between atoms: C_11  and  C_12
REMARK    6  A    between atoms: C_12  and  C_13
REMARK    7  A    between atoms: C_13  and  C_14
REMARK    8  A    between atoms: C_14  and  C_15
REMARK    9  A    between atoms: C_15  and  C_16
REMARK   10  A    between atoms: C_16  and  C_17
REMARK   11  A    between atoms: C_17  and  C_18
REMARK   12  A    between atoms: C_18  and  C_19
REMARK   13  A    between atoms: C_19  and  C_20
REMARK   14  A    between atoms: C_20  and  O_21
REMARK   15  A    between atoms: O_21  and  C_22
REMARK   16  A    between atoms: C_22  and  C_24
REMARK   17  A    between atoms: C_24  and  C_25
REMARK   18  A    between atoms: C_25  and  C_26
REMARK   19  A    between atoms: C_26  and  C_28
REMARK   20  A    between atoms: C_28  and  N_29
REMARK                            x       y       z     vdW  Elec       q    Type
REMARK                         _______ _______ _______ _____ _____    ______ ____
ROOT
ATOM      1  C   UNL     1       7.726   7.542  17.517  0.00  0.00    +0.000 C 
ENDROOT
BRANCH   1   2
ATOM      2  C   UNL     1       7.967   6.706  18.776  0.00  0.00    +0.000 C 
BRANCH   2   3
ATOM      3  C   UNL     1       7.273   5.340  18.678  0.00  0.00    +0.000 C 
BRANCH   3   4
ATOM      4  C   UNL     1       7.563   4.620  17.343  0.00  0.00    +0.000 C 
BRANCH   4   5
ATOM      5  C   UNL     1       6.304   4.179  16.564  0.00  0.00    +0.000 C 
BRANCH   5   6
ATOM      6  C   UNL     1       5.087   5.061  16.872  0.00  0.00    +0.000 C 
BRANCH   6   7
ATOM      7  O   UNL     1       3.966   4.276  17.073  0.00  0.00    +0.000 OA
BRANCH   7   8
ATOM      8  C   UNL     1       3.871   3.302  18.022  0.00  0.00    +0.000 C 
ATOM      9  O   UNL     1       3.612   2.145  17.720  0.00  0.00    +0.000 OA
BRANCH   8  10
ATOM     10  C   UNL     1       4.086   3.649  19.465  0.00  0.00    +0.000 C 
BRANCH  10  11
ATOM     11  C   UNL     1       3.643   2.513  20.399  0.00  0.00    +0.000 C 
BRANCH  11  12
ATOM     12  C   UNL     1       2.386   2.806  21.189  0.00  0.00    +0.000 C 
ATOM     13  O   UNL     1       2.440   3.143  22.364  0.00  0.00    +0.000 OA
BRANCH  12  14
ATOM     14  C   UNL     1       1.047   2.688  20.520  0.00  0.00    +0.000 C 
BRANCH  14  15
ATOM     15  N   UNL     1       0.583   4.003  20.088  0.00  0.00    +0.000 NA
ATOM     16  H   UNL     1       1.316   4.441  19.483  0.00  0.00    +0.000 HD
ATOM     17  H   UNL     1       0.469   4.605  20.936  0.00  0.00    +0.000 HD
ENDBRANCH  14  15
ENDBRANCH  12  14
ENDBRANCH  11  12
ENDBRANCH  10  11
ENDBRANCH   8  10
ENDBRANCH   7   8
ENDBRANCH   6   7
ENDBRANCH   5   6
ENDBRANCH   4   5
ENDBRANCH   3   4
ENDBRANCH   2   3
ENDBRANCH   1   2
BRANCH   1  18
ATOM     18  C   UNL     1       7.704   9.032  17.866  0.00  0.00    +0.000 C 
BRANCH  18  19
ATOM     19  C   UNL     1       8.872   9.411  18.788  0.00  0.00    +0.000 C 
BRANCH  19  20
ATOM     20  C   UNL     1       9.765  10.516  18.194  0.00  0.00    +0.000 C 
BRANCH  20  21
ATOM     21  C   UNL     1      10.446  11.411  19.263  0.00  0.00    +0.000 C 
BRANCH  21  28
ATOM     22  C   UNL     1      10.830  13.920  19.479  0.00  0.00    +0.000 A 
ATOM     23  C   UNL     1      11.213  15.145  18.846  0.00  0.00    +0.000 A 
ATOM     24  C   UNL     1      11.505  15.152  17.482  0.00  0.00    +0.000 A 
ATOM     25  O   UNL     1      11.822  16.189  16.926  0.00  0.00    +0.000 OA
ATOM     26  C   UNL     1      11.424  13.981  16.749  0.00  0.00    +0.000 A 
ATOM     27  C   UNL     1      11.066  12.801  17.381  0.00  0.00    +0.000 A 
ATOM     28  N   UNL     1      10.788  12.752  18.725  0.00  0.00    +0.000 N 
BRANCH  22  30
ATOM     29  C   UNL     1       8.938  14.195  21.121  0.00  0.00    +0.000 C 
ATOM     30  C   UNL     1      10.435  13.969  20.950  0.00  0.00    +0.000 C 
ENDBRANCH  22  30
BRANCH  23  31
ATOM     31  O   UNL     1      11.292  16.323  19.510  0.00  0.00    +0.000 OA
ATOM     32  H   UNL     1      10.645  16.654  20.143  0.00  0.00    +0.000 HD
ENDBRANCH  23  31
ENDBRANCH  21  28
ENDBRANCH  20  21
ENDBRANCH  19  20
ENDBRANCH  18  19
ENDBRANCH   1  18
TORSDOF 19
ENDMDL
MODEL 3
REMARK VINA RESULT:      -5.9      2.381      2.882
REMARK  Name = 
REMARK  20 active torsions:
REMARK  status: ('A' for Active; 'I' for Inactive)
REMARK    1  A    between atoms: C_1  and  C_2
REMARK    2  A    between atoms: C_2  and  C_3
REMARK    3  A    between atoms: C_4  and  O_5
REMARK    4  A    between atoms: N_10  and  C_11
REMARK    5  A    between atoms: C_11  and  C_12
REMARK    6  A    between atoms: C_12  and  C_13
REMARK    7  A    between atoms: C_13  and  C_14
REMARK    8  A    between atoms: C_14  and  C_15
REMARK    9  A    between atoms: C_15  and  C_16
REMARK   10  A    between atoms: C_16  and  C_17
REMARK   11  A    between atoms: C_17  and  C_18
REMARK   12  A    between atoms: C_18  and  C_19
REMARK   13  A    between atoms: C_19  and  C_20
REMARK   14  A    between atoms: C_20  and  O_21
REMARK   15  A    between atoms: O_21  and  C_22
REMARK   16  A    between atoms: C_22  and  C_24
REMARK   17  A    between atoms: C_24  and  C_25
REMARK   18  A    between atoms: C_25  and  C_26
REMARK   19  A    between atoms: C_26  and  C_28
REMARK   20  A    between atoms: C_28  and  N_29
REMARK                            x       y       z     vdW  Elec       q    Type
REMARK                         _______ _______ _______ _____ _____    ______ ____
ROOT
ATOM      1  C   UNL     1       2.164   5.531  20.787  0.00  0.00    +0.000 C 
ENDROOT
BRANCH   1   2
ATOM      2  C   UNL     1       1.530   4.140  20.870  0.00  0.00    +0.000 C 
BRANCH   2   3
ATOM      3  C   UNL     1       2.595   3.038  20.779  0.00  0.00    +0.000 C 
BRANCH   3   4
ATOM      4  C   UNL     1       2.362   2.081  19.590  0.00  0.00    +0.000 C 
BRANCH   4   5
ATOM      5  C   UNL     1       1.466   2.653  18.469  0.00  0.00    +0.000 C 
BRANCH   5   6
ATOM      6  C   UNL     1       2.277   3.106  17.247  0.00  0.00    +0.000 C 
BRANCH   6   7
ATOM      7  O   UNL     1       2.804   4.366  17.464  0.00  0.00    +0.000 OA
BRANCH   7   8
ATOM      8  C   UNL     1       4.136   4.657  17.433  0.00  0.00    +0.000 C 
ATOM      9  O   UNL     1       4.932   3.926  16.857  0.00  0.00    +0.000 OA
BRANCH   8  10
ATOM     10  C   UNL     1       4.642   5.893  18.114  0.00  0.00    +0.000 C 
BRANCH  10  11
ATOM     11  C   UNL     1       5.507   6.749  17.177  0.00  0.00    +0.000 C 
BRANCH  11  12
ATOM     12  C   UNL     1       6.998   6.571  17.365  0.00  0.00    +0.000 C 
ATOM     13  O   UNL     1       7.800   7.114  16.617  0.00  0.00    +0.000 OA
BRANCH  12  14
ATOM     14  C   UNL     1       7.505   5.720  18.493  0.00  0.00    +0.000 C 
BRANCH  14  15
ATOM     15  N   UNL     1       7.785   4.369  18.018  0.00  0.00    +0.000 NA
ATOM     16  H   UNL     1       6.883   3.906  17.760  0.00  0.00    +0.000 HD
ATOM     17  H   UNL     1       8.207   3.825  18.806  0.00  0.00    +0.000 HD
ENDBRANCH  14  15
ENDBRANCH  12  14
ENDBRANCH  11  12
ENDBRANCH  10  11
ENDBRANCH   8  10
ENDBRANCH   7   8
ENDBRANCH   6   7
ENDBRANCH   5   6
ENDBRANCH   4   5
ENDBRANCH   3   4
ENDBRANCH   2   3
ENDBRANCH   1   2
BRANCH   1  18
ATOM     18  C   UNL     1       1.103   6.577  20.437  0.00  0.00    +0.000 C 
BRANCH  18  19
ATOM     19  C   UNL     1       1.586   7.998  20.763  0.00  0.00    +0.000 C 
BRANCH  19  20
ATOM     20  C   UNL     1       0.573   8.791  21.611  0.00  0.00    +0.000 C 
BRANCH  20  21
ATOM     21  C   UNL     1       0.838  10.319  21.632  0.00  0.00    +0.000 C 
BRANCH  21  28
ATOM     22  C   UNL     1      -0.997  11.616  20.430  0.00  0.00    +0.000 A 
ATOM     23  C   UNL     1      -2.240  12.318  20.519  0.00  0.00    +0.000 A 
ATOM     24  C   UNL     1      -2.838  12.502  21.766  0.00  0.00    +0.000 A 
ATOM     25  O   UNL     1      -3.890  13.109  21.860  0.00  0.00    +0.000 OA
ATOM     26  C   UNL     1      -2.230  12.006  22.906  0.00  0.00    +0.000 A 
ATOM     27  C   UNL     1      -1.034  11.314  22.799  0.00  0.00    +0.000 A 
ATOM     28  N   UNL     1      -0.425  11.100  21.588  0.00  0.00    +0.000 N 
BRANCH  22  30
ATOM     29  C   UNL     1      -0.756  10.243  18.329  0.00  0.00    +0.000 C 
ATOM     30  C   UNL     1      -0.332  11.511  19.062  0.00  0.00    +0.000 C 
ENDBRANCH  22  30
BRANCH  23  31
ATOM     31  O   UNL     1      -2.870  12.840  19.439  0.00  0.00    +0.000 OA
ATOM     32  H   UNL     1      -3.551  12.399  18.920  0.00  0.00    +0.000 HD
ENDBRANCH  23  31
ENDBRANCH  21  28
ENDBRANCH  20  21
ENDBRANCH  19  20
ENDBRANCH  18  19
ENDBRANCH   1  18
TORSDOF 19
ENDMDL
MODEL 4
REMARK VINA RESULT:      -5.9      1.901      2.483
REMARK  Name = 
REMARK  20 active torsions:
REMARK  status: ('A' for Active; 'I' for Inactive)
REMARK    1  A    between atoms: C_1  and  C_2
REMARK    2  A    between atoms: C_2  and  C_3
REMARK    3  A    between atoms: C_4  and  O_5
REMARK    4  A    between atoms: N_10  and  C_11
REMARK    5  A    between atoms: C_11  and  C_12
REMARK    6  A    between atoms: C_12  and  C_13
REMARK    7  A    between atoms: C_13  and  C_14
REMARK    8  A    between atoms: C_14  and  C_15
REMARK    9  A    between atoms: C_15  and  C_16
REMARK   10  A    between atoms: C_16  and  C_17
REMARK   11  A    between atoms: C_17  and  C_18
REMARK   12  A    between atoms: C_18  and  C_19
REMARK   13  A    between atoms: C_19  and  C_20
REMARK   14  A    between atoms: C_20  and  O_21
REMARK   15  A    between atoms: O_21  and  C_22
REMARK   16  A    between atoms: C_22  and  C_24
REMARK   17  A    between atoms: C_24  and  C_25
REMARK   18  A    between atoms: C_25  and  C_26
REMARK   19  A    between atoms: C_26  and  C_28
REMARK   20  A    between atoms: C_28  and  N_29
REMARK                            x       y       z     vdW  Elec       q    Type
REMARK                         _______ _______ _______ _____ _____    ______ ____
ROOT
ATOM      1  C   UNL     1       1.921   6.742  20.989  0.00  0.00    +0.000 C 
ENDROOT
BRANCH   1   2
ATOM      2  C   UNL     1       2.299   6.254  19.588  0.00  0.00    +0.000 C 
BRANCH   2   3
ATOM      3  C   UNL     1       1.504   4.997  19.205  0.00  0.00    +0.000 C 
BRANCH   3   4
ATOM      4  C   UNL     1       1.132   4.131  20.427  0.00  0.00    +0.000 C 
BRANCH   4   5
ATOM      5  C   UNL     1       1.706   2.697  20.399  0.00  0.00    +0.000 C 
BRANCH   5   6
ATOM      6  C   UNL     1       3.227   2.672  20.605  0.00  0.00    +0.000 C 
BRANCH   6   7
ATOM      7  O   UNL     1       3.867   2.413  19.407  0.00  0.00    +0.000 OA
BRANCH   7   8
ATOM      8  C   UNL     1       4.615   3.325  18.723  0.00  0.00    +0.000 C 
ATOM      9  O   UNL     1       5.542   3.916  19.261  0.00  0.00    +0.000 OA
BRANCH   8  10
ATOM     10  C   UNL     1       4.302   3.614  17.286  0.00  0.00    +0.000 C 
BRANCH  10  11
ATOM     11  C   UNL     1       4.584   5.079  16.921  0.00  0.00    +0.000 C 
BRANCH  11  12
ATOM     12  C   UNL     1       5.713   5.273  15.933  0.00  0.00    +0.000 C 
ATOM     13  O   UNL     1       5.758   6.257  15.208  0.00  0.00    +0.000 OA
BRANCH  12  14
ATOM     14  C   UNL     1       6.803   4.245  15.844  0.00  0.00    +0.000 C 
BRANCH  14  15
ATOM     15  N   UNL     1       7.712   4.375  16.979  0.00  0.00    +0.000 NA
ATOM     16  H   UNL     1       7.322   3.841  17.790  0.00  0.00    +0.000 HD
ATOM     17  H   UNL     1       7.753   5.384  17.252  0.00  0.00    +0.000 HD
ENDBRANCH  14  15
ENDBRANCH  12  14
ENDBRANCH  11  12
ENDBRANCH  10  11
ENDBRANCH   8  10
ENDBRANCH   7   8
ENDBRANCH   6   7
ENDBRANCH   5   6
ENDBRANCH   4   5
ENDBRANCH   3   4
ENDBRANCH   2   3
ENDBRANCH   1   2
BRANCH   1  18
ATOM     18  C   UNL     1       1.018   7.974  20.894  0.00  0.00    +0.000 C 
BRANCH  18  19
ATOM     19  C   UNL     1       1.240   8.926  22.080  0.00  0.00    +0.000 C 
BRANCH  19  20
ATOM     20  C   UNL     1       0.160  10.020  22.174  0.00  0.00    +0.000 C 
BRANCH  20  21
ATOM     21  C   UNL     1       0.366  11.188  21.175  0.00  0.00    +0.000 C 
BRANCH  21  28
ATOM     22  C   UNL     1      -1.877  12.211  20.531  0.00  0.00    +0.000 A 
ATOM     23  C   UNL     1      -2.927  12.315  19.564  0.00  0.00    +0.000 A 
ATOM     24  C   UNL     1      -2.874  11.541  18.405  0.00  0.00    +0.000 A 
ATOM     25  O   UNL     1      -3.766  11.610  17.578  0.00  0.00    +0.000 OA
ATOM     26  C   UNL     1      -1.811  10.680  18.195  0.00  0.00    +0.000 A 
ATOM     27  C   UNL     1      -0.795  10.603  19.134  0.00  0.00    +0.000 A 
ATOM     28  N   UNL     1      -0.806  11.361  20.278  0.00  0.00    +0.000 N 
BRANCH  22  30
ATOM     29  C   UNL     1      -2.770  12.222  22.888  0.00  0.00    +0.000 C 
ATOM     30  C   UNL     1      -2.014  13.007  21.823  0.00  0.00    +0.000 C 
ENDBRANCH  22  30
BRANCH  23  31
ATOM     31  O   UNL     1      -3.999  13.128  19.727  0.00  0.00    +0.000 OA
ATOM     32  H   UNL     1      -4.838  13.049  19.260  0.00  0.00    +0.000 HD
ENDBRANCH  23  31
ENDBRANCH  21  28
ENDBRANCH  20  21
ENDBRANCH  19  20
ENDBRANCH  18  19
ENDBRANCH   1  18
TORSDOF 19
ENDMDL
MODEL 5
REMARK VINA RESULT:      -5.9      2.604      4.205
REMARK  Name = 
REMARK  20 active torsions:
REMARK  status: ('A' for Active; 'I' for Inactive)
REMARK    1  A    between atoms: C_1  and  C_2
REMARK    2  A    between atoms: C_2  and  C_3
REMARK    3  A    between atoms: C_4  and  O_5
REMARK    4  A    between atoms: N_10  and  C_11
REMARK    5  A    between atoms: C_11  and  C_12
REMARK    6  A    between atoms: C_12  and  C_13
REMARK    7  A    between atoms: C_13  and  C_14
REMARK    8  A    between atoms: C_14  and  C_15
REMARK    9  A    between atoms: C_15  and  C_16
REMARK   10  A    between atoms: C_16  and  C_17
REMARK   11  A    between atoms: C_17  and  C_18
REMARK   12  A    between atoms: C_18  and  C_19
REMARK   13  A    between atoms: C_19  and  C_20
REMARK   14  A    between atoms: C_20  and  O_21
REMARK   15  A    between atoms: O_21  and  C_22
REMARK   16  A    between atoms: C_22  and  C_24
REMARK   17  A    between atoms: C_24  and  C_25
REMARK   18  A    between atoms: C_25  and  C_26
REMARK   19  A    between atoms: C_26  and  C_28
REMARK   20  A    between atoms: C_28  and  N_29
REMARK                            x       y       z     vdW  Elec       q    Type
REMARK                         _______ _______ _______ _____ _____    ______ ____
ROOT
ATOM      1  C   UNL     1       1.396   2.520  19.648  0.00  0.00    +0.000 C 
ENDROOT
BRANCH   1   2
ATOM      2  C   UNL     1       2.014   2.030  18.336  0.00  0.00    +0.000 C 
BRANCH   2   3
ATOM      3  C   UNL     1       3.449   2.551  18.169  0.00  0.00    +0.000 C 
BRANCH   3   4
ATOM      4  C   UNL     1       3.511   3.882  17.389  0.00  0.00    +0.000 C 
BRANCH   4   5
ATOM      5  C   UNL     1       4.566   4.884  17.909  0.00  0.00    +0.000 C 
BRANCH   5   6
ATOM      6  C   UNL     1       4.998   5.889  16.832  0.00  0.00    +0.000 C 
BRANCH   6   7
ATOM      7  O   UNL     1       6.360   5.798  16.612  0.00  0.00    +0.000 OA
BRANCH   7   8
ATOM      8  C   UNL     1       7.002   4.656  16.235  0.00  0.00    +0.000 C 
ATOM      9  O   UNL     1       7.993   4.258  16.834  0.00  0.00    +0.000 OA
BRANCH   8  10
ATOM     10  C   UNL     1       6.492   3.869  15.065  0.00  0.00    +0.000 C 
BRANCH  10  11
ATOM     11  C   UNL     1       6.461   4.708  13.779  0.00  0.00    +0.000 C 
BRANCH  11  12
ATOM     12  C   UNL     1       6.515   3.899  12.502  0.00  0.00    +0.000 C 
ATOM     13  O   UNL     1       7.367   4.114  11.651  0.00  0.00    +0.000 OA
BRANCH  12  14
ATOM     14  C   UNL     1       5.511   2.806  12.275  0.00  0.00    +0.000 C 
BRANCH  14  15
ATOM     15  N   UNL     1       4.401   3.301  11.467  0.00  0.00    +0.000 NA
ATOM     16  H   UNL     1       4.038   2.521  10.873  0.00  0.00    +0.000 HD
ATOM     17  H   UNL     1       4.767   4.044  10.827  0.00  0.00    +0.000 HD
ENDBRANCH  14  15
ENDBRANCH  12  14
ENDBRANCH  11  12
ENDBRANCH  10  11
ENDBRANCH   8  10
ENDBRANCH   7   8
ENDBRANCH   6   7
ENDBRANCH   5   6
ENDBRANCH   4   5
ENDBRANCH   3   4
ENDBRANCH   2   3
ENDBRANCH   1   2
BRANCH   1  18
ATOM     18  C   UNL     1       2.477   2.666  20.721  0.00  0.00    +0.000 C 
BRANCH  18  19
ATOM     19  C   UNL     1       2.672   4.135  21.127  0.00  0.00    +0.000 C 
BRANCH  19  20
ATOM     20  C   UNL     1       1.671   5.081  20.436  0.00  0.00    +0.000 C 
BRANCH  20  21
ATOM     21  C   UNL     1       1.508   6.447  21.151  0.00  0.00    +0.000 C 
BRANCH  21  28
ATOM     22  C   UNL     1       0.897   8.787  20.350  0.00  0.00    +0.000 A 
ATOM     23  C   UNL     1       1.079   9.819  19.376  0.00  0.00    +0.000 A 
ATOM     24  C   UNL     1       1.905   9.587  18.275  0.00  0.00    +0.000 A 
ATOM     25  O   UNL     1       2.061  10.452  17.431  0.00  0.00    +0.000 OA
ATOM     26  C   UNL     1       2.543   8.368  18.131  0.00  0.00    +0.000 A 
ATOM     27  C   UNL     1       2.368   7.385  19.093  0.00  0.00    +0.000 A 
ATOM     28  N   UNL     1       1.576   7.583  20.197  0.00  0.00    +0.000 N 
BRANCH  22  30
ATOM     29  C   UNL     1       0.637   9.547  22.739  0.00  0.00    +0.000 C 
ATOM     30  C   UNL     1      -0.080   9.046  21.491  0.00  0.00    +0.000 C 
ENDBRANCH  22  30
BRANCH  23  31
ATOM     31  O   UNL     1       0.466  11.024  19.457  0.00  0.00    +0.000 OA
ATOM     32  H   UNL     1       0.181  11.455  20.270  0.00  0.00    +0.000 HD
ENDBRANCH  23  31
ENDBRANCH  21  28
ENDBRANCH  20  21
ENDBRANCH  19  20
ENDBRANCH  18  19
ENDBRANCH   1  18
TORSDOF 19
ENDMDL
MODEL 6
REMARK VINA RESULT:      -5.8      6.143     10.150
REMARK  Name = 
REMARK  20 active torsions:
REMARK  status: ('A' for Active; 'I' for Inactive)
REMARK    1  A    between atoms: C_1  and  C_2
REMARK    2  A    between atoms: C_2  and  C_3
REMARK    3  A    between atoms: C_4  and  O_5
REMARK    4  A    between atoms: N_10  and  C_11
REMARK    5  A    between atoms: C_11  and  C_12
REMARK    6  A    between atoms: C_12  and  C_13
REMARK    7  A    between atoms: C_13  and  C_14
REMARK    8  A    between atoms: C_14  and  C_15
REMARK    9  A    between atoms: C_15  and  C_16
REMARK   10  A    between atoms: C_16  and  C_17
REMARK   11  A    between atoms: C_17  and  C_18
REMARK   12  A    between atoms: C_18  and  C_19
REMARK   13  A    between atoms: C_19  and  C_20
REMARK   14  A    between atoms: C_20  and  O_21
REMARK   15  A    between atoms: O_21  and  C_22
REMARK   16  A    between atoms: C_22  and  C_24
REMARK   17  A    between atoms: C_24  and  C_25
REMARK   18  A    between atoms: C_25  and  C_26
REMARK   19  A    between atoms: C_26  and  C_28
REMARK   20  A    between atoms: C_28  and  N_29
REMARK                            x       y       z     vdW  Elec       q    Type
REMARK                         _______ _______ _______ _____ _____    ______ ____
ROOT
ATOM      1  C   UNL     1       8.173   8.502  17.710  0.00  0.00    +0.000 C 
ENDROOT
BRANCH   1   2
ATOM      2  C   UNL     1       8.766   9.421  18.780  0.00  0.00    +0.000 C 
BRANCH   2   3
ATOM      3  C   UNL     1       9.325  10.709  18.158  0.00  0.00    +0.000 C 
BRANCH   3   4
ATOM      4  C   UNL     1      10.097  11.576  19.176  0.00  0.00    +0.000 C 
BRANCH   4   5
ATOM      5  C   UNL     1      11.579  11.823  18.818  0.00  0.00    +0.000 C 
BRANCH   5   6
ATOM      6  C   UNL     1      11.741  12.615  17.514  0.00  0.00    +0.000 C 
BRANCH   6   7
ATOM      7  O   UNL     1      10.770  13.596  17.428  0.00  0.00    +0.000 OA
BRANCH   7   8
ATOM      8  C   UNL     1      11.012  14.930  17.572  0.00  0.00    +0.000 C 
ATOM      9  O   UNL     1      11.257  15.639  16.604  0.00  0.00    +0.000 OA
BRANCH   8  10
ATOM     10  C   UNL     1      10.979  15.548  18.938  0.00  0.00    +0.000 C 
BRANCH  10  11
ATOM     11  C   UNL     1       9.651  15.273  19.659  0.00  0.00    +0.000 C 
BRANCH  11  12
ATOM     12  C   UNL     1       8.418  15.605  18.849  0.00  0.00    +0.000 C 
ATOM     13  O   UNL     1       8.199  16.747  18.467  0.00  0.00    +0.000 OA
BRANCH  12  14
ATOM     14  C   UNL     1       7.447  14.516  18.498  0.00  0.00    +0.000 C 
BRANCH  14  15
ATOM     15  N   UNL     1       6.229  15.088  17.934  0.00  0.00    +0.000 NA
ATOM     16  H   UNL     1       5.593  15.373  18.715  0.00  0.00    +0.000 HD
ATOM     17  H   UNL     1       5.741  14.345  17.383  0.00  0.00    +0.000 HD
ENDBRANCH  14  15
ENDBRANCH  12  14
ENDBRANCH  11  12
ENDBRANCH  10  11
ENDBRANCH   8  10
ENDBRANCH   7   8
ENDBRANCH   6   7
ENDBRANCH   5   6
ENDBRANCH   4   5
ENDBRANCH   3   4
ENDBRANCH   2   3
ENDBRANCH   1   2
BRANCH   1  18
ATOM     18  C   UNL     1       7.825   7.139  18.315  0.00  0.00    +0.000 C 
BRANCH  18  19
ATOM     19  C   UNL     1       7.215   6.197  17.266  0.00  0.00    +0.000 C 
BRANCH  19  20
ATOM     20  C   UNL     1       6.808   4.834  17.856  0.00  0.00    +0.000 C 
BRANCH  20  21
ATOM     21  C   UNL     1       5.870   4.942  19.087  0.00  0.00    +0.000 C 
BRANCH  21  28
ATOM     22  C   UNL     1       3.479   4.792  18.221  0.00  0.00    +0.000 A 
ATOM     23  C   UNL     1       2.306   3.994  18.035  0.00  0.00    +0.000 A 
ATOM     24  C   UNL     1       2.277   2.690  18.530  0.00  0.00    +0.000 A 
ATOM     25  O   UNL     1       1.282   2.001  18.389  0.00  0.00    +0.000 OA
ATOM     26  C   UNL     1       3.377   2.176  19.194  0.00  0.00    +0.000 A 
ATOM     27  C   UNL     1       4.510   2.958  19.352  0.00  0.00    +0.000 A 
ATOM     28  N   UNL     1       4.581   4.239  18.864  0.00  0.00    +0.000 N 
BRANCH  22  30
ATOM     29  C   UNL     1       2.696   7.134  18.726  0.00  0.00    +0.000 C 
ATOM     30  C   UNL     1       3.441   6.239  17.743  0.00  0.00    +0.000 C 
ENDBRANCH  22  30
BRANCH  23  31
ATOM     31  O   UNL     1       1.196   4.451  17.408  0.00  0.00    +0.000 OA
ATOM     32  H   UNL     1       1.099   5.319  17.002  0.00  0.00    +0.000 HD
ENDBRANCH  23  31
ENDBRANCH  21  28
ENDBRANCH  20  21
ENDBRANCH  19  20
ENDBRANCH  18  19
ENDBRANCH   1  18
TORSDOF 19
ENDMDL
MODEL 7
REMARK VINA RESULT:      -5.8      6.024      8.446
REMARK  Name = 
REMARK  20 active torsions:
REMARK  status: ('A' for Active; 'I' for Inactive)
REMARK    1  A    between atoms: C_1  and  C_2
REMARK    2  A    between atoms: C_2  and  C_3
REMARK    3  A    between atoms: C_4  and  O_5
REMARK    4  A    between atoms: N_10  and  C_11
REMARK    5  A    between atoms: C_11  and  C_12
REMARK    6  A    between atoms: C_12  and  C_13
REMARK    7  A    between atoms: C_13  and  C_14
REMARK    8  A    between atoms: C_14  and  C_15
REMARK    9  A    between atoms: C_15  and  C_16
REMARK   10  A    between atoms: C_16  and  C_17
REMARK   11  A    between atoms: C_17  and  C_18
REMARK   12  A    between atoms: C_18  and  C_19
REMARK   13  A    between atoms: C_19  and  C_20
REMARK   14  A    between atoms: C_20  and  O_21
REMARK   15  A    between atoms: O_21  and  C_22
REMARK   16  A    between atoms: C_22  and  C_24
REMARK   17  A    between atoms: C_24  and  C_25
REMARK   18  A    between atoms: C_25  and  C_26
REMARK   19  A    between atoms: C_26  and  C_28
REMARK   20  A    between atoms: C_28  and  N_29
REMARK                            x       y       z     vdW  Elec       q    Type
REMARK                         _______ _______ _______ _____ _____    ______ ____
ROOT
ATOM      1  C   UNL     1       7.224   6.069  18.015  0.00  0.00    +0.000 C 
ENDROOT
BRANCH   1   2
ATOM      2  C   UNL     1       6.508   6.522  16.740  0.00  0.00    +0.000 C 
BRANCH   2   3
ATOM      3  C   UNL     1       6.799   5.571  15.571  0.00  0.00    +0.000 C 
BRANCH   3   4
ATOM      4  C   UNL     1       5.584   4.692  15.202  0.00  0.00    +0.000 C 
BRANCH   4   5
ATOM      5  C   UNL     1       5.261   3.579  16.223  0.00  0.00    +0.000 C 
BRANCH   5   6
ATOM      6  C   UNL     1       3.889   3.772  16.882  0.00  0.00    +0.000 C 
BRANCH   6   7
ATOM      7  O   UNL     1       3.491   2.606  17.509  0.00  0.00    +0.000 OA
BRANCH   7   8
ATOM      8  C   UNL     1       2.414   2.508  18.338  0.00  0.00    +0.000 C 
ATOM      9  O   UNL     1       2.252   1.530  19.056  0.00  0.00    +0.000 OA
BRANCH   8  10
ATOM     10  C   UNL     1       1.405   3.616  18.378  0.00  0.00    +0.000 C 
BRANCH  10  11
ATOM     11  C   UNL     1       0.732   3.729  19.754  0.00  0.00    +0.000 C 
BRANCH  11  12
ATOM     12  C   UNL     1       1.511   4.537  20.768  0.00  0.00    +0.000 C 
ATOM     13  O   UNL     1       1.401   5.754  20.829  0.00  0.00    +0.000 OA
BRANCH  12  14
ATOM     14  C   UNL     1       2.431   3.836  21.724  0.00  0.00    +0.000 C 
BRANCH  14  15
ATOM     15  N   UNL     1       1.974   2.469  21.953  0.00  0.00    +0.000 NA
ATOM     16  H   UNL     1       2.806   1.836  22.001  0.00  0.00    +0.000 HD
ATOM     17  H   UNL     1       1.398   2.174  21.130  0.00  0.00    +0.000 HD
ENDBRANCH  14  15
ENDBRANCH  12  14
ENDBRANCH  11  12
ENDBRANCH  10  11
ENDBRANCH   8  10
ENDBRANCH   7   8
ENDBRANCH   6   7
ENDBRANCH   5   6
ENDBRANCH   4   5
ENDBRANCH   3   4
ENDBRANCH   2   3
ENDBRANCH   1   2
BRANCH   1  18
ATOM     18  C   UNL     1       8.091   7.203  18.567  0.00  0.00    +0.000 C 
BRANCH  18  19
ATOM     19  C   UNL     1       8.219   8.354  17.559  0.00  0.00    +0.000 C 
BRANCH  19  20
ATOM     20  C   UNL     1       8.210   9.739  18.233  0.00  0.00    +0.000 C 
BRANCH  20  21
ATOM     21  C   UNL     1       9.400   9.971  19.199  0.00  0.00    +0.000 C 
BRANCH  21  28
ATOM     22  C   UNL     1      10.311  12.226  19.958  0.00  0.00    +0.000 A 
ATOM     23  C   UNL     1      10.984  13.440  19.608  0.00  0.00    +0.000 A 
ATOM     24  C   UNL     1      11.337  13.672  18.279  0.00  0.00    +0.000 A 
ATOM     25  O   UNL     1      11.900  14.705  17.963  0.00  0.00    +0.000 OA
ATOM     26  C   UNL     1      11.039  12.731  17.308  0.00  0.00    +0.000 A 
ATOM     27  C   UNL     1      10.402  11.554  17.667  0.00  0.00    +0.000 A 
ATOM     28  N   UNL     1      10.054  11.285  18.967  0.00  0.00    +0.000 N 
BRANCH  22  30
ATOM     29  C   UNL     1       8.501  12.684  21.651  0.00  0.00    +0.000 C 
ATOM     30  C   UNL     1       9.864  12.048  21.404  0.00  0.00    +0.000 C 
ENDBRANCH  22  30
BRANCH  23  31
ATOM     31  O   UNL     1      11.284  14.402  20.514  0.00  0.00    +0.000 OA
ATOM     32  H   UNL     1      11.828  15.179  20.346  0.00  0.00    +0.000 HD
ENDBRANCH  23  31
ENDBRANCH  21  28
ENDBRANCH  20  21
ENDBRANCH  19  20
ENDBRANCH  18  19
ENDBRANCH   1  18
TORSDOF 19
ENDMDL
MODEL 8
REMARK VINA RESULT:      -5.7      2.290      3.803
REMARK  Name = 
REMARK  20 active torsions:
REMARK  status: ('A' for Active; 'I' for Inactive)
REMARK    1  A    between atoms: C_1  and  C_2
REMARK    2  A    between atoms: C_2  and  C_3
REMARK    3  A    between atoms: C_4  and  O_5
REMARK    4  A    between atoms: N_10  and  C_11
REMARK    5  A    between atoms: C_11  and  C_12
REMARK    6  A    between atoms: C_12  and  C_13
REMARK    7  A    between atoms: C_13  and  C_14
REMARK    8  A    between atoms: C_14  and  C_15
REMARK    9  A    between atoms: C_15  and  C_16
REMARK   10  A    between atoms: C_16  and  C_17
REMARK   11  A    between atoms: C_17  and  C_18
REMARK   12  A    between atoms: C_18  and  C_19
REMARK   13  A    between atoms: C_19  and  C_20
REMARK   14  A    between atoms: C_20  and  O_21
REMARK   15  A    between atoms: O_21  and  C_22
REMARK   16  A    between atoms: C_22  and  C_24
REMARK   17  A    between atoms: C_24  and  C_25
REMARK   18  A    between atoms: C_25  and  C_26
REMARK   19  A    between atoms: C_26  and  C_28
REMARK   20  A    between atoms: C_28  and  N_29
REMARK                            x       y       z     vdW  Elec       q    Type
REMARK                         _______ _______ _______ _____ _____    ______ ____
ROOT
ATOM      1  C   UNL     1       2.088   2.080  20.766  0.00  0.00    +0.000 C 
ENDROOT
BRANCH   1   2
ATOM      2  C   UNL     1       2.005   2.144  19.239  0.00  0.00    +0.000 C 
BRANCH   2   3
ATOM      3  C   UNL     1       3.396   2.019  18.601  0.00  0.00    +0.000 C 
BRANCH   3   4
ATOM      4  C   UNL     1       3.565   2.920  17.359  0.00  0.00    +0.000 C 
BRANCH   4   5
ATOM      5  C   UNL     1       3.656   4.431  17.668  0.00  0.00    +0.000 C 
BRANCH   5   6
ATOM      6  C   UNL     1       4.783   4.758  18.658  0.00  0.00    +0.000 C 
BRANCH   6   7
ATOM      7  O   UNL     1       5.480   5.874  18.235  0.00  0.00    +0.000 OA
BRANCH   7   8
ATOM      8  C   UNL     1       5.971   6.041  16.974  0.00  0.00    +0.000 C 
ATOM      9  O   UNL     1       5.560   6.936  16.246  0.00  0.00    +0.000 OA
BRANCH   8  10
ATOM     10  C   UNL     1       7.035   5.116  16.463  0.00  0.00    +0.000 C 
BRANCH  10  11
ATOM     11  C   UNL     1       6.510   4.201  15.346  0.00  0.00    +0.000 C 
BRANCH  11  12
ATOM     12  C   UNL     1       7.019   4.545  13.964  0.00  0.00    +0.000 C 
ATOM     13  O   UNL     1       7.847   5.429  13.795  0.00  0.00    +0.000 OA
BRANCH  12  14
ATOM     14  C   UNL     1       6.505   3.785  12.776  0.00  0.00    +0.000 C 
BRANCH  14  15
ATOM     15  N   UNL     1       7.179   4.232  11.561  0.00  0.00    +0.000 NA
ATOM     16  H   UNL     1       6.678   3.841  10.730  0.00  0.00    +0.000 HD
ATOM     17  H   UNL     1       8.148   3.840  11.561  0.00  0.00    +0.000 HD
ENDBRANCH  14  15
ENDBRANCH  12  14
ENDBRANCH  11  12
ENDBRANCH  10  11
ENDBRANCH   8  10
ENDBRANCH   7   8
ENDBRANCH   6   7
ENDBRANCH   5   6
ENDBRANCH   4   5
ENDBRANCH   3   4
ENDBRANCH   2   3
ENDBRANCH   1   2
BRANCH   1  18
ATOM     18  C   UNL     1       1.294   3.231  21.388  0.00  0.00    +0.000 C 
BRANCH  18  19
ATOM     19  C   UNL     1       1.076   4.372  20.382  0.00  0.00    +0.000 C 
BRANCH  19  20
ATOM     20  C   UNL     1       1.992   5.582  20.648  0.00  0.00    +0.000 C 
BRANCH  20  21
ATOM     21  C   UNL     1       1.227   6.859  21.084  0.00  0.00    +0.000 C 
BRANCH  21  28
ATOM     22  C   UNL     1       0.819   9.225  20.231  0.00  0.00    +0.000 A 
ATOM     23  C   UNL     1       1.104  10.222  19.245  0.00  0.00    +0.000 A 
ATOM     24  C   UNL     1       1.934   9.908  18.169  0.00  0.00    +0.000 A 
ATOM     25  O   UNL     1       2.176  10.742  17.315  0.00  0.00    +0.000 OA
ATOM     26  C   UNL     1       2.478   8.640  18.060  0.00  0.00    +0.000 A 
ATOM     27  C   UNL     1       2.205   7.691  19.033  0.00  0.00    +0.000 A 
ATOM     28  N   UNL     1       1.406   7.970  20.114  0.00  0.00    +0.000 N 
BRANCH  22  30
ATOM     29  C   UNL     1       0.498   9.500  22.716  0.00  0.00    +0.000 C 
ATOM     30  C   UNL     1      -0.161   9.579  21.344  0.00  0.00    +0.000 C 
ENDBRANCH  22  30
BRANCH  23  31
ATOM     31  O   UNL     1       0.585  11.472  19.292  0.00  0.00    +0.000 OA
ATOM     32  H   UNL     1       0.981  12.228  19.740  0.00  0.00    +0.000 HD
ENDBRANCH  23  31
ENDBRANCH  21  28
ENDBRANCH  20  21
ENDBRANCH  19  20
ENDBRANCH  18  19
ENDBRANCH   1  18
TORSDOF 19
ENDMDL
MODEL 9
REMARK VINA RESULT:      -5.7      2.300      2.704
REMARK  Name = 
REMARK  20 active torsions:
REMARK  status: ('A' for Active; 'I' for Inactive)
REMARK    1  A    between atoms: C_1  and  C_2
REMARK    2  A    between atoms: C_2  and  C_3
REMARK    3  A    between atoms: C_4  and  O_5
REMARK    4  A    between atoms: N_10  and  C_11
REMARK    5  A    between atoms: C_11  and  C_12
REMARK    6  A    between atoms: C_12  and  C_13
REMARK    7  A    between atoms: C_13  and  C_14
REMARK    8  A    between atoms: C_14  and  C_15
REMARK    9  A    between atoms: C_15  and  C_16
REMARK   10  A    between atoms: C_16  and  C_17
REMARK   11  A    between atoms: C_17  and  C_18
REMARK   12  A    between atoms: C_18  and  C_19
REMARK   13  A    between atoms: C_19  and  C_20
REMARK   14  A    between atoms: C_20  and  O_21
REMARK   15  A    between atoms: O_21  and  C_22
REMARK   16  A    between atoms: C_22  and  C_24
REMARK   17  A    between atoms: C_24  and  C_25
REMARK   18  A    between atoms: C_25  and  C_26
REMARK   19  A    between atoms: C_26  and  C_28
REMARK   20  A    between atoms: C_28  and  N_29
REMARK                            x       y       z     vdW  Elec       q    Type
REMARK                         _______ _______ _______ _____ _____    ______ ____
ROOT
ATOM      1  C   UNL     1       2.259   6.703  20.155  0.00  0.00    +0.000 C 
ENDROOT
BRANCH   1   2
ATOM      2  C   UNL     1       1.814   5.400  19.487  0.00  0.00    +0.000 C 
BRANCH   2   3
ATOM      3  C   UNL     1       1.283   4.398  20.522  0.00  0.00    +0.000 C 
BRANCH   3   4
ATOM      4  C   UNL     1       1.119   2.976  19.945  0.00  0.00    +0.000 C 
BRANCH   4   5
ATOM      5  C   UNL     1       1.435   2.852  18.437  0.00  0.00    +0.000 C 
BRANCH   5   6
ATOM      6  C   UNL     1       2.676   1.990  18.169  0.00  0.00    +0.000 C 
BRANCH   6   7
ATOM      7  O   UNL     1       3.742   2.439  18.926  0.00  0.00    +0.000 OA
BRANCH   7   8
ATOM      8  C   UNL     1       4.603   3.420  18.534  0.00  0.00    +0.000 C 
ATOM      9  O   UNL     1       5.394   3.923  19.322  0.00  0.00    +0.000 OA
BRANCH   8  10
ATOM     10  C   UNL     1       4.589   3.896  17.112  0.00  0.00    +0.000 C 
BRANCH  10  11
ATOM     11  C   UNL     1       4.714   5.424  17.018  0.00  0.00    +0.000 C 
BRANCH  11  12
ATOM     12  C   UNL     1       6.089   5.917  16.626  0.00  0.00    +0.000 C 
ATOM     13  O   UNL     1       6.392   7.098  16.728  0.00  0.00    +0.000 OA
BRANCH  12  14
ATOM     14  C   UNL     1       7.105   4.941  16.108  0.00  0.00    +0.000 C 
BRANCH  14  15
ATOM     15  N   UNL     1       7.348   5.172  14.688  0.00  0.00    +0.000 NA
ATOM     16  H   UNL     1       7.247   4.266  14.174  0.00  0.00    +0.000 HD
ATOM     17  H   UNL     1       8.337   5.494  14.573  0.00  0.00    +0.000 HD
ENDBRANCH  14  15
ENDBRANCH  12  14
ENDBRANCH  11  12
ENDBRANCH  10  11
ENDBRANCH   8  10
ENDBRANCH   7   8
ENDBRANCH   6   7
ENDBRANCH   5   6
ENDBRANCH   4   5
ENDBRANCH   3   4
ENDBRANCH   2   3
ENDBRANCH   1   2
BRANCH   1  18
ATOM     18  C   UNL     1       1.134   7.261  21.030  0.00  0.00    +0.000 C 
BRANCH  18  19
ATOM     19  C   UNL     1       1.328   8.759  21.310  0.00  0.00    +0.000 C 
BRANCH  19  20
ATOM     20  C   UNL     1       0.069   9.590  21.001  0.00  0.00    +0.000 C 
BRANCH  20  21
ATOM     21  C   UNL     1       0.190  11.081  21.412  0.00  0.00    +0.000 C 
BRANCH  21  28
ATOM     22  C   UNL     1      -1.877  12.367  20.660  0.00  0.00    +0.000 A 
ATOM     23  C   UNL     1      -3.167  12.889  20.996  0.00  0.00    +0.000 A 
ATOM     24  C   UNL     1      -3.646  12.751  22.299  0.00  0.00    +0.000 A 
ATOM     25  O   UNL     1      -4.738  13.200  22.603  0.00  0.00    +0.000 OA
ATOM     26  C   UNL     1      -2.878  12.113  23.257  0.00  0.00    +0.000 A 
ATOM     27  C   UNL     1      -1.638  11.600  22.910  0.00  0.00    +0.000 A 
ATOM     28  N   UNL     1      -1.141  11.703  21.635  0.00  0.00    +0.000 N 
BRANCH  22  30
ATOM     29  C   UNL     1      -0.586  13.928  19.161  0.00  0.00    +0.000 C 
ATOM     30  C   UNL     1      -1.351  12.613  19.251  0.00  0.00    +0.000 C 
ENDBRANCH  22  30
BRANCH  23  31
ATOM     31  O   UNL     1      -3.953  13.537  20.104  0.00  0.00    +0.000 OA
ATOM     32  H   UNL     1      -3.794  14.421  19.754  0.00  0.00    +0.000 HD
ENDBRANCH  23  31
ENDBRANCH  21  28
ENDBRANCH  20  21
ENDBRANCH  19  20
ENDBRANCH  18  19
ENDBRANCH   1  18
TORSDOF 19
ENDMDL
