MODEL 1
REMARK VINA RESULT:      -7.6      0.000      0.000
REMARK  Name = 
REMARK  6 active torsions:
REMARK  status: ('A' for Active; 'I' for Inactive)
REMARK    1  A    between atoms: C_1  and  O_2
REMARK    2  A    between atoms: O_2  and  C_3
REMARK    3  A    between atoms: C_6  and  C_7
REMARK    4  A    between atoms: C_14  and  N_15
REMARK    5  A    between atoms: N_15  and  C_16
REMARK    6  A    between atoms: C_16  and  C_17
REMARK                            x       y       z     vdW  Elec       q    Type
REMARK                         _______ _______ _______ _____ _____    ______ ____
ROOT
ATOM      1  C   UNL     1       6.833   5.172  18.526  0.00  0.00    +0.000 A 
ATOM      2  C   UNL     1       7.874   4.542  17.881  0.00  0.00    +0.000 A 
ATOM      3  N   UNL     1       7.896   4.287  16.564  0.00  0.00    +0.000 NA
ATOM      4  C   UNL     1       6.812   4.662  15.855  0.00  0.00    +0.000 A 
ATOM      5  N   UNL     1       5.703   5.217  16.401  0.00  0.00    +0.000 NA
ATOM      6  C   UNL     1       5.722   5.471  17.727  0.00  0.00    +0.000 A 
ENDROOT
BRANCH   4   7
ATOM      7  C   UNL     1       6.895   4.523  14.381  0.00  0.00    +0.000 A 
ATOM      8  C   UNL     1       6.101   3.626  13.667  0.00  0.00    +0.000 A 
ATOM      9  C   UNL     1       6.188   3.591  12.274  0.00  0.00    +0.000 A 
ATOM     10  C   UNL     1       7.061   4.455  11.621  0.00  0.00    +0.000 A 
ATOM     11  C   UNL     1       7.820   5.310  12.390  0.00  0.00    +0.000 A 
ATOM     12  N   UNL     1       7.760   5.361  13.733  0.00  0.00    +0.000 NA
ENDBRANCH   4   7
BRANCH   1  14
ATOM     13  C   UNL     1       8.056   5.504  20.522  0.00  0.00    +0.000 C 
ATOM     14  O   UNL     1       6.796   5.474  19.859  0.00  0.00    +0.000 OA
ENDBRANCH   1  14
BRANCH   6  15
ATOM     15  N   UNL     1       4.594   6.033  18.338  0.00  0.00    +0.000 N 
ATOM     16  H   UNL     1       4.466   6.997  18.049  0.00  0.00    +0.000 HD
BRANCH  15  17
ATOM     17  C   UNL     1       3.383   5.242  18.498  0.00  0.00    +0.000 C 
BRANCH  17  18
ATOM     18  C   UNL     1       3.438   4.439  19.821  0.00  0.00    +0.000 C 
ATOM     19  C   UNL     1       2.264   4.767  20.764  0.00  0.00    +0.000 C 
ATOM     20  C   UNL     1       0.942   4.187  20.272  0.00  0.00    +0.000 C 
ATOM     21  C   UNL     1       1.043   2.674  20.133  0.00  0.00    +0.000 C 
ATOM     22  C   UNL     1       2.191   2.265  19.212  0.00  0.00    +0.000 C 
ATOM     23  C   UNL     1       3.521   2.920  19.591  0.00  0.00    +0.000 C 
ENDBRANCH  17  18
ENDBRANCH  15  17
ENDBRANCH   6  15
TORSDOF 5
ENDMDL
MODEL 2
REMARK VINA RESULT:      -7.6      1.095      1.486
REMARK  Name = 
REMARK  6 active torsions:
REMARK  status: ('A' for Active; 'I' for Inactive)
REMARK    1  A    between atoms: C_1  and  O_2
REMARK    2  A    between atoms: O_2  and  C_3
REMARK    3  A    between atoms: C_6  and  C_7
REMARK    4  A    between atoms: C_14  and  N_15
REMARK    5  A    between atoms: N_15  and  C_16
REMARK    6  A    between atoms: C_16  and  C_17
REMARK                            x       y       z     vdW  Elec       q    Type
REMARK                         _______ _______ _______ _____ _____    ______ ____
ROOT
ATOM      1  C   UNL     1       6.754   5.468  18.322  0.00  0.00    +0.000 A 
ATOM      2  C   UNL     1       7.484   6.190  17.406  0.00  0.00    +0.000 A 
ATOM      3  N   UNL     1       7.562   5.888  16.102  0.00  0.00    +0.000 NA
ATOM      4  C   UNL     1       6.890   4.793  15.692  0.00  0.00    +0.000 A 
ATOM      5  N   UNL     1       6.205   3.969  16.520  0.00  0.00    +0.000 NA
ATOM      6  C   UNL     1       6.138   4.311  17.824  0.00  0.00    +0.000 A 
ENDROOT
BRANCH   4   7
ATOM      7  C   UNL     1       6.846   4.542  14.231  0.00  0.00    +0.000 A 
ATOM      8  C   UNL     1       5.987   3.606  13.656  0.00  0.00    +0.000 A 
ATOM      9  C   UNL     1       5.955   3.466  12.267  0.00  0.00    +0.000 A 
ATOM     10  C   UNL     1       6.776   4.265  11.479  0.00  0.00    +0.000 A 
ATOM     11  C   UNL     1       7.606   5.164  12.115  0.00  0.00    +0.000 A 
ATOM     12  N   UNL     1       7.661   5.316  13.450  0.00  0.00    +0.000 NA
ENDBRANCH   4   7
BRANCH   1  14
ATOM     13  C   UNL     1       7.815   5.633  20.428  0.00  0.00    +0.000 C 
ATOM     14  O   UNL     1       6.629   5.769  19.651  0.00  0.00    +0.000 OA
ENDBRANCH   1  14
BRANCH   6  15
ATOM     15  N   UNL     1       5.451   3.484  18.721  0.00  0.00    +0.000 N 
ATOM     16  H   UNL     1       5.625   3.765  19.680  0.00  0.00    +0.000 HD
BRANCH  15  17
ATOM     17  C   UNL     1       4.099   3.040  18.414  0.00  0.00    +0.000 C 
BRANCH  17  18
ATOM     18  C   UNL     1       3.120   4.239  18.456  0.00  0.00    +0.000 C 
ATOM     19  C   UNL     1       1.691   3.853  18.027  0.00  0.00    +0.000 C 
ATOM     20  C   UNL     1       0.973   3.014  19.079  0.00  0.00    +0.000 C 
ATOM     21  C   UNL     1       0.895   3.768  20.399  0.00  0.00    +0.000 C 
ATOM     22  C   UNL     1       2.277   4.191  20.894  0.00  0.00    +0.000 C 
ATOM     23  C   UNL     1       3.089   4.933  19.829  0.00  0.00    +0.000 C 
ENDBRANCH  17  18
ENDBRANCH  15  17
ENDBRANCH   6  15
TORSDOF 5
ENDMDL
MODEL 3
REMARK VINA RESULT:      -7.5      2.561      5.542
REMARK  Name = 
REMARK  6 active torsions:
REMARK  status: ('A' for Active; 'I' for Inactive)
REMARK    1  A    between atoms: C_1  and  O_2
REMARK    2  A    between atoms: O_2  and  C_3
REMARK    3  A    between atoms: C_6  and  C_7
REMARK    4  A    between atoms: C_14  and  N_15
REMARK    5  A    between atoms: N_15  and  C_16
REMARK    6  A    between atoms: C_16  and  C_17
REMARK                            x       y       z     vdW  Elec       q    Type
REMARK                         _______ _______ _______ _____ _____    ______ ____
ROOT
ATOM      1  C   UNL     1       5.278   5.000  16.727  0.00  0.00    +0.000 A 
ATOM      2  C   UNL     1       5.160   6.297  16.281  0.00  0.00    +0.000 A 
ATOM      3  N   UNL     1       4.283   7.184  16.776  0.00  0.00    +0.000 NA
ATOM      4  C   UNL     1       3.466   6.747  17.756  0.00  0.00    +0.000 A 
ATOM      5  N   UNL     1       3.445   5.473  18.215  0.00  0.00    +0.000 NA
ATOM      6  C   UNL     1       4.350   4.611  17.703  0.00  0.00    +0.000 A 
ENDROOT
BRANCH   4   7
ATOM      7  C   UNL     1       2.604   7.761  18.411  0.00  0.00    +0.000 A 
ATOM      8  C   UNL     1       2.131   8.888  17.740  0.00  0.00    +0.000 A 
ATOM      9  C   UNL     1       1.273   9.770  18.401  0.00  0.00    +0.000 A 
ATOM     10  C   UNL     1       0.901   9.508  19.714  0.00  0.00    +0.000 A 
ATOM     11  C   UNL     1       1.412   8.379  20.318  0.00  0.00    +0.000 A 
ATOM     12  N   UNL     1       2.244   7.515  19.708  0.00  0.00    +0.000 NA
ENDBRANCH   4   7
BRANCH   1  14
ATOM     13  C   UNL     1       6.215   3.906  14.853  0.00  0.00    +0.000 C 
ATOM     14  O   UNL     1       6.182   4.083  16.266  0.00  0.00    +0.000 OA
ENDBRANCH   1  14
BRANCH   6  15
ATOM     15  N   UNL     1       4.358   3.280  18.137  0.00  0.00    +0.000 N 
ATOM     16  H   UNL     1       4.894   2.695  17.504  0.00  0.00    +0.000 HD
BRANCH  15  17
ATOM     17  C   UNL     1       4.484   2.978  19.556  0.00  0.00    +0.000 C 
BRANCH  17  18
ATOM     18  C   UNL     1       3.294   2.103  20.024  0.00  0.00    +0.000 C 
ATOM     19  C   UNL     1       2.692   2.586  21.358  0.00  0.00    +0.000 C 
ATOM     20  C   UNL     1       1.898   3.878  21.204  0.00  0.00    +0.000 C 
ATOM     21  C   UNL     1       0.767   3.693  20.201  0.00  0.00    +0.000 C 
ATOM     22  C   UNL     1       1.284   3.210  18.847  0.00  0.00    +0.000 C 
ATOM     23  C   UNL     1       2.190   1.982  18.959  0.00  0.00    +0.000 C 
ENDBRANCH  17  18
ENDBRANCH  15  17
ENDBRANCH   6  15
TORSDOF 5
ENDMDL
MODEL 4
REMARK VINA RESULT:      -7.5      1.610      2.180
REMARK  Name = 
REMARK  6 active torsions:
REMARK  status: ('A' for Active; 'I' for Inactive)
REMARK    1  A    between atoms: C_1  and  O_2
REMARK    2  A    between atoms: O_2  and  C_3
REMARK    3  A    between atoms: C_6  and  C_7
REMARK    4  A    between atoms: C_14  and  N_15
REMARK    5  A    between atoms: N_15  and  C_16
REMARK    6  A    between atoms: C_16  and  C_17
REMARK                            x       y       z     vdW  Elec       q    Type
REMARK                         _______ _______ _______ _____ _____    ______ ____
ROOT
ATOM      1  C   UNL     1       5.157   5.379  18.156  0.00  0.00    +0.000 A 
ATOM      2  C   UNL     1       5.976   6.274  17.504  0.00  0.00    +0.000 A 
ATOM      3  N   UNL     1       6.510   6.058  16.293  0.00  0.00    +0.000 NA
ATOM      4  C   UNL     1       6.230   4.875  15.708  0.00  0.00    +0.000 A 
ATOM      5  N   UNL     1       5.502   3.894  16.292  0.00  0.00    +0.000 NA
ATOM      6  C   UNL     1       4.968   4.152  17.505  0.00  0.00    +0.000 A 
ENDROOT
BRANCH   4   7
ATOM      7  C   UNL     1       6.689   4.694  14.310  0.00  0.00    +0.000 A 
ATOM      8  C   UNL     1       6.095   3.782  13.438  0.00  0.00    +0.000 A 
ATOM      9  C   UNL     1       6.540   3.708  12.116  0.00  0.00    +0.000 A 
ATOM     10  C   UNL     1       7.563   4.548  11.689  0.00  0.00    +0.000 A 
ATOM     11  C   UNL     1       8.109   5.419  12.607  0.00  0.00    +0.000 A 
ATOM     12  N   UNL     1       7.704   5.508  13.887  0.00  0.00    +0.000 NA
ENDBRANCH   4   7
BRANCH   1  14
ATOM     13  C   UNL     1       3.334   6.288  19.354  0.00  0.00    +0.000 C 
ATOM     14  O   UNL     1       4.572   5.584  19.374  0.00  0.00    +0.000 OA
ENDBRANCH   1  14
BRANCH   6  15
ATOM     15  N   UNL     1       4.218   3.164  18.154  0.00  0.00    +0.000 N 
ATOM     16  H   UNL     1       4.399   3.167  19.152  0.00  0.00    +0.000 HD
BRANCH  15  17
ATOM     17  C   UNL     1       2.843   2.911  17.749  0.00  0.00    +0.000 C 
BRANCH  17  18
ATOM     18  C   UNL     1       2.158   1.948  18.751  0.00  0.00    +0.000 C 
ATOM     19  C   UNL     1       2.974   1.760  20.045  0.00  0.00    +0.000 C 
ATOM     20  C   UNL     1       2.934   2.991  20.944  0.00  0.00    +0.000 C 
ATOM     21  C   UNL     1       1.498   3.329  21.321  0.00  0.00    +0.000 C 
ATOM     22  C   UNL     1       0.620   3.529  20.088  0.00  0.00    +0.000 C 
ATOM     23  C   UNL     1       0.718   2.371  19.093  0.00  0.00    +0.000 C 
ENDBRANCH  17  18
ENDBRANCH  15  17
ENDBRANCH   6  15
TORSDOF 5
ENDMDL
MODEL 5
REMARK VINA RESULT:      -7.5      0.947      1.592
REMARK  Name = 
REMARK  6 active torsions:
REMARK  status: ('A' for Active; 'I' for Inactive)
REMARK    1  A    between atoms: C_1  and  O_2
REMARK    2  A    between atoms: O_2  and  C_3
REMARK    3  A    between atoms: C_6  and  C_7
REMARK    4  A    between atoms: C_14  and  N_15
REMARK    5  A    between atoms: N_15  and  C_16
REMARK    6  A    between atoms: C_16  and  C_17
REMARK                            x       y       z     vdW  Elec       q    Type
REMARK                         _______ _______ _______ _____ _____    ______ ____
ROOT
ATOM      1  C   UNL     1       6.781   5.178  18.515  0.00  0.00    +0.000 A 
ATOM      2  C   UNL     1       7.827   4.609  17.823  0.00  0.00    +0.000 A 
ATOM      3  N   UNL     1       7.799   4.338  16.510  0.00  0.00    +0.000 NA
ATOM      4  C   UNL     1       6.658   4.631  15.855  0.00  0.00    +0.000 A 
ATOM      5  N   UNL     1       5.544   5.119  16.451  0.00  0.00    +0.000 NA
ATOM      6  C   UNL     1       5.613   5.392  17.771  0.00  0.00    +0.000 A 
ENDROOT
BRANCH   4   7
ATOM      7  C   UNL     1       6.675   4.477  14.380  0.00  0.00    +0.000 A 
ATOM      8  C   UNL     1       7.586   5.150  13.566  0.00  0.00    +0.000 A 
ATOM      9  C   UNL     1       7.585   4.910  12.191  0.00  0.00    +0.000 A 
ATOM     10  C   UNL     1       6.679   4.002  11.654  0.00  0.00    +0.000 A 
ATOM     11  C   UNL     1       5.802   3.379  12.516  0.00  0.00    +0.000 A 
ATOM     12  N   UNL     1       5.777   3.594  13.844  0.00  0.00    +0.000 NA
ENDBRANCH   4   7
BRANCH   1  14
ATOM     13  C   UNL     1       8.073   5.515  20.466  0.00  0.00    +0.000 C 
ATOM     14  O   UNL     1       6.791   5.495  19.846  0.00  0.00    +0.000 OA
ENDBRANCH   1  14
BRANCH   6  15
ATOM     15  N   UNL     1       4.483   5.887  18.434  0.00  0.00    +0.000 N 
ATOM     16  H   UNL     1       3.920   6.459  17.814  0.00  0.00    +0.000 HD
BRANCH  15  17
ATOM     17  C   UNL     1       3.756   5.037  19.366  0.00  0.00    +0.000 C 
BRANCH  17  18
ATOM     18  C   UNL     1       2.230   5.176  19.138  0.00  0.00    +0.000 C 
ATOM     19  C   UNL     1       1.755   4.468  17.855  0.00  0.00    +0.000 C 
ATOM     20  C   UNL     1       1.766   2.949  17.989  0.00  0.00    +0.000 C 
ATOM     21  C   UNL     1       0.874   2.510  19.143  0.00  0.00    +0.000 C 
ATOM     22  C   UNL     1       1.280   3.174  20.457  0.00  0.00    +0.000 C 
ATOM     23  C   UNL     1       1.403   4.695  20.343  0.00  0.00    +0.000 C 
ENDBRANCH  17  18
ENDBRANCH  15  17
ENDBRANCH   6  15
TORSDOF 5
ENDMDL
MODEL 6
REMARK VINA RESULT:      -7.4      2.574      5.412
REMARK  Name = 
REMARK  6 active torsions:
REMARK  status: ('A' for Active; 'I' for Inactive)
REMARK    1  A    between atoms: C_1  and  O_2
REMARK    2  A    between atoms: O_2  and  C_3
REMARK    3  A    between atoms: C_6  and  C_7
REMARK    4  A    between atoms: C_14  and  N_15
REMARK    5  A    between atoms: N_15  and  C_16
REMARK    6  A    between atoms: C_16  and  C_17
REMARK                            x       y       z     vdW  Elec       q    Type
REMARK                         _______ _______ _______ _____ _____    ______ ____
ROOT
ATOM      1  C   UNL     1       5.425   5.121  16.659  0.00  0.00    +0.000 A 
ATOM      2  C   UNL     1       5.212   6.378  16.138  0.00  0.00    +0.000 A 
ATOM      3  N   UNL     1       4.298   7.240  16.607  0.00  0.00    +0.000 NA
ATOM      4  C   UNL     1       3.540   6.818  17.640  0.00  0.00    +0.000 A 
ATOM      5  N   UNL     1       3.613   5.577  18.177  0.00  0.00    +0.000 NA
ATOM      6  C   UNL     1       4.553   4.741  17.689  0.00  0.00    +0.000 A 
ENDROOT
BRANCH   4   7
ATOM      7  C   UNL     1       2.637   7.818  18.260  0.00  0.00    +0.000 A 
ATOM      8  C   UNL     1       2.097   7.652  19.535  0.00  0.00    +0.000 A 
ATOM      9  C   UNL     1       1.304   8.663  20.081  0.00  0.00    +0.000 A 
ATOM     10  C   UNL     1       1.069   9.821  19.348  0.00  0.00    +0.000 A 
ATOM     11  C   UNL     1       1.628   9.914  18.091  0.00  0.00    +0.000 A 
ATOM     12  N   UNL     1       2.392   8.954  17.538  0.00  0.00    +0.000 NA
ENDBRANCH   4   7
BRANCH   1  14
ATOM     13  C   UNL     1       6.694   4.306  14.839  0.00  0.00    +0.000 C 
ATOM     14  O   UNL     1       6.369   4.233  16.224  0.00  0.00    +0.000 OA
ENDBRANCH   1  14
BRANCH   6  15
ATOM     15  N   UNL     1       4.658   3.443  18.204  0.00  0.00    +0.000 N 
ATOM     16  H   UNL     1       5.368   2.912  17.710  0.00  0.00    +0.000 HD
BRANCH  15  17
ATOM     17  C   UNL     1       4.570   3.220  19.640  0.00  0.00    +0.000 C 
BRANCH  17  18
ATOM     18  C   UNL     1       3.446   2.203  19.957  0.00  0.00    +0.000 C 
ATOM     19  C   UNL     1       2.740   2.497  21.294  0.00  0.00    +0.000 C 
ATOM     20  C   UNL     1       1.837   3.724  21.220  0.00  0.00    +0.000 C 
ATOM     21  C   UNL     1       0.778   3.542  20.142  0.00  0.00    +0.000 C 
ATOM     22  C   UNL     1       1.400   3.243  18.779  0.00  0.00    +0.000 C 
ATOM     23  C   UNL     1       2.409   2.093  18.825  0.00  0.00    +0.000 C 
ENDBRANCH  17  18
ENDBRANCH  15  17
ENDBRANCH   6  15
TORSDOF 5
ENDMDL
MODEL 7
REMARK VINA RESULT:      -7.4      1.616      2.130
REMARK  Name = 
REMARK  6 active torsions:
REMARK  status: ('A' for Active; 'I' for Inactive)
REMARK    1  A    between atoms: C_1  and  O_2
REMARK    2  A    between atoms: O_2  and  C_3
REMARK    3  A    between atoms: C_6  and  C_7
REMARK    4  A    between atoms: C_14  and  N_15
REMARK    5  A    between atoms: N_15  and  C_16
REMARK    6  A    between atoms: C_16  and  C_17
REMARK                            x       y       z     vdW  Elec       q    Type
REMARK                         _______ _______ _______ _____ _____    ______ ____
ROOT
ATOM      1  C   UNL     1       4.702   5.654  18.122  0.00  0.00    +0.000 A 
ATOM      2  C   UNL     1       4.841   6.582  17.114  0.00  0.00    +0.000 A 
ATOM      3  N   UNL     1       5.440   6.332  15.940  0.00  0.00    +0.000 NA
ATOM      4  C   UNL     1       5.947   5.093  15.770  0.00  0.00    +0.000 A 
ATOM      5  N   UNL     1       5.934   4.131  16.722  0.00  0.00    +0.000 NA
ATOM      6  C   UNL     1       5.311   4.413  17.886  0.00  0.00    +0.000 A 
ENDROOT
BRANCH   4   7
ATOM      7  C   UNL     1       6.471   4.765  14.422  0.00  0.00    +0.000 A 
ATOM      8  C   UNL     1       5.872   3.813  13.596  0.00  0.00    +0.000 A 
ATOM      9  C   UNL     1       6.384   3.599  12.315  0.00  0.00    +0.000 A 
ATOM     10  C   UNL     1       7.478   4.340  11.881  0.00  0.00    +0.000 A 
ATOM     11  C   UNL     1       8.024   5.257  12.753  0.00  0.00    +0.000 A 
ATOM     12  N   UNL     1       7.555   5.481  13.994  0.00  0.00    +0.000 NA
ENDBRANCH   4   7
BRANCH   1  14
ATOM     13  C   UNL     1       2.841   6.586  19.242  0.00  0.00    +0.000 C 
ATOM     14  O   UNL     1       4.070   5.869  19.315  0.00  0.00    +0.000 OA
ENDBRANCH   1  14
BRANCH   6  15
ATOM     15  N   UNL     1       5.283   3.454  18.905  0.00  0.00    +0.000 N 
ATOM     16  H   UNL     1       6.221   3.142  19.137  0.00  0.00    +0.000 HD
BRANCH  15  17
ATOM     17  C   UNL     1       4.360   3.603  20.021  0.00  0.00    +0.000 C 
BRANCH  17  18
ATOM     18  C   UNL     1       3.412   2.380  20.099  0.00  0.00    +0.000 C 
ATOM     19  C   UNL     1       2.271   2.579  21.115  0.00  0.00    +0.000 C 
ATOM     20  C   UNL     1       1.221   3.571  20.626  0.00  0.00    +0.000 C 
ATOM     21  C   UNL     1       0.620   3.105  19.307  0.00  0.00    +0.000 C 
ATOM     22  C   UNL     1       1.693   2.881  18.243  0.00  0.00    +0.000 C 
ATOM     23  C   UNL     1       2.835   1.986  18.728  0.00  0.00    +0.000 C 
ENDBRANCH  17  18
ENDBRANCH  15  17
ENDBRANCH   6  15
TORSDOF 5
ENDMDL
MODEL 8
REMARK VINA RESULT:      -7.4      0.793      1.239
REMARK  Name = 
REMARK  6 active torsions:
REMARK  status: ('A' for Active; 'I' for Inactive)
REMARK    1  A    between atoms: C_1  and  O_2
REMARK    2  A    between atoms: O_2  and  C_3
REMARK    3  A    between atoms: C_6  and  C_7
REMARK    4  A    between atoms: C_14  and  N_15
REMARK    5  A    between atoms: N_15  and  C_16
REMARK    6  A    between atoms: C_16  and  C_17
REMARK                            x       y       z     vdW  Elec       q    Type
REMARK                         _______ _______ _______ _____ _____    ______ ____
ROOT
ATOM      1  C   UNL     1       6.822   5.151  18.558  0.00  0.00    +0.000 A 
ATOM      2  C   UNL     1       7.896   4.581  17.911  0.00  0.00    +0.000 A 
ATOM      3  N   UNL     1       7.935   4.337  16.593  0.00  0.00    +0.000 NA
ATOM      4  C   UNL     1       6.835   4.662  15.883  0.00  0.00    +0.000 A 
ATOM      5  N   UNL     1       5.698   5.156  16.428  0.00  0.00    +0.000 NA
ATOM      6  C   UNL     1       5.699   5.400  17.756  0.00  0.00    +0.000 A 
ENDROOT
BRANCH   4   7
ATOM      7  C   UNL     1       6.929   4.538  14.408  0.00  0.00    +0.000 A 
ATOM      8  C   UNL     1       6.140   3.650  13.678  0.00  0.00    +0.000 A 
ATOM      9  C   UNL     1       6.238   3.631  12.285  0.00  0.00    +0.000 A 
ATOM     10  C   UNL     1       7.117   4.500  11.648  0.00  0.00    +0.000 A 
ATOM     11  C   UNL     1       7.872   5.345  12.433  0.00  0.00    +0.000 A 
ATOM     12  N   UNL     1       7.802   5.382  13.776  0.00  0.00    +0.000 NA
ENDBRANCH   4   7
BRANCH   1  14
ATOM     13  C   UNL     1       8.014   5.451  20.577  0.00  0.00    +0.000 C 
ATOM     14  O   UNL     1       6.765   5.441  19.893  0.00  0.00    +0.000 OA
ENDBRANCH   1  14
BRANCH   6  15
ATOM     15  N   UNL     1       4.543   5.899  18.368  0.00  0.00    +0.000 N 
ATOM     16  H   UNL     1       4.673   6.863  18.659  0.00  0.00    +0.000 HD
BRANCH  15  17
ATOM     17  C   UNL     1       3.232   5.558  17.835  0.00  0.00    +0.000 C 
BRANCH  17  18
ATOM     18  C   UNL     1       2.421   4.754  18.881  0.00  0.00    +0.000 C 
ATOM     19  C   UNL     1       1.478   3.721  18.235  0.00  0.00    +0.000 C 
ATOM     20  C   UNL     1       2.232   2.527  17.655  0.00  0.00    +0.000 C 
ATOM     21  C   UNL     1       3.043   1.832  18.741  0.00  0.00    +0.000 C 
ATOM     22  C   UNL     1       4.004   2.794  19.435  0.00  0.00    +0.000 C 
ATOM     23  C   UNL     1       3.316   4.069  19.929  0.00  0.00    +0.000 C 
ENDBRANCH  17  18
ENDBRANCH  15  17
ENDBRANCH   6  15
TORSDOF 5
ENDMDL
MODEL 9
REMARK VINA RESULT:      -7.4      2.707      6.682
REMARK  Name = 
REMARK  6 active torsions:
REMARK  status: ('A' for Active; 'I' for Inactive)
REMARK    1  A    between atoms: C_1  and  O_2
REMARK    2  A    between atoms: O_2  and  C_3
REMARK    3  A    between atoms: C_6  and  C_7
REMARK    4  A    between atoms: C_14  and  N_15
REMARK    5  A    between atoms: N_15  and  C_16
REMARK    6  A    between atoms: C_16  and  C_17
REMARK                            x       y       z     vdW  Elec       q    Type
REMARK                         _______ _______ _______ _____ _____    ______ ____
ROOT
ATOM      1  C   UNL     1       3.567   3.441  19.700  0.00  0.00    +0.000 A 
ATOM      2  C   UNL     1       2.297   3.828  20.068  0.00  0.00    +0.000 A 
ATOM      3  N   UNL     1       1.852   5.091  20.014  0.00  0.00    +0.000 NA
ATOM      4  C   UNL     1       2.727   6.025  19.589  0.00  0.00    +0.000 A 
ATOM      5  N   UNL     1       4.019   5.768  19.276  0.00  0.00    +0.000 NA
ATOM      6  C   UNL     1       4.429   4.483  19.329  0.00  0.00    +0.000 A 
ENDROOT
BRANCH   4   7
ATOM      7  C   UNL     1       2.196   7.394  19.381  0.00  0.00    +0.000 A 
ATOM      8  C   UNL     1       2.281   8.053  18.154  0.00  0.00    +0.000 A 
ATOM      9  C   UNL     1       1.705   9.318  18.014  0.00  0.00    +0.000 A 
ATOM     10  C   UNL     1       1.052   9.897  19.096  0.00  0.00    +0.000 A 
ATOM     11  C   UNL     1       1.014   9.193  20.280  0.00  0.00    +0.000 A 
ATOM     12  N   UNL     1       1.564   7.976  20.445  0.00  0.00    +0.000 NA
ENDBRANCH   4   7
BRANCH   1  14
ATOM     13  C   UNL     1       3.674   1.354  18.596  0.00  0.00    +0.000 C 
ATOM     14  O   UNL     1       4.040   2.158  19.713  0.00  0.00    +0.000 OA
ENDBRANCH   1  14
BRANCH   6  15
ATOM     15  N   UNL     1       5.760   4.169  19.027  0.00  0.00    +0.000 N 
ATOM     16  H   UNL     1       5.818   3.611  18.181  0.00  0.00    +0.000 HD
BRANCH  15  17
ATOM     17  C   UNL     1       6.804   5.166  19.215  0.00  0.00    +0.000 C 
BRANCH  17  18
ATOM     18  C   UNL     1       7.487   5.488  17.863  0.00  0.00    +0.000 C 
ATOM     19  C   UNL     1       7.216   4.415  16.791  0.00  0.00    +0.000 C 
ATOM     20  C   UNL     1       5.783   4.462  16.269  0.00  0.00    +0.000 C 
ATOM     21  C   UNL     1       5.477   5.831  15.674  0.00  0.00    +0.000 C 
ATOM     22  C   UNL     1       5.726   6.954  16.679  0.00  0.00    +0.000 C 
ATOM     23  C   UNL     1       7.111   6.880  17.324  0.00  0.00    +0.000 C 
ENDBRANCH  17  18
ENDBRANCH  15  17
ENDBRANCH   6  15
TORSDOF 5
ENDMDL
