MODEL 1
REMARK VINA RESULT:      -8.0      0.000      0.000
REMARK  Name = 
REMARK  7 active torsions:
REMARK  status: ('A' for Active; 'I' for Inactive)
REMARK    1  A    between atoms: C_1  and  O_2
REMARK    2  A    between atoms: O_2  and  C_3
REMARK    3  A    between atoms: C_6  and  C_7
REMARK    4  A    between atoms: C_11  and  C_12
REMARK    5  A    between atoms: C_15  and  N_16
REMARK    6  A    between atoms: N_19  and  C_20
REMARK    7  A    between atoms: C_23  and  N_24
REMARK                            x       y       z     vdW  Elec       q    Type
REMARK                         _______ _______ _______ _____ _____    ______ ____
ROOT
ATOM      1  C   UNL     1       3.364   6.916  18.268  0.00  0.00    +0.000 A 
ATOM      2  C   UNL     1       2.742   8.109  17.921  0.00  0.00    +0.000 A 
ATOM      3  N   UNL     1       1.932   8.375  18.976  0.00  0.00    +0.000 N 
ATOM      4  N   UNL     1       1.145   9.437  19.269  0.00  0.00    +0.000 NA
ATOM      5  C   UNL     1       0.640   9.184  20.444  0.00  0.00    +0.000 A 
ATOM      6  S   UNL     1       1.088   7.644  21.230  0.00  0.00    +0.000 S 
ATOM      7  C   UNL     1       2.063   7.356  19.858  0.00  0.00    +0.000 A 
ATOM      8  N   UNL     1       2.925   6.450  19.499  0.00  0.00    +0.000 NA
ENDROOT
BRANCH   1  12
ATOM      9  C   UNL     1       6.388   5.012  15.942  0.00  0.00    +0.000 A 
ATOM     10  C   UNL     1       6.575   6.306  16.431  0.00  0.00    +0.000 A 
ATOM     11  C   UNL     1       5.591   6.915  17.212  0.00  0.00    +0.000 A 
ATOM     12  C   UNL     1       4.392   6.249  17.491  0.00  0.00    +0.000 A 
ATOM     13  C   UNL     1       4.205   4.956  16.989  0.00  0.00    +0.000 A 
ATOM     14  C   UNL     1       5.197   4.342  16.218  0.00  0.00    +0.000 A 
BRANCH   9  16
ATOM     15  C   UNL     1       7.283   4.737  13.776  0.00  0.00    +0.000 C 
ATOM     16  O   UNL     1       7.408   4.518  15.177  0.00  0.00    +0.000 OA
ENDBRANCH   9  16
ENDBRANCH   1  12
BRANCH   5  17
ATOM     17  C   UNL     1      -0.215  10.140  21.175  0.00  0.00    +0.000 A 
ATOM     18  C   UNL     1      -0.433  10.059  22.549  0.00  0.00    +0.000 A 
ATOM     19  C   UNL     1      -1.209  11.030  23.202  0.00  0.00    +0.000 A 
ATOM     20  C   UNL     1      -1.795  12.119  22.525  0.00  0.00    +0.000 A 
ATOM     21  C   UNL     1      -1.578  12.139  21.128  0.00  0.00    +0.000 A 
ATOM     22  C   UNL     1      -0.806  11.174  20.455  0.00  0.00    +0.000 A 
BRANCH  20  23
ATOM     23  N   UNL     1      -2.551  13.051  23.218  0.00  0.00    +0.000 N 
ATOM     24  C   UNL     1      -3.830  12.699  23.871  0.00  0.00    +0.000 C 
ATOM     25  C   UNL     1      -4.764  13.935  23.879  0.00  0.00    +0.000 C 
ATOM     26  N   UNL     1      -4.148  15.130  24.503  0.00  0.00    +0.000 NA
ATOM     27  C   UNL     1      -5.036  16.284  24.377  0.00  0.00    +0.000 C 
ATOM     28  C   UNL     1      -2.850  15.414  23.845  0.00  0.00    +0.000 C 
ATOM     29  C   UNL     1      -1.899  14.196  23.891  0.00  0.00    +0.000 C 
ENDBRANCH  20  23
BRANCH  21  30
ATOM     30  N   UNL     1      -2.181  13.148  20.274  0.00  0.00    +0.000 N 
ATOM     31  O   UNL     1      -3.343  12.966  19.884  0.00  0.00    +0.000 OA
ATOM     32  O   UNL     1      -1.464  14.109  19.962  0.00  0.00    +0.000 OA
ENDBRANCH  21  30
ENDBRANCH   5  17
TORSDOF 5
ENDMDL
MODEL 2
REMARK VINA RESULT:      -7.9      1.104      1.537
REMARK  Name = 
REMARK  7 active torsions:
REMARK  status: ('A' for Active; 'I' for Inactive)
REMARK    1  A    between atoms: C_1  and  O_2
REMARK    2  A    between atoms: O_2  and  C_3
REMARK    3  A    between atoms: C_6  and  C_7
REMARK    4  A    between atoms: C_11  and  C_12
REMARK    5  A    between atoms: C_15  and  N_16
REMARK    6  A    between atoms: N_19  and  C_20
REMARK    7  A    between atoms: C_23  and  N_24
REMARK                            x       y       z     vdW  Elec       q    Type
REMARK                         _______ _______ _______ _____ _____    ______ ____
ROOT
ATOM      1  C   UNL     1       2.866   6.996  18.341  0.00  0.00    +0.000 A 
ATOM      2  C   UNL     1       2.241   8.176  17.957  0.00  0.00    +0.000 A 
ATOM      3  N   UNL     1       1.614   8.597  19.084  0.00  0.00    +0.000 N 
ATOM      4  N   UNL     1       0.920   9.724  19.368  0.00  0.00    +0.000 NA
ATOM      5  C   UNL     1       0.595   9.627  20.627  0.00  0.00    +0.000 A 
ATOM      6  S   UNL     1       1.104   8.158  21.508  0.00  0.00    +0.000 S 
ATOM      7  C   UNL     1       1.843   7.673  20.047  0.00  0.00    +0.000 A 
ATOM      8  N   UNL     1       2.607   6.689  19.669  0.00  0.00    +0.000 NA
ENDROOT
BRANCH   1  12
ATOM      9  C   UNL     1       5.437   4.605  15.923  0.00  0.00    +0.000 A 
ATOM     10  C   UNL     1       4.440   4.015  16.700  0.00  0.00    +0.000 A 
ATOM     11  C   UNL     1       3.585   4.805  17.472  0.00  0.00    +0.000 A 
ATOM     12  C   UNL     1       3.736   6.196  17.500  0.00  0.00    +0.000 A 
ATOM     13  C   UNL     1       4.745   6.782  16.727  0.00  0.00    +0.000 A 
ATOM     14  C   UNL     1       5.592   5.991  15.944  0.00  0.00    +0.000 A 
BRANCH   9  16
ATOM     15  C   UNL     1       6.301   3.981  13.818  0.00  0.00    +0.000 C 
ATOM     16  O   UNL     1       6.226   3.738  15.218  0.00  0.00    +0.000 OA
ENDBRANCH   9  16
ENDBRANCH   1  12
BRANCH   5  17
ATOM     17  C   UNL     1      -0.101  10.700  21.364  0.00  0.00    +0.000 A 
ATOM     18  C   UNL     1      -0.804  10.471  22.545  0.00  0.00    +0.000 A 
ATOM     19  C   UNL     1      -1.398  11.540  23.234  0.00  0.00    +0.000 A 
ATOM     20  C   UNL     1      -1.319  12.874  22.786  0.00  0.00    +0.000 A 
ATOM     21  C   UNL     1      -0.630  13.053  21.565  0.00  0.00    +0.000 A 
ATOM     22  C   UNL     1      -0.029  11.995  20.858  0.00  0.00    +0.000 A 
BRANCH  20  23
ATOM     23  N   UNL     1      -1.922  13.893  23.506  0.00  0.00    +0.000 N 
ATOM     24  C   UNL     1      -3.260  13.738  24.118  0.00  0.00    +0.000 C 
ATOM     25  C   UNL     1      -3.970  15.115  24.164  0.00  0.00    +0.000 C 
ATOM     26  N   UNL     1      -3.175  16.159  24.854  0.00  0.00    +0.000 NA
ATOM     27  C   UNL     1      -3.849  17.454  24.764  0.00  0.00    +0.000 C 
ATOM     28  C   UNL     1      -1.831  16.243  24.235  0.00  0.00    +0.000 C 
ATOM     29  C   UNL     1      -1.103  14.880  24.243  0.00  0.00    +0.000 C 
ENDBRANCH  20  23
BRANCH  21  30
ATOM     30  N   UNL     1      -0.528  14.354  20.926  0.00  0.00    +0.000 N 
ATOM     31  O   UNL     1       0.522  14.995  21.069  0.00  0.00    +0.000 OA
ATOM     32  O   UNL     1      -1.528  14.748  20.310  0.00  0.00    +0.000 OA
ENDBRANCH  21  30
ENDBRANCH   5  17
TORSDOF 5
ENDMDL
MODEL 3
REMARK VINA RESULT:      -7.8      1.658      2.167
REMARK  Name = 
REMARK  7 active torsions:
REMARK  status: ('A' for Active; 'I' for Inactive)
REMARK    1  A    between atoms: C_1  and  O_2
REMARK    2  A    between atoms: O_2  and  C_3
REMARK    3  A    between atoms: C_6  and  C_7
REMARK    4  A    between atoms: C_11  and  C_12
REMARK    5  A    between atoms: C_15  and  N_16
REMARK    6  A    between atoms: N_19  and  C_20
REMARK    7  A    between atoms: C_23  and  N_24
REMARK                            x       y       z     vdW  Elec       q    Type
REMARK                         _______ _______ _______ _____ _____    ______ ____
ROOT
ATOM      1  C   UNL     1       2.454   7.516  18.714  0.00  0.00    +0.000 A 
ATOM      2  C   UNL     1       1.934   8.717  18.247  0.00  0.00    +0.000 A 
ATOM      3  N   UNL     1       1.311   9.248  19.328  0.00  0.00    +0.000 N 
ATOM      4  N   UNL     1       0.700  10.440  19.528  0.00  0.00    +0.000 NA
ATOM      5  C   UNL     1       0.333  10.439  20.780  0.00  0.00    +0.000 A 
ATOM      6  S   UNL     1       0.701   8.988  21.755  0.00  0.00    +0.000 S 
ATOM      7  C   UNL     1       1.441   8.366  20.347  0.00  0.00    +0.000 A 
ATOM      8  N   UNL     1       2.135   7.306  20.048  0.00  0.00    +0.000 NA
ENDROOT
BRANCH   1  12
ATOM      9  C   UNL     1       4.875   4.879  16.401  0.00  0.00    +0.000 A 
ATOM     10  C   UNL     1       5.099   6.256  16.375  0.00  0.00    +0.000 A 
ATOM     11  C   UNL     1       4.318   7.113  17.153  0.00  0.00    +0.000 A 
ATOM     12  C   UNL     1       3.281   6.606  17.946  0.00  0.00    +0.000 A 
ATOM     13  C   UNL     1       3.055   5.225  17.959  0.00  0.00    +0.000 A 
ATOM     14  C   UNL     1       3.846   4.366  17.190  0.00  0.00    +0.000 A 
BRANCH   9  16
ATOM     15  C   UNL     1       7.003   4.648  15.407  0.00  0.00    +0.000 C 
ATOM     16  O   UNL     1       5.688   4.135  15.590  0.00  0.00    +0.000 OA
ENDBRANCH   9  16
ENDBRANCH   1  12
BRANCH   5  17
ATOM     17  C   UNL     1      -0.296  11.603  21.435  0.00  0.00    +0.000 A 
ATOM     18  C   UNL     1       0.350  12.829  21.578  0.00  0.00    +0.000 A 
ATOM     19  C   UNL     1      -0.319  13.919  22.158  0.00  0.00    +0.000 A 
ATOM     20  C   UNL     1      -1.650  13.841  22.614  0.00  0.00    +0.000 A 
ATOM     21  C   UNL     1      -2.252  12.568  22.483  0.00  0.00    +0.000 A 
ATOM     22  C   UNL     1      -1.598  11.463  21.907  0.00  0.00    +0.000 A 
BRANCH  20  23
ATOM     23  N   UNL     1      -2.264  14.948  23.177  0.00  0.00    +0.000 N 
ATOM     24  C   UNL     1      -1.709  15.639  24.360  0.00  0.00    +0.000 C 
ATOM     25  C   UNL     1      -2.864  16.264  25.184  0.00  0.00    +0.000 C 
ATOM     26  N   UNL     1      -3.730  17.164  24.387  0.00  0.00    +0.000 NA
ATOM     27  C   UNL     1      -4.859  17.628  25.193  0.00  0.00    +0.000 C 
ATOM     28  C   UNL     1      -4.224  16.440  23.192  0.00  0.00    +0.000 C 
ATOM     29  C   UNL     1      -3.066  15.869  22.341  0.00  0.00    +0.000 C 
ENDBRANCH  20  23
BRANCH  21  30
ATOM     30  N   UNL     1      -3.591  12.299  22.978  0.00  0.00    +0.000 N 
ATOM     31  O   UNL     1      -4.543  12.452  22.200  0.00  0.00    +0.000 OA
ATOM     32  O   UNL     1      -3.686  11.972  24.169  0.00  0.00    +0.000 OA
ENDBRANCH  21  30
ENDBRANCH   5  17
TORSDOF 5
ENDMDL
MODEL 4
REMARK VINA RESULT:      -7.8      1.069      1.150
REMARK  Name = 
REMARK  7 active torsions:
REMARK  status: ('A' for Active; 'I' for Inactive)
REMARK    1  A    between atoms: C_1  and  O_2
REMARK    2  A    between atoms: O_2  and  C_3
REMARK    3  A    between atoms: C_6  and  C_7
REMARK    4  A    between atoms: C_11  and  C_12
REMARK    5  A    between atoms: C_15  and  N_16
REMARK    6  A    between atoms: N_19  and  C_20
REMARK    7  A    between atoms: C_23  and  N_24
REMARK                            x       y       z     vdW  Elec       q    Type
REMARK                         _______ _______ _______ _____ _____    ______ ____
ROOT
ATOM      1  C   UNL     1       2.914   6.950  18.346  0.00  0.00    +0.000 A 
ATOM      2  C   UNL     1       2.319   8.141  17.949  0.00  0.00    +0.000 A 
ATOM      3  N   UNL     1       1.656   8.562  19.054  0.00  0.00    +0.000 N 
ATOM      4  N   UNL     1       0.966   9.697  19.320  0.00  0.00    +0.000 NA
ATOM      5  C   UNL     1       0.592   9.594  20.565  0.00  0.00    +0.000 A 
ATOM      6  S   UNL     1       1.048   8.113  21.453  0.00  0.00    +0.000 S 
ATOM      7  C   UNL     1       1.836   7.629  20.018  0.00  0.00    +0.000 A 
ATOM      8  N   UNL     1       2.600   6.637  19.661  0.00  0.00    +0.000 NA
ENDROOT
BRANCH   1  12
ATOM      9  C   UNL     1       5.518   4.624  15.901  0.00  0.00    +0.000 A 
ATOM     10  C   UNL     1       5.657   6.011  15.970  0.00  0.00    +0.000 A 
ATOM     11  C   UNL     1       4.816   6.766  16.791  0.00  0.00    +0.000 A 
ATOM     12  C   UNL     1       3.804   6.145  17.533  0.00  0.00    +0.000 A 
ATOM     13  C   UNL     1       3.664   4.755  17.452  0.00  0.00    +0.000 A 
ATOM     14  C   UNL     1       4.515   3.999  16.640  0.00  0.00    +0.000 A 
BRANCH   9  16
ATOM     15  C   UNL     1       5.988   3.951  13.689  0.00  0.00    +0.000 C 
ATOM     16  O   UNL     1       6.385   3.987  15.056  0.00  0.00    +0.000 OA
ENDBRANCH   9  16
ENDBRANCH   1  12
BRANCH   5  17
ATOM     17  C   UNL     1      -0.117  10.672  21.284  0.00  0.00    +0.000 A 
ATOM     18  C   UNL     1      -0.843  10.449  22.452  0.00  0.00    +0.000 A 
ATOM     19  C   UNL     1      -1.450  11.522  23.125  0.00  0.00    +0.000 A 
ATOM     20  C   UNL     1      -1.360  12.853  22.672  0.00  0.00    +0.000 A 
ATOM     21  C   UNL     1      -0.647  13.026  21.464  0.00  0.00    +0.000 A 
ATOM     22  C   UNL     1      -0.034  11.964  20.773  0.00  0.00    +0.000 A 
BRANCH  20  23
ATOM     23  N   UNL     1      -1.977  13.876  23.376  0.00  0.00    +0.000 N 
ATOM     24  C   UNL     1      -3.314  13.716  23.985  0.00  0.00    +0.000 C 
ATOM     25  C   UNL     1      -4.039  15.086  24.010  0.00  0.00    +0.000 C 
ATOM     26  N   UNL     1      -3.257  16.148  24.687  0.00  0.00    +0.000 NA
ATOM     27  C   UNL     1      -3.945  17.434  24.577  0.00  0.00    +0.000 C 
ATOM     28  C   UNL     1      -1.912  16.237  24.072  0.00  0.00    +0.000 C 
ATOM     29  C   UNL     1      -1.170  14.882  24.102  0.00  0.00    +0.000 C 
ENDBRANCH  20  23
BRANCH  21  30
ATOM     30  N   UNL     1      -0.532  14.324  20.821  0.00  0.00    +0.000 N 
ATOM     31  O   UNL     1      -1.502  14.744  20.175  0.00  0.00    +0.000 OA
ATOM     32  O   UNL     1       0.556  14.904  20.937  0.00  0.00    +0.000 OA
ENDBRANCH  21  30
ENDBRANCH   5  17
TORSDOF 5
ENDMDL
MODEL 5
REMARK VINA RESULT:      -7.7      1.656      1.991
REMARK  Name = 
REMARK  7 active torsions:
REMARK  status: ('A' for Active; 'I' for Inactive)
REMARK    1  A    between atoms: C_1  and  O_2
REMARK    2  A    between atoms: O_2  and  C_3
REMARK    3  A    between atoms: C_6  and  C_7
REMARK    4  A    between atoms: C_11  and  C_12
REMARK    5  A    between atoms: C_15  and  N_16
REMARK    6  A    between atoms: N_19  and  C_20
REMARK    7  A    between atoms: C_23  and  N_24
REMARK                            x       y       z     vdW  Elec       q    Type
REMARK                         _______ _______ _______ _____ _____    ______ ____
ROOT
ATOM      1  C   UNL     1       2.736   7.083  18.570  0.00  0.00    +0.000 A 
ATOM      2  C   UNL     1       2.181   8.260  18.083  0.00  0.00    +0.000 A 
ATOM      3  N   UNL     1       1.577   8.812  19.164  0.00  0.00    +0.000 N 
ATOM      4  N   UNL     1       0.949   9.997  19.346  0.00  0.00    +0.000 NA
ATOM      5  C   UNL     1       0.615  10.027  20.606  0.00  0.00    +0.000 A 
ATOM      6  S   UNL     1       1.035   8.613  21.613  0.00  0.00    +0.000 S 
ATOM      7  C   UNL     1       1.750   7.963  20.205  0.00  0.00    +0.000 A 
ATOM      8  N   UNL     1       2.456   6.907  19.918  0.00  0.00    +0.000 NA
ENDROOT
BRANCH   1  12
ATOM      9  C   UNL     1       5.149   4.425  16.273  0.00  0.00    +0.000 A 
ATOM     10  C   UNL     1       5.391   5.799  16.256  0.00  0.00    +0.000 A 
ATOM     11  C   UNL     1       4.612   6.663  17.029  0.00  0.00    +0.000 A 
ATOM     12  C   UNL     1       3.560   6.166  17.808  0.00  0.00    +0.000 A 
ATOM     13  C   UNL     1       3.317   4.788  17.813  0.00  0.00    +0.000 A 
ATOM     14  C   UNL     1       4.105   3.922  17.048  0.00  0.00    +0.000 A 
BRANCH   9  16
ATOM     15  C   UNL     1       6.715   4.406  14.507  0.00  0.00    +0.000 C 
ATOM     16  O   UNL     1       5.962   3.674  15.468  0.00  0.00    +0.000 OA
ENDBRANCH   9  16
ENDBRANCH   1  12
BRANCH   5  17
ATOM     17  C   UNL     1      -0.020  11.198  21.242  0.00  0.00    +0.000 A 
ATOM     18  C   UNL     1      -1.216  11.115  21.953  0.00  0.00    +0.000 A 
ATOM     19  C   UNL     1      -1.744  12.251  22.587  0.00  0.00    +0.000 A 
ATOM     20  C   UNL     1      -1.111  13.509  22.546  0.00  0.00    +0.000 A 
ATOM     21  C   UNL     1       0.079  13.555  21.783  0.00  0.00    +0.000 A 
ATOM     22  C   UNL     1       0.623  12.429  21.139  0.00  0.00    +0.000 A 
BRANCH  20  23
ATOM     23  N   UNL     1      -1.674  14.598  23.192  0.00  0.00    +0.000 N 
ATOM     24  C   UNL     1      -1.160  15.098  24.486  0.00  0.00    +0.000 C 
ATOM     25  C   UNL     1      -2.322  15.730  25.295  0.00  0.00    +0.000 C 
ATOM     26  N   UNL     1      -3.043  16.790  24.551  0.00  0.00    +0.000 NA
ATOM     27  C   UNL     1      -4.190  17.263  25.325  0.00  0.00    +0.000 C 
ATOM     28  C   UNL     1      -3.497  16.254  23.246  0.00  0.00    +0.000 C 
ATOM     29  C   UNL     1      -2.326  15.677  22.418  0.00  0.00    +0.000 C 
ENDBRANCH  20  23
BRANCH  21  30
ATOM     30  N   UNL     1       0.808  14.793  21.576  0.00  0.00    +0.000 N 
ATOM     31  O   UNL     1       0.571  15.447  20.550  0.00  0.00    +0.000 OA
ATOM     32  O   UNL     1       1.653  15.089  22.432  0.00  0.00    +0.000 OA
ENDBRANCH  21  30
ENDBRANCH   5  17
TORSDOF 5
ENDMDL
MODEL 6
REMARK VINA RESULT:      -7.6      1.327      1.568
REMARK  Name = 
REMARK  7 active torsions:
REMARK  status: ('A' for Active; 'I' for Inactive)
REMARK    1  A    between atoms: C_1  and  O_2
REMARK    2  A    between atoms: O_2  and  C_3
REMARK    3  A    between atoms: C_6  and  C_7
REMARK    4  A    between atoms: C_11  and  C_12
REMARK    5  A    between atoms: C_15  and  N_16
REMARK    6  A    between atoms: N_19  and  C_20
REMARK    7  A    between atoms: C_23  and  N_24
REMARK                            x       y       z     vdW  Elec       q    Type
REMARK                         _______ _______ _______ _____ _____    ______ ____
ROOT
ATOM      1  C   UNL     1       2.868   7.403  18.240  0.00  0.00    +0.000 A 
ATOM      2  C   UNL     1       2.360   7.343  19.532  0.00  0.00    +0.000 A 
ATOM      3  N   UNL     1       1.671   8.502  19.668  0.00  0.00    +0.000 N 
ATOM      4  N   UNL     1       0.885   8.978  20.664  0.00  0.00    +0.000 NA
ATOM      5  C   UNL     1       0.428  10.120  20.232  0.00  0.00    +0.000 A 
ATOM      6  S   UNL     1       0.946  10.667  18.612  0.00  0.00    +0.000 S 
ATOM      7  C   UNL     1       1.818   9.202  18.519  0.00  0.00    +0.000 A 
ATOM      8  N   UNL     1       2.515   8.587  17.608  0.00  0.00    +0.000 NA
ENDROOT
BRANCH   1  12
ATOM      9  C   UNL     1       5.075   4.344  16.255  0.00  0.00    +0.000 A 
ATOM     10  C   UNL     1       5.400   5.689  16.071  0.00  0.00    +0.000 A 
ATOM     11  C   UNL     1       4.688   6.685  16.742  0.00  0.00    +0.000 A 
ATOM     12  C   UNL     1       3.622   6.352  17.585  0.00  0.00    +0.000 A 
ATOM     13  C   UNL     1       3.293   5.002  17.757  0.00  0.00    +0.000 A 
ATOM     14  C   UNL     1       4.015   4.004  17.094  0.00  0.00    +0.000 A 
BRANCH   9  16
ATOM     15  C   UNL     1       6.399   3.963  14.339  0.00  0.00    +0.000 C 
ATOM     16  O   UNL     1       5.826   3.453  15.538  0.00  0.00    +0.000 OA
ENDBRANCH   9  16
ENDBRANCH   1  12
BRANCH   5  17
ATOM     17  C   UNL     1      -0.548  10.933  20.985  0.00  0.00    +0.000 A 
ATOM     18  C   UNL     1      -0.490  11.090  22.369  0.00  0.00    +0.000 A 
ATOM     19  C   UNL     1      -1.411  11.922  23.026  0.00  0.00    +0.000 A 
ATOM     20  C   UNL     1      -2.420  12.631  22.344  0.00  0.00    +0.000 A 
ATOM     21  C   UNL     1      -2.464  12.411  20.948  0.00  0.00    +0.000 A 
ATOM     22  C   UNL     1      -1.552  11.580  20.271  0.00  0.00    +0.000 A 
BRANCH  20  23
ATOM     23  N   UNL     1      -3.302  13.441  23.042  0.00  0.00    +0.000 N 
ATOM     24  C   UNL     1      -4.568  12.923  23.604  0.00  0.00    +0.000 C 
ATOM     25  C   UNL     1      -5.626  14.056  23.625  0.00  0.00    +0.000 C 
ATOM     26  N   UNL     1      -5.169  15.269  24.342  0.00  0.00    +0.000 NA
ATOM     27  C   UNL     1      -6.166  16.333  24.228  0.00  0.00    +0.000 C 
ATOM     28  C   UNL     1      -3.877  15.721  23.773  0.00  0.00    +0.000 C 
ATOM     29  C   UNL     1      -2.807  14.606  23.808  0.00  0.00    +0.000 C 
ENDBRANCH  20  23
BRANCH  21  30
ATOM     30  N   UNL     1      -3.493  13.003  20.112  0.00  0.00    +0.000 N 
ATOM     31  O   UNL     1      -3.670  14.228  20.181  0.00  0.00    +0.000 OA
ATOM     32  O   UNL     1      -4.153  12.224  19.410  0.00  0.00    +0.000 OA
ENDBRANCH  21  30
ENDBRANCH   5  17
TORSDOF 5
ENDMDL
MODEL 7
REMARK VINA RESULT:      -7.4      1.778      2.328
REMARK  Name = 
REMARK  7 active torsions:
REMARK  status: ('A' for Active; 'I' for Inactive)
REMARK    1  A    between atoms: C_1  and  O_2
REMARK    2  A    between atoms: O_2  and  C_3
REMARK    3  A    between atoms: C_6  and  C_7
REMARK    4  A    between atoms: C_11  and  C_12
REMARK    5  A    between atoms: C_15  and  N_16
REMARK    6  A    between atoms: N_19  and  C_20
REMARK    7  A    between atoms: C_23  and  N_24
REMARK                            x       y       z     vdW  Elec       q    Type
REMARK                         _______ _______ _______ _____ _____    ______ ____
ROOT
ATOM      1  C   UNL     1       2.637   7.310  18.471  0.00  0.00    +0.000 A 
ATOM      2  C   UNL     1       2.102   8.496  17.984  0.00  0.00    +0.000 A 
ATOM      3  N   UNL     1       1.491   9.048  19.062  0.00  0.00    +0.000 N 
ATOM      4  N   UNL     1       0.875  10.240  19.243  0.00  0.00    +0.000 NA
ATOM      5  C   UNL     1       0.527  10.266  20.499  0.00  0.00    +0.000 A 
ATOM      6  S   UNL     1       0.919   8.841  21.502  0.00  0.00    +0.000 S 
ATOM      7  C   UNL     1       1.642   8.191  20.099  0.00  0.00    +0.000 A 
ATOM      8  N   UNL     1       2.339   7.129  19.814  0.00  0.00    +0.000 NA
ENDROOT
BRANCH   1  12
ATOM      9  C   UNL     1       5.060   4.558  16.297  0.00  0.00    +0.000 A 
ATOM     10  C   UNL     1       3.945   4.115  17.009  0.00  0.00    +0.000 A 
ATOM     11  C   UNL     1       3.141   5.024  17.700  0.00  0.00    +0.000 A 
ATOM     12  C   UNL     1       3.459   6.387  17.713  0.00  0.00    +0.000 A 
ATOM     13  C   UNL     1       4.585   6.824  17.005  0.00  0.00    +0.000 A 
ATOM     14  C   UNL     1       5.382   5.914  16.303  0.00  0.00    +0.000 A 
BRANCH   9  16
ATOM     15  C   UNL     1       6.218   3.895  14.351  0.00  0.00    +0.000 C 
ATOM     16  O   UNL     1       5.784   3.581  15.669  0.00  0.00    +0.000 OA
ENDBRANCH   9  16
ENDBRANCH   1  12
BRANCH   5  17
ATOM     17  C   UNL     1      -0.102  11.441  21.136  0.00  0.00    +0.000 A 
ATOM     18  C   UNL     1      -1.374  11.402  21.702  0.00  0.00    +0.000 A 
ATOM     19  C   UNL     1      -1.899  12.534  22.345  0.00  0.00    +0.000 A 
ATOM     20  C   UNL     1      -1.187  13.745  22.457  0.00  0.00    +0.000 A 
ATOM     21  C   UNL     1       0.083  13.750  21.835  0.00  0.00    +0.000 A 
ATOM     22  C   UNL     1       0.625  12.627  21.184  0.00  0.00    +0.000 A 
BRANCH  20  23
ATOM     23  N   UNL     1      -1.751  14.833  23.105  0.00  0.00    +0.000 N 
ATOM     24  C   UNL     1      -1.189  15.379  24.358  0.00  0.00    +0.000 C 
ATOM     25  C   UNL     1      -2.327  15.996  25.210  0.00  0.00    +0.000 C 
ATOM     26  N   UNL     1      -3.117  17.015  24.480  0.00  0.00    +0.000 NA
ATOM     27  C   UNL     1      -4.238  17.473  25.300  0.00  0.00    +0.000 C 
ATOM     28  C   UNL     1      -3.618  16.434  23.212  0.00  0.00    +0.000 C 
ATOM     29  C   UNL     1      -2.473  15.873  22.339  0.00  0.00    +0.000 C 
ENDBRANCH  20  23
BRANCH  21  30
ATOM     30  N   UNL     1       0.909  14.944  21.790  0.00  0.00    +0.000 N 
ATOM     31  O   UNL     1       1.872  15.018  22.566  0.00  0.00    +0.000 OA
ATOM     32  O   UNL     1       0.561  15.829  20.996  0.00  0.00    +0.000 OA
ENDBRANCH  21  30
ENDBRANCH   5  17
TORSDOF 5
ENDMDL
MODEL 8
REMARK VINA RESULT:      -7.3      1.733      2.338
REMARK  Name = 
REMARK  7 active torsions:
REMARK  status: ('A' for Active; 'I' for Inactive)
REMARK    1  A    between atoms: C_1  and  O_2
REMARK    2  A    between atoms: O_2  and  C_3
REMARK    3  A    between atoms: C_6  and  C_7
REMARK    4  A    between atoms: C_11  and  C_12
REMARK    5  A    between atoms: C_15  and  N_16
REMARK    6  A    between atoms: N_19  and  C_20
REMARK    7  A    between atoms: C_23  and  N_24
REMARK                            x       y       z     vdW  Elec       q    Type
REMARK                         _______ _______ _______ _____ _____    ______ ____
ROOT
ATOM      1  C   UNL     1       2.194   7.889  18.811  0.00  0.00    +0.000 A 
ATOM      2  C   UNL     1       1.846   8.002  20.151  0.00  0.00    +0.000 A 
ATOM      3  N   UNL     1       1.194   9.189  20.222  0.00  0.00    +0.000 N 
ATOM      4  N   UNL     1       0.541   9.806  21.236  0.00  0.00    +0.000 NA
ATOM      5  C   UNL     1       0.049  10.898  20.722  0.00  0.00    +0.000 A 
ATOM      6  S   UNL     1       0.374  11.227  18.996  0.00  0.00    +0.000 S 
ATOM      7  C   UNL     1       1.209   9.737  18.984  0.00  0.00    +0.000 A 
ATOM      8  N   UNL     1       1.783   8.996  18.081  0.00  0.00    +0.000 NA
ENDROOT
BRANCH   1  12
ATOM      9  C   UNL     1       4.122   4.557  16.980  0.00  0.00    +0.000 A 
ATOM     10  C   UNL     1       4.668   5.838  16.881  0.00  0.00    +0.000 A 
ATOM     11  C   UNL     1       4.044   6.922  17.502  0.00  0.00    +0.000 A 
ATOM     12  C   UNL     1       2.849   6.744  18.208  0.00  0.00    +0.000 A 
ATOM     13  C   UNL     1       2.300   5.459  18.295  0.00  0.00    +0.000 A 
ATOM     14  C   UNL     1       2.933   4.372  17.683  0.00  0.00    +0.000 A 
BRANCH   9  16
ATOM     15  C   UNL     1       6.014   3.985  15.690  0.00  0.00    +0.000 C 
ATOM     16  O   UNL     1       4.806   3.573  16.321  0.00  0.00    +0.000 OA
ENDBRANCH   9  16
ENDBRANCH   1  12
BRANCH   5  17
ATOM     17  C   UNL     1      -0.817  11.824  21.478  0.00  0.00    +0.000 A 
ATOM     18  C   UNL     1      -1.569  11.424  22.580  0.00  0.00    +0.000 A 
ATOM     19  C   UNL     1      -2.331  12.360  23.296  0.00  0.00    +0.000 A 
ATOM     20  C   UNL     1      -2.376  13.727  22.955  0.00  0.00    +0.000 A 
ATOM     21  C   UNL     1      -1.628  14.080  21.808  0.00  0.00    +0.000 A 
ATOM     22  C   UNL     1      -0.860  13.156  21.075  0.00  0.00    +0.000 A 
BRANCH  20  23
ATOM     23  N   UNL     1      -3.143  14.610  23.698  0.00  0.00    +0.000 N 
ATOM     24  C   UNL     1      -4.619  14.634  23.613  0.00  0.00    +0.000 C 
ATOM     25  C   UNL     1      -5.129  16.072  23.886  0.00  0.00    +0.000 C 
ATOM     26  N   UNL     1      -4.651  16.628  25.174  0.00  0.00    +0.000 NA
ATOM     27  C   UNL     1      -5.075  18.020  25.316  0.00  0.00    +0.000 C 
ATOM     28  C   UNL     1      -3.172  16.539  25.229  0.00  0.00    +0.000 C 
ATOM     29  C   UNL     1      -2.670  15.094  25.014  0.00  0.00    +0.000 C 
ENDBRANCH  20  23
BRANCH  21  30
ATOM     30  N   UNL     1      -1.634  15.432  21.277  0.00  0.00    +0.000 N 
ATOM     31  O   UNL     1      -0.816  16.243  21.734  0.00  0.00    +0.000 OA
ATOM     32  O   UNL     1      -2.493  15.688  20.422  0.00  0.00    +0.000 OA
ENDBRANCH  21  30
ENDBRANCH   5  17
TORSDOF 5
ENDMDL
MODEL 9
REMARK VINA RESULT:      -7.2      1.539      1.922
REMARK  Name = 
REMARK  7 active torsions:
REMARK  status: ('A' for Active; 'I' for Inactive)
REMARK    1  A    between atoms: C_1  and  O_2
REMARK    2  A    between atoms: O_2  and  C_3
REMARK    3  A    between atoms: C_6  and  C_7
REMARK    4  A    between atoms: C_11  and  C_12
REMARK    5  A    between atoms: C_15  and  N_16
REMARK    6  A    between atoms: N_19  and  C_20
REMARK    7  A    between atoms: C_23  and  N_24
REMARK                            x       y       z     vdW  Elec       q    Type
REMARK                         _______ _______ _______ _____ _____    ______ ____
ROOT
ATOM      1  C   UNL     1       2.766   7.149  18.349  0.00  0.00    +0.000 A 
ATOM      2  C   UNL     1       2.240   8.322  17.824  0.00  0.00    +0.000 A 
ATOM      3  N   UNL     1       1.610   8.900  18.877  0.00  0.00    +0.000 N 
ATOM      4  N   UNL     1       0.990  10.096  19.018  0.00  0.00    +0.000 NA
ATOM      5  C   UNL     1       0.619  10.152  20.267  0.00  0.00    +0.000 A 
ATOM      6  S   UNL     1       0.992   8.752  21.311  0.00  0.00    +0.000 S 
ATOM      7  C   UNL     1       1.741   8.068  19.937  0.00  0.00    +0.000 A 
ATOM      8  N   UNL     1       2.443   7.000  19.691  0.00  0.00    +0.000 NA
ENDROOT
BRANCH   1  12
ATOM      9  C   UNL     1       5.211   4.419  16.172  0.00  0.00    +0.000 A 
ATOM     10  C   UNL     1       5.396   5.796  16.045  0.00  0.00    +0.000 A 
ATOM     11  C   UNL     1       4.608   6.685  16.779  0.00  0.00    +0.000 A 
ATOM     12  C   UNL     1       3.603   6.209  17.628  0.00  0.00    +0.000 A 
ATOM     13  C   UNL     1       3.415   4.827  17.744  0.00  0.00    +0.000 A 
ATOM     14  C   UNL     1       4.214   3.937  17.019  0.00  0.00    +0.000 A 
BRANCH   9  16
ATOM     15  C   UNL     1       6.401   4.206  14.145  0.00  0.00    +0.000 C 
ATOM     16  O   UNL     1       6.028   3.641  15.397  0.00  0.00    +0.000 OA
ENDBRANCH   9  16
ENDBRANCH   1  12
BRANCH   5  17
ATOM     17  C   UNL     1      -0.022  11.341  20.863  0.00  0.00    +0.000 A 
ATOM     18  C   UNL     1       0.707  12.398  21.404  0.00  0.00    +0.000 A 
ATOM     19  C   UNL     1       0.046  13.531  21.906  0.00  0.00    +0.000 A 
ATOM     20  C   UNL     1      -1.357  13.664  21.890  0.00  0.00    +0.000 A 
ATOM     21  C   UNL     1      -2.056  12.551  21.367  0.00  0.00    +0.000 A 
ATOM     22  C   UNL     1      -1.412  11.407  20.861  0.00  0.00    +0.000 A 
BRANCH  20  23
ATOM     23  N   UNL     1      -1.959  14.804  22.396  0.00  0.00    +0.000 N 
ATOM     24  C   UNL     1      -2.755  15.717  21.547  0.00  0.00    +0.000 C 
ATOM     25  C   UNL     1      -2.650  17.161  22.100  0.00  0.00    +0.000 C 
ATOM     26  N   UNL     1      -3.039  17.271  23.526  0.00  0.00    +0.000 NA
ATOM     27  C   UNL     1      -2.811  18.631  24.012  0.00  0.00    +0.000 C 
ATOM     28  C   UNL     1      -2.247  16.306  24.327  0.00  0.00    +0.000 C 
ATOM     29  C   UNL     1      -2.401  14.858  23.807  0.00  0.00    +0.000 C 
ENDBRANCH  20  23
BRANCH  21  30
ATOM     30  N   UNL     1      -3.507  12.496  21.353  0.00  0.00    +0.000 N 
ATOM     31  O   UNL     1      -4.091  12.722  20.284  0.00  0.00    +0.000 OA
ATOM     32  O   UNL     1      -4.063  12.262  22.435  0.00  0.00    +0.000 OA
ENDBRANCH  21  30
ENDBRANCH   5  17
TORSDOF 5
ENDMDL
