MODEL 1
REMARK VINA RESULT:      -9.3      0.000      0.000
REMARK  Name = 
REMARK  5 active torsions:
REMARK  status: ('A' for Active; 'I' for Inactive)
REMARK    1  A    between atoms: C_2  and  O_3
REMARK    2  A    between atoms: C_2  and  C_4
REMARK    3  A    between atoms: C_11  and  N_12
REMARK    4  A    between atoms: N_12  and  C_13
REMARK    5  A    between atoms: C_16  and  N_17
REMARK                            x       y       z     vdW  Elec       q    Type
REMARK                         _______ _______ _______ _____ _____    ______ ____
ROOT
ATOM      1  C   UNL     1       5.718   4.740  16.059  0.00  0.00    +0.000 A 
ATOM      2  C   UNL     1       5.209   3.439  16.080  0.00  0.00    +0.000 A 
ATOM      3  C   UNL     1       4.212   3.097  16.996  0.00  0.00    +0.000 A 
ATOM      4  C   UNL     1       3.709   4.071  17.887  0.00  0.00    +0.000 A 
ATOM      5  C   UNL     1       4.216   5.369  17.855  0.00  0.00    +0.000 A 
ATOM      6  C   UNL     1       5.211   5.697  16.945  0.00  0.00    +0.000 A 
ATOM      7  N   UNL     1       3.776   6.330  18.652  0.00  0.00    +0.000 NA
ATOM      8  C   UNL     1       2.770   6.150  19.552  0.00  0.00    +0.000 A 
ATOM      9  C   UNL     1       2.197   4.859  19.675  0.00  0.00    +0.000 A 
ATOM     10  C   UNL     1       1.137   4.380  20.529  0.00  0.00    +0.000 A 
ATOM     11  C   UNL     1       0.846   3.051  20.342  0.00  0.00    +0.000 A 
ATOM     12  S   UNL     1       1.830   2.351  19.146  0.00  0.00    +0.000 S 
ATOM     13  C   UNL     1       2.673   3.835  18.841  0.00  0.00    +0.000 A 
ENDROOT
BRANCH   1  15
ATOM     14  O   UNL     1       6.738   4.603  13.924  0.00  0.00    +0.000 OA
ATOM     15  C   UNL     1       6.738   5.085  15.044  0.00  0.00    +0.000 C 
BRANCH  15  16
ATOM     16  O   UNL     1       7.686   5.938  15.482  0.00  0.00    +0.000 OA
ATOM     17  H   UNL     1       7.582   6.865  15.201  0.00  0.00    +0.000 HD
ENDBRANCH  15  16
ENDBRANCH   1  15
BRANCH   8  18
ATOM     18  N   UNL     1       2.359   7.252  20.331  0.00  0.00    +0.000 N 
ATOM     19  H   UNL     1       2.872   7.383  21.189  0.00  0.00    +0.000 HD
BRANCH  18  20
ATOM     20  C   UNL     1       1.623   8.360  19.873  0.00  0.00    +0.000 A 
ATOM     21  C   UNL     1       0.706   9.019  20.695  0.00  0.00    +0.000 A 
ATOM     22  C   UNL     1      -0.224   9.925  20.183  0.00  0.00    +0.000 A 
ATOM     23  C   UNL     1      -0.255  10.252  18.827  0.00  0.00    +0.000 A 
ATOM     24  C   UNL     1       0.760   9.688  18.033  0.00  0.00    +0.000 A 
ATOM     25  C   UNL     1       1.681   8.754  18.538  0.00  0.00    +0.000 A 
BRANCH  23  26
ATOM     26  N   UNL     1      -1.211  11.094  18.290  0.00  0.00    +0.000 N 
ATOM     27  C   UNL     1      -1.709  12.295  18.987  0.00  0.00    +0.000 C 
ATOM     28  C   UNL     1      -3.176  12.121  19.405  0.00  0.00    +0.000 C 
ATOM     29  O   UNL     1      -4.003  11.778  18.282  0.00  0.00    +0.000 OA
ATOM     30  C   UNL     1      -3.558  10.542  17.703  0.00  0.00    +0.000 C 
ATOM     31  C   UNL     1      -2.101  10.624  17.211  0.00  0.00    +0.000 C 
ENDBRANCH  23  26
ENDBRANCH  18  20
ENDBRANCH   8  18
TORSDOF 5
ENDMDL
MODEL 2
REMARK VINA RESULT:      -9.0      1.376      1.768
REMARK  Name = 
REMARK  5 active torsions:
REMARK  status: ('A' for Active; 'I' for Inactive)
REMARK    1  A    between atoms: C_2  and  O_3
REMARK    2  A    between atoms: C_2  and  C_4
REMARK    3  A    between atoms: C_11  and  N_12
REMARK    4  A    between atoms: N_12  and  C_13
REMARK    5  A    between atoms: C_16  and  N_17
REMARK                            x       y       z     vdW  Elec       q    Type
REMARK                         _______ _______ _______ _____ _____    ______ ____
ROOT
ATOM      1  C   UNL     1       5.925   5.294  16.723  0.00  0.00    +0.000 A 
ATOM      2  C   UNL     1       5.433   4.039  16.356  0.00  0.00    +0.000 A 
ATOM      3  C   UNL     1       4.320   3.509  17.012  0.00  0.00    +0.000 A 
ATOM      4  C   UNL     1       3.684   4.250  18.033  0.00  0.00    +0.000 A 
ATOM      5  C   UNL     1       4.175   5.505  18.387  0.00  0.00    +0.000 A 
ATOM      6  C   UNL     1       5.286   6.021  17.733  0.00  0.00    +0.000 A 
ATOM      7  N   UNL     1       3.615   6.255  19.324  0.00  0.00    +0.000 NA
ATOM      8  C   UNL     1       2.493   5.887  20.002  0.00  0.00    +0.000 A 
ATOM      9  C   UNL     1       1.924   4.617  19.727  0.00  0.00    +0.000 A 
ATOM     10  C   UNL     1       0.760   3.971  20.282  0.00  0.00    +0.000 A 
ATOM     11  C   UNL     1       0.515   2.733  19.738  0.00  0.00    +0.000 A 
ATOM     12  S   UNL     1       1.666   2.320  18.560  0.00  0.00    +0.000 S 
ATOM     13  C   UNL     1       2.527   3.814  18.745  0.00  0.00    +0.000 A 
ENDROOT
BRANCH   1  15
ATOM     14  O   UNL     1       7.462   5.378  14.920  0.00  0.00    +0.000 OA
ATOM     15  C   UNL     1       7.075   5.851  15.975  0.00  0.00    +0.000 C 
BRANCH  15  16
ATOM     16  O   UNL     1       7.678   6.891  16.586  0.00  0.00    +0.000 OA
ATOM     17  H   UNL     1       7.378   7.776  16.308  0.00  0.00    +0.000 HD
ENDBRANCH  15  16
ENDBRANCH   1  15
BRANCH   8  18
ATOM     18  N   UNL     1       1.962   6.776  20.960  0.00  0.00    +0.000 N 
ATOM     19  H   UNL     1       2.249   6.601  21.910  0.00  0.00    +0.000 HD
BRANCH  18  20
ATOM     20  C   UNL     1       1.432   8.053  20.696  0.00  0.00    +0.000 A 
ATOM     21  C   UNL     1       0.738   8.771  21.673  0.00  0.00    +0.000 A 
ATOM     22  C   UNL     1      -0.028   9.894  21.357  0.00  0.00    +0.000 A 
ATOM     23  C   UNL     1      -0.103  10.383  20.053  0.00  0.00    +0.000 A 
ATOM     24  C   UNL     1       0.709   9.736  19.103  0.00  0.00    +0.000 A 
ATOM     25  C   UNL     1       1.459   8.587  19.411  0.00  0.00    +0.000 A 
BRANCH  23  26
ATOM     26  N   UNL     1      -0.909  11.452  19.708  0.00  0.00    +0.000 N 
ATOM     27  C   UNL     1      -0.819  12.140  18.405  0.00  0.00    +0.000 C 
ATOM     28  C   UNL     1      -0.278  13.567  18.573  0.00  0.00    +0.000 C 
ATOM     29  O   UNL     1      -1.060  14.316  19.516  0.00  0.00    +0.000 OA
ATOM     30  C   UNL     1      -1.026  13.676  20.801  0.00  0.00    +0.000 C 
ATOM     31  C   UNL     1      -1.590  12.244  20.750  0.00  0.00    +0.000 C 
ENDBRANCH  23  26
ENDBRANCH  18  20
ENDBRANCH   8  18
TORSDOF 5
ENDMDL
MODEL 3
REMARK VINA RESULT:      -9.0      1.549      2.218
REMARK  Name = 
REMARK  5 active torsions:
REMARK  status: ('A' for Active; 'I' for Inactive)
REMARK    1  A    between atoms: C_2  and  O_3
REMARK    2  A    between atoms: C_2  and  C_4
REMARK    3  A    between atoms: C_11  and  N_12
REMARK    4  A    between atoms: N_12  and  C_13
REMARK    5  A    between atoms: C_16  and  N_17
REMARK                            x       y       z     vdW  Elec       q    Type
REMARK                         _______ _______ _______ _____ _____    ______ ____
ROOT
ATOM      1  C   UNL     1       5.926   5.252  16.629  0.00  0.00    +0.000 A 
ATOM      2  C   UNL     1       5.431   3.995  16.272  0.00  0.00    +0.000 A 
ATOM      3  C   UNL     1       4.328   3.465  16.946  0.00  0.00    +0.000 A 
ATOM      4  C   UNL     1       3.706   4.208  17.974  0.00  0.00    +0.000 A 
ATOM      5  C   UNL     1       4.201   5.466  18.318  0.00  0.00    +0.000 A 
ATOM      6  C   UNL     1       5.301   5.981  17.646  0.00  0.00    +0.000 A 
ATOM      7  N   UNL     1       3.654   6.217  19.260  0.00  0.00    +0.000 NA
ATOM      8  C   UNL     1       2.542   5.850  19.956  0.00  0.00    +0.000 A 
ATOM      9  C   UNL     1       1.971   4.579  19.693  0.00  0.00    +0.000 A 
ATOM     10  C   UNL     1       0.816   3.933  20.267  0.00  0.00    +0.000 A 
ATOM     11  C   UNL     1       0.564   2.693  19.731  0.00  0.00    +0.000 A 
ATOM     12  S   UNL     1       1.698   2.278  18.536  0.00  0.00    +0.000 S 
ATOM     13  C   UNL     1       2.560   3.774  18.705  0.00  0.00    +0.000 A 
ENDROOT
BRANCH   1  15
ATOM     14  O   UNL     1       7.448   5.321  14.812  0.00  0.00    +0.000 OA
ATOM     15  C   UNL     1       7.064   5.808  15.862  0.00  0.00    +0.000 C 
BRANCH  15  16
ATOM     16  O   UNL     1       7.661   6.865  16.450  0.00  0.00    +0.000 OA
ATOM     17  H   UNL     1       8.371   6.651  17.082  0.00  0.00    +0.000 HD
ENDBRANCH  15  16
ENDBRANCH   1  15
BRANCH   8  18
ATOM     18  N   UNL     1       2.025   6.742  20.919  0.00  0.00    +0.000 N 
ATOM     19  H   UNL     1       2.434   6.664  21.836  0.00  0.00    +0.000 HD
BRANCH  18  20
ATOM     20  C   UNL     1       1.326   7.933  20.649  0.00  0.00    +0.000 A 
ATOM     21  C   UNL     1       1.552   8.664  19.481  0.00  0.00    +0.000 A 
ATOM     22  C   UNL     1       1.087   9.972  19.329  0.00  0.00    +0.000 A 
ATOM     23  C   UNL     1       0.333  10.598  20.320  0.00  0.00    +0.000 A 
ATOM     24  C   UNL     1      -0.006   9.805  21.432  0.00  0.00    +0.000 A 
ATOM     25  C   UNL     1       0.484   8.499  21.603  0.00  0.00    +0.000 A 
BRANCH  23  26
ATOM     26  N   UNL     1      -0.079  11.914  20.217  0.00  0.00    +0.000 N 
ATOM     27  C   UNL     1      -1.180  12.346  19.334  0.00  0.00    +0.000 C 
ATOM     28  C   UNL     1      -0.651  13.205  18.176  0.00  0.00    +0.000 C 
ATOM     29  O   UNL     1       0.112  14.322  18.658  0.00  0.00    +0.000 OA
ATOM     30  C   UNL     1       1.240  13.856  19.414  0.00  0.00    +0.000 C 
ATOM     31  C   UNL     1       0.814  13.013  20.631  0.00  0.00    +0.000 C 
ENDBRANCH  23  26
ENDBRANCH  18  20
ENDBRANCH   8  18
TORSDOF 5
ENDMDL
MODEL 4
REMARK VINA RESULT:      -9.0      0.754      1.236
REMARK  Name = 
REMARK  5 active torsions:
REMARK  status: ('A' for Active; 'I' for Inactive)
REMARK    1  A    between atoms: C_2  and  O_3
REMARK    2  A    between atoms: C_2  and  C_4
REMARK    3  A    between atoms: C_11  and  N_12
REMARK    4  A    between atoms: N_12  and  C_13
REMARK    5  A    between atoms: C_16  and  N_17
REMARK                            x       y       z     vdW  Elec       q    Type
REMARK                         _______ _______ _______ _____ _____    ______ ____
ROOT
ATOM      1  C   UNL     1       5.674   4.739  16.039  0.00  0.00    +0.000 A 
ATOM      2  C   UNL     1       5.122   3.456  16.039  0.00  0.00    +0.000 A 
ATOM      3  C   UNL     1       4.129   3.125  16.965  0.00  0.00    +0.000 A 
ATOM      4  C   UNL     1       3.675   4.094  17.887  0.00  0.00    +0.000 A 
ATOM      5  C   UNL     1       4.224   5.375  17.875  0.00  0.00    +0.000 A 
ATOM      6  C   UNL     1       5.214   5.692  16.955  0.00  0.00    +0.000 A 
ATOM      7  N   UNL     1       3.830   6.331  18.702  0.00  0.00    +0.000 NA
ATOM      8  C   UNL     1       2.834   6.164  19.614  0.00  0.00    +0.000 A 
ATOM      9  C   UNL     1       2.220   4.889  19.719  0.00  0.00    +0.000 A 
ATOM     10  C   UNL     1       1.160   4.426  20.581  0.00  0.00    +0.000 A 
ATOM     11  C   UNL     1       0.822   3.112  20.368  0.00  0.00    +0.000 A 
ATOM     12  S   UNL     1       1.761   2.408  19.140  0.00  0.00    +0.000 S 
ATOM     13  C   UNL     1       2.648   3.870  18.853  0.00  0.00    +0.000 A 
ENDROOT
BRANCH   1  15
ATOM     14  O   UNL     1       6.674   4.588  13.896  0.00  0.00    +0.000 OA
ATOM     15  C   UNL     1       6.687   5.073  15.014  0.00  0.00    +0.000 C 
BRANCH  15  16
ATOM     16  O   UNL     1       7.644   5.923  15.441  0.00  0.00    +0.000 OA
ATOM     17  H   UNL     1       7.603   6.166  16.384  0.00  0.00    +0.000 HD
ENDBRANCH  15  16
ENDBRANCH   1  15
BRANCH   8  18
ATOM     18  N   UNL     1       2.473   7.260  20.426  0.00  0.00    +0.000 N 
ATOM     19  H   UNL     1       3.163   7.531  21.109  0.00  0.00    +0.000 HD
BRANCH  18  20
ATOM     20  C   UNL     1       1.483   8.215  20.132  0.00  0.00    +0.000 A 
ATOM     21  C   UNL     1       1.481   8.916  18.924  0.00  0.00    +0.000 A 
ATOM     22  C   UNL     1       0.690  10.050  18.731  0.00  0.00    +0.000 A 
ATOM     23  C   UNL     1      -0.173  10.515  19.722  0.00  0.00    +0.000 A 
ATOM     24  C   UNL     1      -0.266   9.723  20.882  0.00  0.00    +0.000 A 
ATOM     25  C   UNL     1       0.550   8.597  21.092  0.00  0.00    +0.000 A 
BRANCH  23  26
ATOM     26  N   UNL     1      -0.914  11.673  19.576  0.00  0.00    +0.000 N 
ATOM     27  C   UNL     1      -1.157  12.618  20.684  0.00  0.00    +0.000 C 
ATOM     28  C   UNL     1      -2.636  12.615  21.095  0.00  0.00    +0.000 C 
ATOM     29  O   UNL     1      -3.492  12.881  19.973  0.00  0.00    +0.000 OA
ATOM     30  C   UNL     1      -3.310  11.873  18.967  0.00  0.00    +0.000 C 
ATOM     31  C   UNL     1      -1.859  11.822  18.454  0.00  0.00    +0.000 C 
ENDBRANCH  23  26
ENDBRANCH  18  20
ENDBRANCH   8  18
TORSDOF 5
ENDMDL
MODEL 5
REMARK VINA RESULT:      -8.9      1.281      1.997
REMARK  Name = 
REMARK  5 active torsions:
REMARK  status: ('A' for Active; 'I' for Inactive)
REMARK    1  A    between atoms: C_2  and  O_3
REMARK    2  A    between atoms: C_2  and  C_4
REMARK    3  A    between atoms: C_11  and  N_12
REMARK    4  A    between atoms: N_12  and  C_13
REMARK    5  A    between atoms: C_16  and  N_17
REMARK                            x       y       z     vdW  Elec       q    Type
REMARK                         _______ _______ _______ _____ _____    ______ ____
ROOT
ATOM      1  C   UNL     1       5.754   4.708  16.096  0.00  0.00    +0.000 A 
ATOM      2  C   UNL     1       5.167   3.441  16.054  0.00  0.00    +0.000 A 
ATOM      3  C   UNL     1       4.140   3.120  16.945  0.00  0.00    +0.000 A 
ATOM      4  C   UNL     1       3.686   4.082  17.873  0.00  0.00    +0.000 A 
ATOM      5  C   UNL     1       4.270   5.348  17.903  0.00  0.00    +0.000 A 
ATOM      6  C   UNL     1       5.294   5.655  17.018  0.00  0.00    +0.000 A 
ATOM      7  N   UNL     1       3.878   6.298  18.738  0.00  0.00    +0.000 NA
ATOM      8  C   UNL     1       2.852   6.140  19.618  0.00  0.00    +0.000 A 
ATOM      9  C   UNL     1       2.201   4.881  19.679  0.00  0.00    +0.000 A 
ATOM     10  C   UNL     1       1.105   4.431  20.501  0.00  0.00    +0.000 A 
ATOM     11  C   UNL     1       0.737   3.131  20.252  0.00  0.00    +0.000 A 
ATOM     12  S   UNL     1       1.692   2.426  19.037  0.00  0.00    +0.000 S 
ATOM     13  C   UNL     1       2.626   3.868  18.806  0.00  0.00    +0.000 A 
ENDROOT
BRANCH   1  15
ATOM     14  O   UNL     1       7.677   5.860  15.324  0.00  0.00    +0.000 OA
ATOM     15  C   UNL     1       6.805   5.035  15.107  0.00  0.00    +0.000 C 
BRANCH  15  16
ATOM     16  O   UNL     1       6.685   4.375  13.937  0.00  0.00    +0.000 OA
ATOM     17  H   UNL     1       5.992   4.705  13.335  0.00  0.00    +0.000 HD
ENDBRANCH  15  16
ENDBRANCH   1  15
BRANCH   8  18
ATOM     18  N   UNL     1       2.498   7.230  20.442  0.00  0.00    +0.000 N 
ATOM     19  H   UNL     1       3.198   7.501  21.115  0.00  0.00    +0.000 HD
BRANCH  18  20
ATOM     20  C   UNL     1       1.497   8.181  20.169  0.00  0.00    +0.000 A 
ATOM     21  C   UNL     1       1.456   8.869  18.955  0.00  0.00    +0.000 A 
ATOM     22  C   UNL     1       0.656   9.999  18.776  0.00  0.00    +0.000 A 
ATOM     23  C   UNL     1      -0.176  10.473  19.789  0.00  0.00    +0.000 A 
ATOM     24  C   UNL     1      -0.230   9.692  20.959  0.00  0.00    +0.000 A 
ATOM     25  C   UNL     1       0.594   8.570  21.154  0.00  0.00    +0.000 A 
BRANCH  23  26
ATOM     26  N   UNL     1      -0.923  11.628  19.655  0.00  0.00    +0.000 N 
ATOM     27  C   UNL     1      -0.980  12.409  18.404  0.00  0.00    +0.000 C 
ATOM     28  C   UNL     1      -0.288  13.769  18.573  0.00  0.00    +0.000 C 
ATOM     29  O   UNL     1      -0.834  14.502  19.681  0.00  0.00    +0.000 OA
ATOM     30  C   UNL     1      -0.654  13.759  20.897  0.00  0.00    +0.000 C 
ATOM     31  C   UNL     1      -1.350  12.387  20.846  0.00  0.00    +0.000 C 
ENDBRANCH  23  26
ENDBRANCH  18  20
ENDBRANCH   8  18
TORSDOF 5
ENDMDL
MODEL 6
REMARK VINA RESULT:      -8.8      1.477      1.981
REMARK  Name = 
REMARK  5 active torsions:
REMARK  status: ('A' for Active; 'I' for Inactive)
REMARK    1  A    between atoms: C_2  and  O_3
REMARK    2  A    between atoms: C_2  and  C_4
REMARK    3  A    between atoms: C_11  and  N_12
REMARK    4  A    between atoms: N_12  and  C_13
REMARK    5  A    between atoms: C_16  and  N_17
REMARK                            x       y       z     vdW  Elec       q    Type
REMARK                         _______ _______ _______ _____ _____    ______ ____
ROOT
ATOM      1  C   UNL     1       5.945   5.186  16.535  0.00  0.00    +0.000 A 
ATOM      2  C   UNL     1       5.434   3.927  16.212  0.00  0.00    +0.000 A 
ATOM      3  C   UNL     1       4.332   3.424  16.908  0.00  0.00    +0.000 A 
ATOM      4  C   UNL     1       3.727   4.197  17.924  0.00  0.00    +0.000 A 
ATOM      5  C   UNL     1       4.238   5.457  18.235  0.00  0.00    +0.000 A 
ATOM      6  C   UNL     1       5.337   5.945  17.541  0.00  0.00    +0.000 A 
ATOM      7  N   UNL     1       3.707   6.235  19.165  0.00  0.00    +0.000 NA
ATOM      8  C   UNL     1       2.599   5.895  19.878  0.00  0.00    +0.000 A 
ATOM      9  C   UNL     1       2.012   4.624  19.649  0.00  0.00    +0.000 A 
ATOM     10  C   UNL     1       0.855   4.004  20.249  0.00  0.00    +0.000 A 
ATOM     11  C   UNL     1       0.586   2.755  19.743  0.00  0.00    +0.000 A 
ATOM     12  S   UNL     1       1.705   2.301  18.549  0.00  0.00    +0.000 S 
ATOM     13  C   UNL     1       2.583   3.791  18.675  0.00  0.00    +0.000 A 
ENDROOT
BRANCH   1  15
ATOM     14  O   UNL     1       7.415   5.233  14.676  0.00  0.00    +0.000 OA
ATOM     15  C   UNL     1       7.082   5.712  15.747  0.00  0.00    +0.000 C 
BRANCH  15  16
ATOM     16  O   UNL     1       7.737   6.733  16.337  0.00  0.00    +0.000 OA
ATOM     17  H   UNL     1       8.703   6.629  16.410  0.00  0.00    +0.000 HD
ENDBRANCH  15  16
ENDBRANCH   1  15
BRANCH   8  18
ATOM     18  N   UNL     1       2.099   6.814  20.825  0.00  0.00    +0.000 N 
ATOM     19  H   UNL     1       2.513   6.751  21.742  0.00  0.00    +0.000 HD
BRANCH  18  20
ATOM     20  C   UNL     1       1.414   8.009  20.535  0.00  0.00    +0.000 A 
ATOM     21  C   UNL     1       1.567   8.658  19.307  0.00  0.00    +0.000 A 
ATOM     22  C   UNL     1       1.128   9.968  19.108  0.00  0.00    +0.000 A 
ATOM     23  C   UNL     1       0.473  10.680  20.112  0.00  0.00    +0.000 A 
ATOM     24  C   UNL     1       0.203   9.970  21.296  0.00  0.00    +0.000 A 
ATOM     25  C   UNL     1       0.668   8.661  21.513  0.00  0.00    +0.000 A 
BRANCH  23  26
ATOM     26  N   UNL     1       0.092  12.000  19.957  0.00  0.00    +0.000 N 
ATOM     27  C   UNL     1       0.750  13.116  20.663  0.00  0.00    +0.000 C 
ATOM     28  C   UNL     1      -0.195  13.746  21.696  0.00  0.00    +0.000 C 
ATOM     29  O   UNL     1      -1.433  14.156  21.094  0.00  0.00    +0.000 OA
ATOM     30  C   UNL     1      -2.098  13.020  20.520  0.00  0.00    +0.000 C 
ATOM     31  C   UNL     1      -1.247  12.336  19.435  0.00  0.00    +0.000 C 
ENDBRANCH  23  26
ENDBRANCH  18  20
ENDBRANCH   8  18
TORSDOF 5
ENDMDL
MODEL 7
REMARK VINA RESULT:      -8.8      1.546      2.112
REMARK  Name = 
REMARK  5 active torsions:
REMARK  status: ('A' for Active; 'I' for Inactive)
REMARK    1  A    between atoms: C_2  and  O_3
REMARK    2  A    between atoms: C_2  and  C_4
REMARK    3  A    between atoms: C_11  and  N_12
REMARK    4  A    between atoms: N_12  and  C_13
REMARK    5  A    between atoms: C_16  and  N_17
REMARK                            x       y       z     vdW  Elec       q    Type
REMARK                         _______ _______ _______ _____ _____    ______ ____
ROOT
ATOM      1  C   UNL     1       5.702   4.822  16.135  0.00  0.00    +0.000 A 
ATOM      2  C   UNL     1       5.216   3.513  16.119  0.00  0.00    +0.000 A 
ATOM      3  C   UNL     1       4.204   3.135  17.005  0.00  0.00    +0.000 A 
ATOM      4  C   UNL     1       3.662   4.083  17.901  0.00  0.00    +0.000 A 
ATOM      5  C   UNL     1       4.146   5.391  17.904  0.00  0.00    +0.000 A 
ATOM      6  C   UNL     1       5.157   5.754  17.025  0.00  0.00    +0.000 A 
ATOM      7  N   UNL     1       3.669   6.328  18.709  0.00  0.00    +0.000 NA
ATOM      8  C   UNL     1       2.645   6.114  19.579  0.00  0.00    +0.000 A 
ATOM      9  C   UNL     1       2.093   4.810  19.665  0.00  0.00    +0.000 A 
ATOM     10  C   UNL     1       1.022   4.297  20.484  0.00  0.00    +0.000 A 
ATOM     11  C   UNL     1       0.760   2.967  20.265  0.00  0.00    +0.000 A 
ATOM     12  S   UNL     1       1.784   2.307  19.081  0.00  0.00    +0.000 S 
ATOM     13  C   UNL     1       2.608   3.811  18.824  0.00  0.00    +0.000 A 
ENDROOT
BRANCH   1  15
ATOM     14  O   UNL     1       6.763   4.760  14.016  0.00  0.00    +0.000 OA
ATOM     15  C   UNL     1       6.740   5.204  15.152  0.00  0.00    +0.000 C 
BRANCH  15  16
ATOM     16  O   UNL     1       7.676   6.046  15.636  0.00  0.00    +0.000 OA
ATOM     17  H   UNL     1       8.034   6.692  15.000  0.00  0.00    +0.000 HD
ENDBRANCH  15  16
ENDBRANCH   1  15
BRANCH   8  18
ATOM     18  N   UNL     1       2.195   7.194  20.369  0.00  0.00    +0.000 N 
ATOM     19  H   UNL     1       2.585   7.235  21.297  0.00  0.00    +0.000 HD
BRANCH  18  20
ATOM     20  C   UNL     1       1.606   8.378  19.890  0.00  0.00    +0.000 A 
ATOM     21  C   UNL     1       1.759   8.785  18.562  0.00  0.00    +0.000 A 
ATOM     22  C   UNL     1       1.429  10.075  18.144  0.00  0.00    +0.000 A 
ATOM     23  C   UNL     1       0.887  11.011  19.023  0.00  0.00    +0.000 A 
ATOM     24  C   UNL     1       0.609  10.549  20.323  0.00  0.00    +0.000 A 
ATOM     25  C   UNL     1       0.966   9.260  20.757  0.00  0.00    +0.000 A 
BRANCH  23  26
ATOM     26  N   UNL     1       0.617  12.313  18.645  0.00  0.00    +0.000 N 
ATOM     27  C   UNL     1       1.641  13.375  18.629  0.00  0.00    +0.000 C 
ATOM     28  C   UNL     1       1.363  14.425  19.714  0.00  0.00    +0.000 C 
ATOM     29  O   UNL     1       0.037  14.964  19.594  0.00  0.00    +0.000 OA
ATOM     30  C   UNL     1      -0.934  13.916  19.733  0.00  0.00    +0.000 C 
ATOM     31  C   UNL     1      -0.767  12.825  18.658  0.00  0.00    +0.000 C 
ENDBRANCH  23  26
ENDBRANCH  18  20
ENDBRANCH   8  18
TORSDOF 5
ENDMDL
MODEL 8
REMARK VINA RESULT:      -8.7      3.728      8.678
REMARK  Name = 
REMARK  5 active torsions:
REMARK  status: ('A' for Active; 'I' for Inactive)
REMARK    1  A    between atoms: C_2  and  O_3
REMARK    2  A    between atoms: C_2  and  C_4
REMARK    3  A    between atoms: C_11  and  N_12
REMARK    4  A    between atoms: N_12  and  C_13
REMARK    5  A    between atoms: C_16  and  N_17
REMARK                            x       y       z     vdW  Elec       q    Type
REMARK                         _______ _______ _______ _____ _____    ______ ____
ROOT
ATOM      1  C   UNL     1      -3.286  10.371  15.518  0.00  0.00    +0.000 A 
ATOM      2  C   UNL     1      -4.236  11.168  16.162  0.00  0.00    +0.000 A 
ATOM      3  C   UNL     1      -3.996  11.623  17.461  0.00  0.00    +0.000 A 
ATOM      4  C   UNL     1      -2.788  11.291  18.113  0.00  0.00    +0.000 A 
ATOM      5  C   UNL     1      -1.842  10.502  17.460  0.00  0.00    +0.000 A 
ATOM      6  C   UNL     1      -2.092  10.049  16.172  0.00  0.00    +0.000 A 
ATOM      7  N   UNL     1      -0.685  10.169  18.011  0.00  0.00    +0.000 NA
ATOM      8  C   UNL     1      -0.298  10.591  19.246  0.00  0.00    +0.000 A 
ATOM      9  C   UNL     1      -1.198  11.386  20.001  0.00  0.00    +0.000 A 
ATOM     10  C   UNL     1      -1.063  11.963  21.316  0.00  0.00    +0.000 A 
ATOM     11  C   UNL     1      -2.158  12.696  21.702  0.00  0.00    +0.000 A 
ATOM     12  S   UNL     1      -3.365  12.708  20.507  0.00  0.00    +0.000 S 
ATOM     13  C   UNL     1      -2.432  11.726  19.425  0.00  0.00    +0.000 A 
ENDROOT
BRANCH   1  15
ATOM     14  O   UNL     1      -4.664   9.672  13.720  0.00  0.00    +0.000 OA
ATOM     15  C   UNL     1      -3.547   9.946  14.125  0.00  0.00    +0.000 C 
BRANCH  15  16
ATOM     16  O   UNL     1      -2.439   9.847  13.362  0.00  0.00    +0.000 OA
ATOM     17  H   UNL     1      -2.217  10.637  12.835  0.00  0.00    +0.000 HD
ENDBRANCH  15  16
ENDBRANCH   1  15
BRANCH   8  18
ATOM     18  N   UNL     1       0.971  10.201  19.724  0.00  0.00    +0.000 N 
ATOM     19  H   UNL     1       1.334  10.761  20.479  0.00  0.00    +0.000 HD
BRANCH  18  20
ATOM     20  C   UNL     1       1.570   8.940  19.544  0.00  0.00    +0.000 A 
ATOM     21  C   UNL     1       2.130   8.566  18.321  0.00  0.00    +0.000 A 
ATOM     22  C   UNL     1       2.469   7.241  18.040  0.00  0.00    +0.000 A 
ATOM     23  C   UNL     1       2.306   6.230  18.986  0.00  0.00    +0.000 A 
ATOM     24  C   UNL     1       1.870   6.640  20.259  0.00  0.00    +0.000 A 
ATOM     25  C   UNL     1       1.501   7.967  20.538  0.00  0.00    +0.000 A 
BRANCH  23  26
ATOM     26  N   UNL     1       2.571   4.902  18.705  0.00  0.00    +0.000 N 
ATOM     27  C   UNL     1       1.623   4.025  17.991  0.00  0.00    +0.000 C 
ATOM     28  C   UNL     1       1.069   2.940  18.925  0.00  0.00    +0.000 C 
ATOM     29  O   UNL     1       2.126   2.188  19.540  0.00  0.00    +0.000 OA
ATOM     30  C   UNL     1       2.959   3.060  20.320  0.00  0.00    +0.000 C 
ATOM     31  C   UNL     1       3.601   4.167  19.464  0.00  0.00    +0.000 C 
ENDBRANCH  23  26
ENDBRANCH  18  20
ENDBRANCH   8  18
TORSDOF 5
ENDMDL
MODEL 9
REMARK VINA RESULT:      -8.6      3.378      8.699
REMARK  Name = 
REMARK  5 active torsions:
REMARK  status: ('A' for Active; 'I' for Inactive)
REMARK    1  A    between atoms: C_2  and  O_3
REMARK    2  A    between atoms: C_2  and  C_4
REMARK    3  A    between atoms: C_11  and  N_12
REMARK    4  A    between atoms: N_12  and  C_13
REMARK    5  A    between atoms: C_16  and  N_17
REMARK                            x       y       z     vdW  Elec       q    Type
REMARK                         _______ _______ _______ _____ _____    ______ ____
ROOT
ATOM      1  C   UNL     1      -2.989  10.357  15.877  0.00  0.00    +0.000 A 
ATOM      2  C   UNL     1      -3.801  11.225  16.611  0.00  0.00    +0.000 A 
ATOM      3  C   UNL     1      -3.428  11.602  17.903  0.00  0.00    +0.000 A 
ATOM      4  C   UNL     1      -2.223  11.118  18.458  0.00  0.00    +0.000 A 
ATOM      5  C   UNL     1      -1.413  10.259  17.716  0.00  0.00    +0.000 A 
ATOM      6  C   UNL     1      -1.796   9.885  16.435  0.00  0.00    +0.000 A 
ATOM      7  N   UNL     1      -0.265   9.783  18.174  0.00  0.00    +0.000 NA
ATOM      8  C   UNL     1       0.246  10.114  19.391  0.00  0.00    +0.000 A 
ATOM      9  C   UNL     1      -0.510  10.970  20.232  0.00  0.00    +0.000 A 
ATOM     10  C   UNL     1      -0.226  11.479  21.552  0.00  0.00    +0.000 A 
ATOM     11  C   UNL     1      -1.207  12.309  22.036  0.00  0.00    +0.000 A 
ATOM     12  S   UNL     1      -2.482  12.495  20.930  0.00  0.00    +0.000 S 
ATOM     13  C   UNL     1      -1.735  11.462  19.755  0.00  0.00    +0.000 A 
ENDROOT
BRANCH   1  15
ATOM     14  O   UNL     1      -2.576   9.878  13.593  0.00  0.00    +0.000 OA
ATOM     15  C   UNL     1      -3.386  10.016  14.493  0.00  0.00    +0.000 C 
BRANCH  15  16
ATOM     16  O   UNL     1      -4.719   9.918  14.310  0.00  0.00    +0.000 OA
ATOM     17  H   UNL     1      -5.020   9.142  13.802  0.00  0.00    +0.000 HD
ENDBRANCH  15  16
ENDBRANCH   1  15
BRANCH   8  18
ATOM     18  N   UNL     1       1.494   9.573  19.767  0.00  0.00    +0.000 N 
ATOM     19  H   UNL     1       2.058  10.167  20.354  0.00  0.00    +0.000 HD
BRANCH  18  20
ATOM     20  C   UNL     1       1.844   8.210  19.745  0.00  0.00    +0.000 A 
ATOM     21  C   UNL     1       2.391   7.614  18.607  0.00  0.00    +0.000 A 
ATOM     22  C   UNL     1       2.480   6.228  18.471  0.00  0.00    +0.000 A 
ATOM     23  C   UNL     1       2.066   5.367  19.486  0.00  0.00    +0.000 A 
ATOM     24  C   UNL     1       1.645   5.979  20.681  0.00  0.00    +0.000 A 
ATOM     25  C   UNL     1       1.527   7.373  20.813  0.00  0.00    +0.000 A 
BRANCH  23  26
ATOM     26  N   UNL     1       2.082   3.992  19.344  0.00  0.00    +0.000 N 
ATOM     27  C   UNL     1       2.690   3.087  20.339  0.00  0.00    +0.000 C 
ATOM     28  C   UNL     1       3.946   2.410  19.771  0.00  0.00    +0.000 C 
ATOM     29  O   UNL     1       3.663   1.730  18.538  0.00  0.00    +0.000 OA
ATOM     30  C   UNL     1       3.184   2.666  17.560  0.00  0.00    +0.000 C 
ATOM     31  C   UNL     1       1.895   3.373  18.018  0.00  0.00    +0.000 C 
ENDBRANCH  23  26
ENDBRANCH  18  20
ENDBRANCH   8  18
TORSDOF 5
ENDMDL
