MODEL 1
REMARK VINA RESULT:      -8.9      0.000      0.000
REMARK  Name = 
REMARK  9 active torsions:
REMARK  status: ('A' for Active; 'I' for Inactive)
REMARK    1  A    between atoms: C_1  and  C_2
REMARK    2  A    between atoms: C_2  and  C_4
REMARK    3  A    between atoms: C_7  and  C_8
REMARK    4  A    between atoms: C_11  and  C_12
REMARK    5  A    between atoms: N_14  and  C_15
REMARK    6  A    between atoms: C_17  and  C_18
REMARK    7  A    between atoms: C_17  and  C_19
REMARK    8  A    between atoms: C_21  and  C_22
REMARK    9  A    between atoms: C_21  and  C_23
REMARK                            x       y       z     vdW  Elec       q    Type
REMARK                         _______ _______ _______ _____ _____    ______ ____
ROOT
ATOM      1  C   UNL     1       2.308   7.467  19.315  0.00  0.00    +0.000 C 
ATOM      2  O   UNL     1       2.342   6.805  20.349  0.00  0.00    +0.000 OA
ATOM      3  N   UNL     1       3.031   7.116  18.191  0.00  0.00    +0.000 N 
ATOM      4  H   UNL     1       2.847   7.648  17.348  0.00  0.00    +0.000 HD
ENDROOT
BRANCH   3   5
ATOM      5  C   UNL     1       3.847   5.902  18.120  0.00  0.00    +0.000 C 
ATOM      6  C   UNL     1       4.700   5.903  16.850  0.00  0.00    +0.000 C 
ATOM      7  C   UNL     1       5.540   4.618  16.687  0.00  0.00    +0.000 C 
ATOM      8  C   UNL     1       6.042   4.544  15.228  0.00  0.00    +0.000 C 
ATOM      9  C   UNL     1       6.794   4.645  17.581  0.00  0.00    +0.000 C 
ATOM     10  N   UNL     1       4.738   3.405  16.891  0.00  0.00    +0.000 NA
ATOM     11  C   UNL     1       3.799   3.352  18.019  0.00  0.00    +0.000 C 
ATOM     12  C   UNL     1       2.838   2.183  17.716  0.00  0.00    +0.000 C 
ATOM     13  C   UNL     1       4.503   3.014  19.346  0.00  0.00    +0.000 C 
ATOM     14  C   UNL     1       2.970   4.647  18.132  0.00  0.00    +0.000 C 
ATOM     15  H   UNL     1       5.332   2.574  16.878  0.00  0.00    +0.000 HD
ENDBRANCH   3   5
BRANCH   1  19
ATOM     16  C   UNL     1       0.188  10.314  19.851  0.00  0.00    +0.000 A 
ATOM     17  C   UNL     1       0.413  10.513  18.502  0.00  0.00    +0.000 A 
ATOM     18  C   UNL     1       1.259   9.463  18.071  0.00  0.00    +0.000 A 
ATOM     19  C   UNL     1       1.527   8.687  19.180  0.00  0.00    +0.000 A 
ATOM     20  O   UNL     1       0.888   9.216  20.272  0.00  0.00    +0.000 OA
BRANCH  16  24
ATOM     21  C   UNL     1      -2.410  12.145  22.735  0.00  0.00    +0.000 A 
ATOM     22  C   UNL     1      -2.484  12.499  21.385  0.00  0.00    +0.000 A 
ATOM     23  C   UNL     1      -1.611  11.924  20.453  0.00  0.00    +0.000 A 
ATOM     24  C   UNL     1      -0.653  10.976  20.848  0.00  0.00    +0.000 A 
ATOM     25  C   UNL     1      -0.568  10.649  22.208  0.00  0.00    +0.000 A 
ATOM     26  C   UNL     1      -1.439  11.223  23.143  0.00  0.00    +0.000 A 
BRANCH  21  28
ATOM     27  C   UNL     1      -3.196  14.148  24.158  0.00  0.00    +0.000 C 
ATOM     28  C   UNL     1      -3.347  12.704  23.753  0.00  0.00    +0.000 C 
ATOM     29  O   UNL     1      -4.227  11.994  24.235  0.00  0.00    +0.000 OA
ENDBRANCH  21  28
ENDBRANCH  16  24
ENDBRANCH   1  19
TORSDOF 4
ENDMDL
MODEL 2
REMARK VINA RESULT:      -8.8      2.697      9.987
REMARK  Name = 
REMARK  9 active torsions:
REMARK  status: ('A' for Active; 'I' for Inactive)
REMARK    1  A    between atoms: C_1  and  C_2
REMARK    2  A    between atoms: C_2  and  C_4
REMARK    3  A    between atoms: C_7  and  C_8
REMARK    4  A    between atoms: C_11  and  C_12
REMARK    5  A    between atoms: N_14  and  C_15
REMARK    6  A    between atoms: C_17  and  C_18
REMARK    7  A    between atoms: C_17  and  C_19
REMARK    8  A    between atoms: C_21  and  C_22
REMARK    9  A    between atoms: C_21  and  C_23
REMARK                            x       y       z     vdW  Elec       q    Type
REMARK                         _______ _______ _______ _____ _____    ______ ____
ROOT
ATOM      1  C   UNL     1       1.271   8.260  20.758  0.00  0.00    +0.000 C 
ATOM      2  O   UNL     1       0.895   8.422  21.916  0.00  0.00    +0.000 OA
ATOM      3  N   UNL     1       1.144   9.245  19.796  0.00  0.00    +0.000 N 
ATOM      4  H   UNL     1       1.591   9.069  18.904  0.00  0.00    +0.000 HD
ENDROOT
BRANCH   3   5
ATOM      5  C   UNL     1       0.606  10.574  20.090  0.00  0.00    +0.000 C 
ATOM      6  C   UNL     1      -0.874  10.650  19.711  0.00  0.00    +0.000 C 
ATOM      7  C   UNL     1      -1.486  12.048  19.942  0.00  0.00    +0.000 C 
ATOM      8  C   UNL     1      -2.828  12.127  19.181  0.00  0.00    +0.000 C 
ATOM      9  C   UNL     1      -1.810  12.285  21.429  0.00  0.00    +0.000 C 
ATOM     10  N   UNL     1      -0.649  13.116  19.378  0.00  0.00    +0.000 NA
ATOM     11  C   UNL     1       0.804  13.069  19.588  0.00  0.00    +0.000 C 
ATOM     12  C   UNL     1       1.412  14.039  18.552  0.00  0.00    +0.000 C 
ATOM     13  C   UNL     1       1.207  13.595  20.978  0.00  0.00    +0.000 C 
ATOM     14  C   UNL     1       1.372  11.660  19.329  0.00  0.00    +0.000 C 
ATOM     15  H   UNL     1      -1.019  14.034  19.629  0.00  0.00    +0.000 HD
ENDBRANCH   3   5
BRANCH   1  19
ATOM     16  C   UNL     1       3.068   5.738  18.942  0.00  0.00    +0.000 A 
ATOM     17  C   UNL     1       2.488   4.902  19.877  0.00  0.00    +0.000 A 
ATOM     18  C   UNL     1       1.706   5.722  20.727  0.00  0.00    +0.000 A 
ATOM     19  C   UNL     1       1.864   7.019  20.283  0.00  0.00    +0.000 A 
ATOM     20  O   UNL     1       2.710   7.032  19.205  0.00  0.00    +0.000 OA
BRANCH  16  24
ATOM     21  C   UNL     1       5.640   5.097  15.567  0.00  0.00    +0.000 A 
ATOM     22  C   UNL     1       5.363   6.392  16.014  0.00  0.00    +0.000 A 
ATOM     23  C   UNL     1       4.496   6.597  17.094  0.00  0.00    +0.000 A 
ATOM     24  C   UNL     1       3.895   5.515  17.757  0.00  0.00    +0.000 A 
ATOM     25  C   UNL     1       4.157   4.223  17.282  0.00  0.00    +0.000 A 
ATOM     26  C   UNL     1       5.023   4.012  16.201  0.00  0.00    +0.000 A 
BRANCH  21  28
ATOM     27  C   UNL     1       6.175   3.870  13.361  0.00  0.00    +0.000 C 
ATOM     28  C   UNL     1       6.588   4.832  14.445  0.00  0.00    +0.000 C 
ATOM     29  O   UNL     1       7.676   5.403  14.411  0.00  0.00    +0.000 OA
ENDBRANCH  21  28
ENDBRANCH  16  24
ENDBRANCH   1  19
TORSDOF 4
ENDMDL
MODEL 3
REMARK VINA RESULT:      -8.6      0.586      1.141
REMARK  Name = 
REMARK  9 active torsions:
REMARK  status: ('A' for Active; 'I' for Inactive)
REMARK    1  A    between atoms: C_1  and  C_2
REMARK    2  A    between atoms: C_2  and  C_4
REMARK    3  A    between atoms: C_7  and  C_8
REMARK    4  A    between atoms: C_11  and  C_12
REMARK    5  A    between atoms: N_14  and  C_15
REMARK    6  A    between atoms: C_17  and  C_18
REMARK    7  A    between atoms: C_17  and  C_19
REMARK    8  A    between atoms: C_21  and  C_22
REMARK    9  A    between atoms: C_21  and  C_23
REMARK                            x       y       z     vdW  Elec       q    Type
REMARK                         _______ _______ _______ _____ _____    ______ ____
ROOT
ATOM      1  C   UNL     1       2.292   7.468  19.307  0.00  0.00    +0.000 C 
ATOM      2  O   UNL     1       2.296   6.806  20.342  0.00  0.00    +0.000 OA
ATOM      3  N   UNL     1       3.043   7.113  18.201  0.00  0.00    +0.000 N 
ATOM      4  H   UNL     1       2.883   7.645  17.354  0.00  0.00    +0.000 HD
ENDROOT
BRANCH   3   5
ATOM      5  C   UNL     1       3.855   5.896  18.152  0.00  0.00    +0.000 C 
ATOM      6  C   UNL     1       4.723   5.881  16.893  0.00  0.00    +0.000 C 
ATOM      7  C   UNL     1       5.561   4.592  16.753  0.00  0.00    +0.000 C 
ATOM      8  C   UNL     1       6.080   4.502  15.300  0.00  0.00    +0.000 C 
ATOM      9  C   UNL     1       6.804   4.624  17.661  0.00  0.00    +0.000 C 
ATOM     10  N   UNL     1       4.753   3.384  16.959  0.00  0.00    +0.000 NA
ATOM     11  C   UNL     1       3.800   3.345  18.076  0.00  0.00    +0.000 C 
ATOM     12  C   UNL     1       2.839   2.176  17.772  0.00  0.00    +0.000 C 
ATOM     13  C   UNL     1       4.487   3.018  19.414  0.00  0.00    +0.000 C 
ATOM     14  C   UNL     1       2.974   4.644  18.166  0.00  0.00    +0.000 C 
ATOM     15  H   UNL     1       5.343   2.551  16.961  0.00  0.00    +0.000 HD
ENDBRANCH   3   5
BRANCH   1  19
ATOM     16  C   UNL     1       0.160  10.315  19.782  0.00  0.00    +0.000 A 
ATOM     17  C   UNL     1       0.438  10.525  18.445  0.00  0.00    +0.000 A 
ATOM     18  C   UNL     1       1.297   9.476  18.038  0.00  0.00    +0.000 A 
ATOM     19  C   UNL     1       1.519   8.691  19.151  0.00  0.00    +0.000 A 
ATOM     20  O   UNL     1       0.840   9.213  20.221  0.00  0.00    +0.000 OA
BRANCH  16  24
ATOM     21  C   UNL     1      -2.282  12.352  22.665  0.00  0.00    +0.000 A 
ATOM     22  C   UNL     1      -1.399  11.345  23.066  0.00  0.00    +0.000 A 
ATOM     23  C   UNL     1      -0.629  10.660  22.117  0.00  0.00    +0.000 A 
ATOM     24  C   UNL     1      -0.718  10.972  20.751  0.00  0.00    +0.000 A 
ATOM     25  C   UNL     1      -1.627  11.964  20.357  0.00  0.00    +0.000 A 
ATOM     26  C   UNL     1      -2.399  12.651  21.302  0.00  0.00    +0.000 A 
BRANCH  21  28
ATOM     27  C   UNL     1      -4.120  12.408  24.474  0.00  0.00    +0.000 C 
ATOM     28  C   UNL     1      -3.090  13.133  23.647  0.00  0.00    +0.000 C 
ATOM     29  O   UNL     1      -2.902  14.341  23.777  0.00  0.00    +0.000 OA
ENDBRANCH  21  28
ENDBRANCH  16  24
ENDBRANCH   1  19
TORSDOF 4
ENDMDL
MODEL 4
REMARK VINA RESULT:      -8.5      2.932      9.957
REMARK  Name = 
REMARK  9 active torsions:
REMARK  status: ('A' for Active; 'I' for Inactive)
REMARK    1  A    between atoms: C_1  and  C_2
REMARK    2  A    between atoms: C_2  and  C_4
REMARK    3  A    between atoms: C_7  and  C_8
REMARK    4  A    between atoms: C_11  and  C_12
REMARK    5  A    between atoms: N_14  and  C_15
REMARK    6  A    between atoms: C_17  and  C_18
REMARK    7  A    between atoms: C_17  and  C_19
REMARK    8  A    between atoms: C_21  and  C_22
REMARK    9  A    between atoms: C_21  and  C_23
REMARK                            x       y       z     vdW  Elec       q    Type
REMARK                         _______ _______ _______ _____ _____    ______ ____
ROOT
ATOM      1  C   UNL     1       1.135   8.443  20.195  0.00  0.00    +0.000 C 
ATOM      2  O   UNL     1       0.905   8.930  21.298  0.00  0.00    +0.000 OA
ATOM      3  N   UNL     1       0.627   8.984  19.028  0.00  0.00    +0.000 N 
ATOM      4  H   UNL     1       0.968   8.592  18.159  0.00  0.00    +0.000 HD
ENDROOT
BRANCH   3   5
ATOM      5  C   UNL     1      -0.175  10.209  19.008  0.00  0.00    +0.000 C 
ATOM      6  C   UNL     1      -1.166  10.180  17.843  0.00  0.00    +0.000 C 
ATOM      7  C   UNL     1      -2.003  11.473  17.730  0.00  0.00    +0.000 C 
ATOM      8  C   UNL     1      -2.666  11.507  16.335  0.00  0.00    +0.000 C 
ATOM      9  C   UNL     1      -3.148  11.497  18.760  0.00  0.00    +0.000 C 
ATOM     10  N   UNL     1      -1.168  12.679  17.800  0.00  0.00    +0.000 NA
ATOM     11  C   UNL     1      -0.106  12.753  18.813  0.00  0.00    +0.000 C 
ATOM     12  C   UNL     1       0.829  13.895  18.362  0.00  0.00    +0.000 C 
ATOM     13  C   UNL     1      -0.651  13.147  20.198  0.00  0.00    +0.000 C 
ATOM     14  C   UNL     1       0.713  11.448  18.877  0.00  0.00    +0.000 C 
ATOM     15  H   UNL     1      -1.748  13.518  17.825  0.00  0.00    +0.000 HD
ENDBRANCH   3   5
BRANCH   1  19
ATOM     16  C   UNL     1       3.394   5.927  18.990  0.00  0.00    +0.000 A 
ATOM     17  C   UNL     1       2.918   5.228  20.083  0.00  0.00    +0.000 A 
ATOM     18  C   UNL     1       1.978   6.068  20.726  0.00  0.00    +0.000 A 
ATOM     19  C   UNL     1       1.942   7.246  20.009  0.00  0.00    +0.000 A 
ATOM     20  O   UNL     1       2.819   7.168  18.959  0.00  0.00    +0.000 OA
BRANCH  16  24
ATOM     21  C   UNL     1       5.925   5.023  15.644  0.00  0.00    +0.000 A 
ATOM     22  C   UNL     1       4.879   4.166  15.995  0.00  0.00    +0.000 A 
ATOM     23  C   UNL     1       4.077   4.448  17.109  0.00  0.00    +0.000 A 
ATOM     24  C   UNL     1       4.297   5.595  17.888  0.00  0.00    +0.000 A 
ATOM     25  C   UNL     1       5.367   6.432  17.543  0.00  0.00    +0.000 A 
ATOM     26  C   UNL     1       6.172   6.154  16.432  0.00  0.00    +0.000 A 
BRANCH  21  28
ATOM     27  C   UNL     1       6.330   3.756  13.433  0.00  0.00    +0.000 C 
ATOM     28  C   UNL     1       6.778   4.781  14.443  0.00  0.00    +0.000 C 
ATOM     29  O   UNL     1       7.816   5.419  14.287  0.00  0.00    +0.000 OA
ENDBRANCH  21  28
ENDBRANCH  16  24
ENDBRANCH   1  19
TORSDOF 4
ENDMDL
MODEL 5
REMARK VINA RESULT:      -8.3      0.660      2.145
REMARK  Name = 
REMARK  9 active torsions:
REMARK  status: ('A' for Active; 'I' for Inactive)
REMARK    1  A    between atoms: C_1  and  C_2
REMARK    2  A    between atoms: C_2  and  C_4
REMARK    3  A    between atoms: C_7  and  C_8
REMARK    4  A    between atoms: C_11  and  C_12
REMARK    5  A    between atoms: N_14  and  C_15
REMARK    6  A    between atoms: C_17  and  C_18
REMARK    7  A    between atoms: C_17  and  C_19
REMARK    8  A    between atoms: C_21  and  C_22
REMARK    9  A    between atoms: C_21  and  C_23
REMARK                            x       y       z     vdW  Elec       q    Type
REMARK                         _______ _______ _______ _____ _____    ______ ____
ROOT
ATOM      1  C   UNL     1       2.425   7.373  19.066  0.00  0.00    +0.000 C 
ATOM      2  O   UNL     1       2.570   6.747  20.112  0.00  0.00    +0.000 OA
ATOM      3  N   UNL     1       2.970   6.946  17.869  0.00  0.00    +0.000 N 
ATOM      4  H   UNL     1       2.697   7.458  17.038  0.00  0.00    +0.000 HD
ENDROOT
BRANCH   3   5
ATOM      5  C   UNL     1       3.712   5.691  17.740  0.00  0.00    +0.000 C 
ATOM      6  C   UNL     1       3.316   4.718  18.851  0.00  0.00    +0.000 C 
ATOM      7  C   UNL     1       4.109   3.394  18.805  0.00  0.00    +0.000 C 
ATOM      8  C   UNL     1       3.928   2.667  20.156  0.00  0.00    +0.000 C 
ATOM      9  C   UNL     1       3.564   2.445  17.721  0.00  0.00    +0.000 C 
ATOM     10  N   UNL     1       5.554   3.621  18.669  0.00  0.00    +0.000 NA
ATOM     11  C   UNL     1       6.031   4.624  17.709  0.00  0.00    +0.000 C 
ATOM     12  C   UNL     1       7.494   4.924  18.102  0.00  0.00    +0.000 C 
ATOM     13  C   UNL     1       6.062   4.082  16.268  0.00  0.00    +0.000 C 
ATOM     14  C   UNL     1       5.223   5.934  17.803  0.00  0.00    +0.000 C 
ATOM     15  H   UNL     1       6.047   2.736  18.540  0.00  0.00    +0.000 HD
ENDBRANCH   3   5
BRANCH   1  19
ATOM     16  C   UNL     1       0.396  10.259  19.727  0.00  0.00    +0.000 A 
ATOM     17  C   UNL     1       0.651  10.525  18.395  0.00  0.00    +0.000 A 
ATOM     18  C   UNL     1       1.468   9.471  17.919  0.00  0.00    +0.000 A 
ATOM     19  C   UNL     1       1.689   8.626  18.987  0.00  0.00    +0.000 A 
ATOM     20  O   UNL     1       1.050   9.115  20.096  0.00  0.00    +0.000 OA
BRANCH  16  24
ATOM     21  C   UNL     1      -2.188  12.014  22.671  0.00  0.00    +0.000 A 
ATOM     22  C   UNL     1      -2.248  12.425  21.337  0.00  0.00    +0.000 A 
ATOM     23  C   UNL     1      -1.380  11.873  20.386  0.00  0.00    +0.000 A 
ATOM     24  C   UNL     1      -0.440  10.894  20.746  0.00  0.00    +0.000 A 
ATOM     25  C   UNL     1      -0.368  10.511  22.092  0.00  0.00    +0.000 A 
ATOM     26  C   UNL     1      -1.234  11.060  23.046  0.00  0.00    +0.000 A 
BRANCH  21  28
ATOM     27  C   UNL     1      -2.941  13.967  24.179  0.00  0.00    +0.000 C 
ATOM     28  C   UNL     1      -3.121  12.547  23.707  0.00  0.00    +0.000 C 
ATOM     29  O   UNL     1      -4.021  11.836  24.148  0.00  0.00    +0.000 OA
ENDBRANCH  21  28
ENDBRANCH  16  24
ENDBRANCH   1  19
TORSDOF 4
ENDMDL
MODEL 6
REMARK VINA RESULT:      -8.3      1.548      2.836
REMARK  Name = 
REMARK  9 active torsions:
REMARK  status: ('A' for Active; 'I' for Inactive)
REMARK    1  A    between atoms: C_1  and  C_2
REMARK    2  A    between atoms: C_2  and  C_4
REMARK    3  A    between atoms: C_7  and  C_8
REMARK    4  A    between atoms: C_11  and  C_12
REMARK    5  A    between atoms: N_14  and  C_15
REMARK    6  A    between atoms: C_17  and  C_18
REMARK    7  A    between atoms: C_17  and  C_19
REMARK    8  A    between atoms: C_21  and  C_22
REMARK    9  A    between atoms: C_21  and  C_23
REMARK                            x       y       z     vdW  Elec       q    Type
REMARK                         _______ _______ _______ _____ _____    ______ ____
ROOT
ATOM      1  C   UNL     1       2.001   8.557  18.360  0.00  0.00    +0.000 C 
ATOM      2  O   UNL     1       2.410   8.360  17.219  0.00  0.00    +0.000 OA
ATOM      3  N   UNL     1       1.928   7.547  19.302  0.00  0.00    +0.000 N 
ATOM      4  H   UNL     1       1.697   7.825  20.249  0.00  0.00    +0.000 HD
ENDROOT
BRANCH   3   5
ATOM      5  C   UNL     1       2.383   6.182  19.036  0.00  0.00    +0.000 C 
ATOM      6  C   UNL     1       1.974   5.249  20.178  0.00  0.00    +0.000 C 
ATOM      7  C   UNL     1       2.478   3.802  19.985  0.00  0.00    +0.000 C 
ATOM      8  C   UNL     1       2.361   3.060  21.335  0.00  0.00    +0.000 C 
ATOM      9  C   UNL     1       1.603   3.028  18.982  0.00  0.00    +0.000 C 
ATOM     10  N   UNL     1       3.902   3.757  19.632  0.00  0.00    +0.000 NA
ATOM     11  C   UNL     1       4.418   4.696  18.627  0.00  0.00    +0.000 C 
ATOM     12  C   UNL     1       5.953   4.694  18.794  0.00  0.00    +0.000 C 
ATOM     13  C   UNL     1       4.128   4.227  17.190  0.00  0.00    +0.000 C 
ATOM     14  C   UNL     1       3.904   6.129  18.870  0.00  0.00    +0.000 C 
ATOM     15  H   UNL     1       4.189   2.802  19.411  0.00  0.00    +0.000 HD
ENDBRANCH   3   5
BRANCH   1  19
ATOM     16  C   UNL     1       0.310  11.256  20.015  0.00  0.00    +0.000 A 
ATOM     17  C   UNL     1       1.088  12.026  19.171  0.00  0.00    +0.000 A 
ATOM     18  C   UNL     1       1.863  11.128  18.399  0.00  0.00    +0.000 A 
ATOM     19  C   UNL     1       1.538   9.856  18.823  0.00  0.00    +0.000 A 
ATOM     20  O   UNL     1       0.603   9.934  19.823  0.00  0.00    +0.000 OA
BRANCH  16  24
ATOM     21  C   UNL     1      -2.687  12.265  22.916  0.00  0.00    +0.000 A 
ATOM     22  C   UNL     1      -1.676  11.352  23.227  0.00  0.00    +0.000 A 
ATOM     23  C   UNL     1      -0.720  11.000  22.266  0.00  0.00    +0.000 A 
ATOM     24  C   UNL     1      -0.748  11.559  20.978  0.00  0.00    +0.000 A 
ATOM     25  C   UNL     1      -1.783  12.452  20.668  0.00  0.00    +0.000 A 
ATOM     26  C   UNL     1      -2.742  12.806  21.626  0.00  0.00    +0.000 A 
BRANCH  21  28
ATOM     27  C   UNL     1      -3.760  14.152  24.311  0.00  0.00    +0.000 C 
ATOM     28  C   UNL     1      -3.702  12.697  23.923  0.00  0.00    +0.000 C 
ATOM     29  O   UNL     1      -4.475  11.875  24.408  0.00  0.00    +0.000 OA
ENDBRANCH  21  28
ENDBRANCH  16  24
ENDBRANCH   1  19
TORSDOF 4
ENDMDL
MODEL 7
REMARK VINA RESULT:      -8.2      2.606     10.003
REMARK  Name = 
REMARK  9 active torsions:
REMARK  status: ('A' for Active; 'I' for Inactive)
REMARK    1  A    between atoms: C_1  and  C_2
REMARK    2  A    between atoms: C_2  and  C_4
REMARK    3  A    between atoms: C_7  and  C_8
REMARK    4  A    between atoms: C_11  and  C_12
REMARK    5  A    between atoms: N_14  and  C_15
REMARK    6  A    between atoms: C_17  and  C_18
REMARK    7  A    between atoms: C_17  and  C_19
REMARK    8  A    between atoms: C_21  and  C_22
REMARK    9  A    between atoms: C_21  and  C_23
REMARK                            x       y       z     vdW  Elec       q    Type
REMARK                         _______ _______ _______ _____ _____    ______ ____
ROOT
ATOM      1  C   UNL     1       1.069   8.108  20.488  0.00  0.00    +0.000 C 
ATOM      2  O   UNL     1       0.283   8.166  21.429  0.00  0.00    +0.000 OA
ATOM      3  N   UNL     1       1.249   9.161  19.610  0.00  0.00    +0.000 N 
ATOM      4  H   UNL     1       2.005   9.071  18.941  0.00  0.00    +0.000 HD
ENDROOT
BRANCH   3   5
ATOM      5  C   UNL     1       0.564  10.446  19.764  0.00  0.00    +0.000 C 
ATOM      6  C   UNL     1       0.247  10.711  21.237  0.00  0.00    +0.000 C 
ATOM      7  C   UNL     1      -0.530  12.027  21.459  0.00  0.00    +0.000 C 
ATOM      8  C   UNL     1      -1.130  12.005  22.883  0.00  0.00    +0.000 C 
ATOM      9  C   UNL     1       0.401  13.252  21.395  0.00  0.00    +0.000 C 
ATOM     10  N   UNL     1      -1.676  12.150  20.550  0.00  0.00    +0.000 NA
ATOM     11  C   UNL     1      -1.503  11.804  19.133  0.00  0.00    +0.000 C 
ATOM     12  C   UNL     1      -2.926  11.625  18.563  0.00  0.00    +0.000 C 
ATOM     13  C   UNL     1      -0.845  12.943  18.332  0.00  0.00    +0.000 C 
ATOM     14  C   UNL     1      -0.738  10.476  18.960  0.00  0.00    +0.000 C 
ATOM     15  H   UNL     1      -2.114  13.068  20.644  0.00  0.00    +0.000 HD
ENDBRANCH   3   5
BRANCH   1  19
ATOM     16  C   UNL     1       3.308   5.695  19.056  0.00  0.00    +0.000 A 
ATOM     17  C   UNL     1       2.830   4.904  20.083  0.00  0.00    +0.000 A 
ATOM     18  C   UNL     1       1.897   5.689  20.802  0.00  0.00    +0.000 A 
ATOM     19  C   UNL     1       1.867   6.927  20.193  0.00  0.00    +0.000 A 
ATOM     20  O   UNL     1       2.743   6.938  19.138  0.00  0.00    +0.000 OA
BRANCH  16  24
ATOM     21  C   UNL     1       5.803   4.974  15.639  0.00  0.00    +0.000 A 
ATOM     22  C   UNL     1       5.280   3.907  16.376  0.00  0.00    +0.000 A 
ATOM     23  C   UNL     1       4.494   4.148  17.510  0.00  0.00    +0.000 A 
ATOM     24  C   UNL     1       4.207   5.458  17.927  0.00  0.00    +0.000 A 
ATOM     25  C   UNL     1       4.761   6.519  17.198  0.00  0.00    +0.000 A 
ATOM     26  C   UNL     1       5.547   6.283  16.064  0.00  0.00    +0.000 A 
BRANCH  21  28
ATOM     27  C   UNL     1       6.115   3.777  13.375  0.00  0.00    +0.000 C 
ATOM     28  C   UNL     1       6.612   4.761  14.403  0.00  0.00    +0.000 C 
ATOM     29  O   UNL     1       7.653   5.392  14.233  0.00  0.00    +0.000 OA
ENDBRANCH  21  28
ENDBRANCH  16  24
ENDBRANCH   1  19
TORSDOF 4
ENDMDL
MODEL 8
REMARK VINA RESULT:      -8.2      1.278      1.329
REMARK  Name = 
REMARK  9 active torsions:
REMARK  status: ('A' for Active; 'I' for Inactive)
REMARK    1  A    between atoms: C_1  and  C_2
REMARK    2  A    between atoms: C_2  and  C_4
REMARK    3  A    between atoms: C_7  and  C_8
REMARK    4  A    between atoms: C_11  and  C_12
REMARK    5  A    between atoms: N_14  and  C_15
REMARK    6  A    between atoms: C_17  and  C_18
REMARK    7  A    between atoms: C_17  and  C_19
REMARK    8  A    between atoms: C_21  and  C_22
REMARK    9  A    between atoms: C_21  and  C_23
REMARK                            x       y       z     vdW  Elec       q    Type
REMARK                         _______ _______ _______ _____ _____    ______ ____
ROOT
ATOM      1  C   UNL     1       2.192   7.651  19.331  0.00  0.00    +0.000 C 
ATOM      2  O   UNL     1       2.202   6.963  20.348  0.00  0.00    +0.000 OA
ATOM      3  N   UNL     1       2.903   7.303  18.198  0.00  0.00    +0.000 N 
ATOM      4  H   UNL     1       2.738   7.862  17.369  0.00  0.00    +0.000 HD
ENDROOT
BRANCH   3   5
ATOM      5  C   UNL     1       3.675   6.063  18.097  0.00  0.00    +0.000 C 
ATOM      6  C   UNL     1       4.556   6.081  16.847  0.00  0.00    +0.000 C 
ATOM      7  C   UNL     1       5.354   4.773  16.651  0.00  0.00    +0.000 C 
ATOM      8  C   UNL     1       5.885   4.737  15.201  0.00  0.00    +0.000 C 
ATOM      9  C   UNL     1       6.587   4.720  17.572  0.00  0.00    +0.000 C 
ATOM     10  N   UNL     1       4.504   3.584  16.791  0.00  0.00    +0.000 NA
ATOM     11  C   UNL     1       3.538   3.522  17.896  0.00  0.00    +0.000 C 
ATOM     12  C   UNL     1       2.543   2.402  17.526  0.00  0.00    +0.000 C 
ATOM     13  C   UNL     1       4.200   3.108  19.223  0.00  0.00    +0.000 C 
ATOM     14  C   UNL     1       2.754   4.842  18.041  0.00  0.00    +0.000 C 
ATOM     15  H   UNL     1       5.067   2.733  16.758  0.00  0.00    +0.000 HD
ENDBRANCH   3   5
BRANCH   1  19
ATOM     16  C   UNL     1       0.460  10.729  19.973  0.00  0.00    +0.000 A 
ATOM     17  C   UNL     1       0.251  10.691  18.607  0.00  0.00    +0.000 A 
ATOM     18  C   UNL     1       0.876   9.512  18.133  0.00  0.00    +0.000 A 
ATOM     19  C   UNL     1       1.454   8.901  19.226  0.00  0.00    +0.000 A 
ATOM     20  O   UNL     1       1.216   9.652  20.348  0.00  0.00    +0.000 OA
BRANCH  16  24
ATOM     21  C   UNL     1      -0.997  13.394  23.005  0.00  0.00    +0.000 A 
ATOM     22  C   UNL     1      -0.083  13.839  22.047  0.00  0.00    +0.000 A 
ATOM     23  C   UNL     1       0.415  12.957  21.080  0.00  0.00    +0.000 A 
ATOM     24  C   UNL     1       0.005  11.615  21.044  0.00  0.00    +0.000 A 
ATOM     25  C   UNL     1      -0.890  11.172  22.028  0.00  0.00    +0.000 A 
ATOM     26  C   UNL     1      -1.391  12.050  22.997  0.00  0.00    +0.000 A 
BRANCH  21  28
ATOM     27  C   UNL     1      -3.077  14.319  24.219  0.00  0.00    +0.000 C 
ATOM     28  C   UNL     1      -1.583  14.311  24.028  0.00  0.00    +0.000 C 
ATOM     29  O   UNL     1      -0.849  15.030  24.702  0.00  0.00    +0.000 OA
ENDBRANCH  21  28
ENDBRANCH  16  24
ENDBRANCH   1  19
TORSDOF 4
ENDMDL
MODEL 9
REMARK VINA RESULT:      -8.2      2.732      9.946
REMARK  Name = 
REMARK  9 active torsions:
REMARK  status: ('A' for Active; 'I' for Inactive)
REMARK    1  A    between atoms: C_1  and  C_2
REMARK    2  A    between atoms: C_2  and  C_4
REMARK    3  A    between atoms: C_7  and  C_8
REMARK    4  A    between atoms: C_11  and  C_12
REMARK    5  A    between atoms: N_14  and  C_15
REMARK    6  A    between atoms: C_17  and  C_18
REMARK    7  A    between atoms: C_17  and  C_19
REMARK    8  A    between atoms: C_21  and  C_22
REMARK    9  A    between atoms: C_21  and  C_23
REMARK                            x       y       z     vdW  Elec       q    Type
REMARK                         _______ _______ _______ _____ _____    ______ ____
ROOT
ATOM      1  C   UNL     1       1.330   8.612  20.742  0.00  0.00    +0.000 C 
ATOM      2  O   UNL     1       1.422   8.984  21.909  0.00  0.00    +0.000 OA
ATOM      3  N   UNL     1       0.716   9.379  19.769  0.00  0.00    +0.000 N 
ATOM      4  H   UNL     1       0.796   9.050  18.814  0.00  0.00    +0.000 HD
ENDROOT
BRANCH   3   5
ATOM      5  C   UNL     1       0.179  10.715  20.035  0.00  0.00    +0.000 C 
ATOM      6  C   UNL     1       1.315  11.727  20.194  0.00  0.00    +0.000 C 
ATOM      7  C   UNL     1       0.815  13.147  20.536  0.00  0.00    +0.000 C 
ATOM      8  C   UNL     1       2.012  13.976  21.053  0.00  0.00    +0.000 C 
ATOM      9  C   UNL     1       0.283  13.876  19.288  0.00  0.00    +0.000 C 
ATOM     10  N   UNL     1      -0.161  13.138  21.634  0.00  0.00    +0.000 NA
ATOM     11  C   UNL     1      -1.225  12.126  21.633  0.00  0.00    +0.000 C 
ATOM     12  C   UNL     1      -1.791  12.104  23.069  0.00  0.00    +0.000 C 
ATOM     13  C   UNL     1      -2.392  12.509  20.704  0.00  0.00    +0.000 C 
ATOM     14  C   UNL     1      -0.677  10.723  21.304  0.00  0.00    +0.000 C 
ATOM     15  H   UNL     1      -0.553  14.070  21.776  0.00  0.00    +0.000 HD
ENDBRANCH   3   5
BRANCH   1  19
ATOM     16  C   UNL     1       2.967   5.963  18.957  0.00  0.00    +0.000 A 
ATOM     17  C   UNL     1       2.304   5.172  19.877  0.00  0.00    +0.000 A 
ATOM     18  C   UNL     1       1.569   6.048  20.712  0.00  0.00    +0.000 A 
ATOM     19  C   UNL     1       1.836   7.330  20.276  0.00  0.00    +0.000 A 
ATOM     20  O   UNL     1       2.704   7.280  19.216  0.00  0.00    +0.000 OA
BRANCH  16  24
ATOM     21  C   UNL     1       5.557   5.146  15.634  0.00  0.00    +0.000 A 
ATOM     22  C   UNL     1       5.287   6.462  16.018  0.00  0.00    +0.000 A 
ATOM     23  C   UNL     1       4.414   6.724  17.082  0.00  0.00    +0.000 A 
ATOM     24  C   UNL     1       3.800   5.678  17.790  0.00  0.00    +0.000 A 
ATOM     25  C   UNL     1       4.056   4.363  17.377  0.00  0.00    +0.000 A 
ATOM     26  C   UNL     1       4.927   4.096  16.314  0.00  0.00    +0.000 A 
BRANCH  21  28
ATOM     27  C   UNL     1       6.091   3.825  13.483  0.00  0.00    +0.000 C 
ATOM     28  C   UNL     1       6.511   4.822  14.533  0.00  0.00    +0.000 C 
ATOM     29  O   UNL     1       7.609   5.373  14.487  0.00  0.00    +0.000 OA
ENDBRANCH  21  28
ENDBRANCH  16  24
ENDBRANCH   1  19
TORSDOF 4
ENDMDL
