MODEL 1
REMARK VINA RESULT:      -6.8      0.000      0.000
REMARK  Name = 
REMARK  2 active torsions:
REMARK  status: ('A' for Active; 'I' for Inactive)
REMARK    1  A    between atoms: S_2  and  C_4
REMARK    2  A    between atoms: S_2  and  N_12
REMARK                            x       y       z     vdW  Elec       q    Type
REMARK                         _______ _______ _______ _____ _____    ______ ____
ROOT
ATOM      1  O   UNL     1       5.217   3.193  19.716  0.00  0.00    +0.000 OA
ATOM      2  S   UNL     1       4.295   3.628  18.693  0.00  0.00    +0.000 S 
ATOM      3  O   UNL     1       3.367   2.676  18.111  0.00  0.00    +0.000 OA
ENDROOT
BRANCH   2   4
ATOM      4  C   UNL     1       3.304   4.978  19.312  0.00  0.00    +0.000 A 
ATOM      5  C   UNL     1       3.293   6.163  18.544  0.00  0.00    +0.000 A 
ATOM      6  C   UNL     1       2.506   7.247  18.925  0.00  0.00    +0.000 A 
ATOM      7 CL   UNL     1       2.527   8.691  17.994  0.00  0.00    +0.000 Cl
ATOM      8  C   UNL     1       1.699   7.167  20.054  0.00  0.00    +0.000 A 
ATOM      9  C   UNL     1       1.683   5.988  20.800  0.00  0.00    +0.000 A 
ATOM     10  C   UNL     1       2.479   4.889  20.439  0.00  0.00    +0.000 A 
ATOM     11 CL   UNL     1       2.370   3.524  21.486  0.00  0.00    +0.000 Cl
ENDBRANCH   2   4
BRANCH   2  12
ATOM     12  N   UNL     1       5.203   4.316  17.417  0.00  0.00    +0.000 NA
ATOM     13  C   UNL     1       6.613   4.661  17.722  0.00  0.00    +0.000 C 
ATOM     14  C   UNL     1       7.175   5.592  16.653  0.00  0.00    +0.000 C 
ATOM     15  C   UNL     1       7.048   4.968  15.270  0.00  0.00    +0.000 C 
ATOM     16  C   UNL     1       5.589   4.635  14.986  0.00  0.00    +0.000 C 
ATOM     17  C   UNL     1       4.989   3.737  16.068  0.00  0.00    +0.000 C 
ENDBRANCH   2  12
TORSDOF 2
ENDMDL
MODEL 2
REMARK VINA RESULT:      -6.5      2.401      5.268
REMARK  Name = 
REMARK  2 active torsions:
REMARK  status: ('A' for Active; 'I' for Inactive)
REMARK    1  A    between atoms: S_2  and  C_4
REMARK    2  A    between atoms: S_2  and  N_12
REMARK                            x       y       z     vdW  Elec       q    Type
REMARK                         _______ _______ _______ _____ _____    ______ ____
ROOT
ATOM      1  O   UNL     1       2.369   3.167  16.692  0.00  0.00    +0.000 OA
ATOM      2  S   UNL     1       3.407   3.249  17.693  0.00  0.00    +0.000 S 
ATOM      3  O   UNL     1       3.777   2.061  18.441  0.00  0.00    +0.000 OA
ENDROOT
BRANCH   2   4
ATOM      4  C   UNL     1       4.911   3.862  16.951  0.00  0.00    +0.000 A 
ATOM      5  C   UNL     1       5.058   3.668  15.560  0.00  0.00    +0.000 A 
ATOM      6  C   UNL     1       6.176   4.160  14.890  0.00  0.00    +0.000 A 
ATOM      7 CL   UNL     1       6.352   3.889  13.202  0.00  0.00    +0.000 Cl
ATOM      8  C   UNL     1       7.150   4.874  15.579  0.00  0.00    +0.000 A 
ATOM      9  C   UNL     1       6.994   5.094  16.948  0.00  0.00    +0.000 A 
ATOM     10  C   UNL     1       5.881   4.595  17.643  0.00  0.00    +0.000 A 
ATOM     11 CL   UNL     1       5.860   4.924  19.335  0.00  0.00    +0.000 Cl
ENDBRANCH   2   4
BRANCH   2  12
ATOM     12  N   UNL     1       2.964   4.456  18.821  0.00  0.00    +0.000 NA
ATOM     13  C   UNL     1       2.480   5.740  18.256  0.00  0.00    +0.000 C 
ATOM     14  C   UNL     1       2.489   6.827  19.325  0.00  0.00    +0.000 C 
ATOM     15  C   UNL     1       1.658   6.408  20.531  0.00  0.00    +0.000 C 
ATOM     16  C   UNL     1       2.188   5.093  21.090  0.00  0.00    +0.000 C 
ATOM     17  C   UNL     1       2.230   3.998  20.025  0.00  0.00    +0.000 C 
ENDBRANCH   2  12
TORSDOF 2
ENDMDL
MODEL 3
REMARK VINA RESULT:      -6.4      2.724      5.163
REMARK  Name = 
REMARK  2 active torsions:
REMARK  status: ('A' for Active; 'I' for Inactive)
REMARK    1  A    between atoms: S_2  and  C_4
REMARK    2  A    between atoms: S_2  and  N_12
REMARK                            x       y       z     vdW  Elec       q    Type
REMARK                         _______ _______ _______ _____ _____    ______ ____
ROOT
ATOM      1  O   UNL     1       1.049   4.304  17.139  0.00  0.00    +0.000 OA
ATOM      2  S   UNL     1       2.290   3.637  17.456  0.00  0.00    +0.000 S 
ATOM      3  O   UNL     1       2.623   2.389  16.795  0.00  0.00    +0.000 OA
ENDROOT
BRANCH   2   4
ATOM      4  C   UNL     1       3.660   4.743  17.159  0.00  0.00    +0.000 A 
ATOM      5  C   UNL     1       4.676   4.277  16.296  0.00  0.00    +0.000 A 
ATOM      6  C   UNL     1       5.755   5.093  15.967  0.00  0.00    +0.000 A 
ATOM      7 CL   UNL     1       6.998   4.500  14.939  0.00  0.00    +0.000 Cl
ATOM      8  C   UNL     1       5.832   6.390  16.464  0.00  0.00    +0.000 A 
ATOM      9  C   UNL     1       4.816   6.865  17.293  0.00  0.00    +0.000 A 
ATOM     10  C   UNL     1       3.727   6.052  17.646  0.00  0.00    +0.000 A 
ATOM     11 CL   UNL     1       2.578   6.779  18.706  0.00  0.00    +0.000 Cl
ENDBRANCH   2   4
BRANCH   2  12
ATOM     12  N   UNL     1       2.326   3.356  19.144  0.00  0.00    +0.000 NA
ATOM     13  C   UNL     1       1.015   3.349  19.839  0.00  0.00    +0.000 C 
ATOM     14  C   UNL     1       1.213   3.473  21.346  0.00  0.00    +0.000 C 
ATOM     15  C   UNL     1       2.118   2.364  21.866  0.00  0.00    +0.000 C 
ATOM     16  C   UNL     1       3.456   2.406  21.138  0.00  0.00    +0.000 C 
ATOM     17  C   UNL     1       3.282   2.328  19.622  0.00  0.00    +0.000 C 
ENDBRANCH   2  12
TORSDOF 2
ENDMDL
MODEL 4
REMARK VINA RESULT:      -6.3      2.371      5.099
REMARK  Name = 
REMARK  2 active torsions:
REMARK  status: ('A' for Active; 'I' for Inactive)
REMARK    1  A    between atoms: S_2  and  C_4
REMARK    2  A    between atoms: S_2  and  N_12
REMARK                            x       y       z     vdW  Elec       q    Type
REMARK                         _______ _______ _______ _____ _____    ______ ____
ROOT
ATOM      1  O   UNL     1       2.503   2.931  17.107  0.00  0.00    +0.000 OA
ATOM      2  S   UNL     1       3.441   3.518  18.036  0.00  0.00    +0.000 S 
ATOM      3  O   UNL     1       3.878   2.757  19.192  0.00  0.00    +0.000 OA
ENDROOT
BRANCH   2   4
ATOM      4  C   UNL     1       4.923   4.004  17.167  0.00  0.00    +0.000 A 
ATOM      5  C   UNL     1       4.953   3.758  15.777  0.00  0.00    +0.000 A 
ATOM      6  C   UNL     1       6.048   4.152  15.011  0.00  0.00    +0.000 A 
ATOM      7 CL   UNL     1       6.081   3.818  13.326  0.00  0.00    +0.000 Cl
ATOM      8  C   UNL     1       7.116   4.818  15.603  0.00  0.00    +0.000 A 
ATOM      9  C   UNL     1       7.077   5.090  16.971  0.00  0.00    +0.000 A 
ATOM     10  C   UNL     1       5.988   4.690  17.761  0.00  0.00    +0.000 A 
ATOM     11 CL   UNL     1       6.114   5.071  19.437  0.00  0.00    +0.000 Cl
ENDBRANCH   2   4
BRANCH   2  12
ATOM     12  N   UNL     1       2.777   4.989  18.603  0.00  0.00    +0.000 NA
ATOM     13  C   UNL     1       2.672   5.142  20.075  0.00  0.00    +0.000 C 
ATOM     14  C   UNL     1       1.737   6.294  20.425  0.00  0.00    +0.000 C 
ATOM     15  C   UNL     1       2.203   7.587  19.769  0.00  0.00    +0.000 C 
ATOM     16  C   UNL     1       2.289   7.398  18.259  0.00  0.00    +0.000 C 
ATOM     17  C   UNL     1       3.187   6.220  17.884  0.00  0.00    +0.000 C 
ENDBRANCH   2  12
TORSDOF 2
ENDMDL
MODEL 5
REMARK VINA RESULT:      -6.3      2.667      5.018
REMARK  Name = 
REMARK  2 active torsions:
REMARK  status: ('A' for Active; 'I' for Inactive)
REMARK    1  A    between atoms: S_2  and  C_4
REMARK    2  A    between atoms: S_2  and  N_12
REMARK                            x       y       z     vdW  Elec       q    Type
REMARK                         _______ _______ _______ _____ _____    ______ ____
ROOT
ATOM      1  O   UNL     1       0.999   4.372  17.160  0.00  0.00    +0.000 OA
ATOM      2  S   UNL     1       2.224   3.650  17.415  0.00  0.00    +0.000 S 
ATOM      3  O   UNL     1       2.541   2.474  16.625  0.00  0.00    +0.000 OA
ENDROOT
BRANCH   2   4
ATOM      4  C   UNL     1       3.617   4.754  17.252  0.00  0.00    +0.000 A 
ATOM      5  C   UNL     1       4.695   4.304  16.460  0.00  0.00    +0.000 A 
ATOM      6  C   UNL     1       5.800   5.122  16.236  0.00  0.00    +0.000 A 
ATOM      7 CL   UNL     1       7.116   4.546  15.293  0.00  0.00    +0.000 Cl
ATOM      8  C   UNL     1       5.844   6.405  16.770  0.00  0.00    +0.000 A 
ATOM      9  C   UNL     1       4.768   6.865  17.529  0.00  0.00    +0.000 A 
ATOM     10  C   UNL     1       3.651   6.051  17.775  0.00  0.00    +0.000 A 
ATOM     11 CL   UNL     1       2.427   6.759  18.761  0.00  0.00    +0.000 Cl
ENDBRANCH   2   4
BRANCH   2  12
ATOM     12  N   UNL     1       2.235   3.187  19.062  0.00  0.00    +0.000 NA
ATOM     13  C   UNL     1       3.550   3.222  19.748  0.00  0.00    +0.000 C 
ATOM     14  C   UNL     1       3.487   2.440  21.056  0.00  0.00    +0.000 C 
ATOM     15  C   UNL     1       2.383   2.978  21.955  0.00  0.00    +0.000 C 
ATOM     16  C   UNL     1       1.047   2.919  21.224  0.00  0.00    +0.000 C 
ATOM     17  C   UNL     1       1.097   3.659  19.888  0.00  0.00    +0.000 C 
ENDBRANCH   2  12
TORSDOF 2
ENDMDL
MODEL 6
REMARK VINA RESULT:      -6.3      0.550      1.323
REMARK  Name = 
REMARK  2 active torsions:
REMARK  status: ('A' for Active; 'I' for Inactive)
REMARK    1  A    between atoms: S_2  and  C_4
REMARK    2  A    between atoms: S_2  and  N_12
REMARK                            x       y       z     vdW  Elec       q    Type
REMARK                         _______ _______ _______ _____ _____    ______ ____
ROOT
ATOM      1  O   UNL     1       4.923   2.561  19.991  0.00  0.00    +0.000 OA
ATOM      2  S   UNL     1       4.147   3.096  18.896  0.00  0.00    +0.000 S 
ATOM      3  O   UNL     1       3.164   2.256  18.236  0.00  0.00    +0.000 OA
ENDROOT
BRANCH   2   4
ATOM      4  C   UNL     1       3.277   4.559  19.434  0.00  0.00    +0.000 A 
ATOM      5  C   UNL     1       3.369   5.695  18.601  0.00  0.00    +0.000 A 
ATOM      6  C   UNL     1       2.680   6.863  18.917  0.00  0.00    +0.000 A 
ATOM      7 CL   UNL     1       2.826   8.245  17.907  0.00  0.00    +0.000 Cl
ATOM      8  C   UNL     1       1.869   6.917  20.045  0.00  0.00    +0.000 A 
ATOM      9  C   UNL     1       1.752   5.788  20.856  0.00  0.00    +0.000 A 
ATOM     10  C   UNL     1       2.449   4.605  20.560  0.00  0.00    +0.000 A 
ATOM     11 CL   UNL     1       2.222   3.316  21.682  0.00  0.00    +0.000 Cl
ENDBRANCH   2   4
BRANCH   2  12
ATOM     12  N   UNL     1       5.234   3.660  17.701  0.00  0.00    +0.000 NA
ATOM     13  C   UNL     1       4.645   3.998  16.382  0.00  0.00    +0.000 C 
ATOM     14  C   UNL     1       5.739   4.112  15.325  0.00  0.00    +0.000 C 
ATOM     15  C   UNL     1       6.787   5.136  15.740  0.00  0.00    +0.000 C 
ATOM     16  C   UNL     1       7.377   4.753  17.092  0.00  0.00    +0.000 C 
ATOM     17  C   UNL     1       6.295   4.590  18.159  0.00  0.00    +0.000 C 
ENDBRANCH   2  12
TORSDOF 2
ENDMDL
MODEL 7
REMARK VINA RESULT:      -6.3      2.830      5.347
REMARK  Name = 
REMARK  2 active torsions:
REMARK  status: ('A' for Active; 'I' for Inactive)
REMARK    1  A    between atoms: S_2  and  C_4
REMARK    2  A    between atoms: S_2  and  N_12
REMARK                            x       y       z     vdW  Elec       q    Type
REMARK                         _______ _______ _______ _____ _____    ______ ____
ROOT
ATOM      1  O   UNL     1       2.339   5.853  17.728  0.00  0.00    +0.000 OA
ATOM      2  S   UNL     1       2.831   4.499  17.626  0.00  0.00    +0.000 S 
ATOM      3  O   UNL     1       2.132   3.542  16.788  0.00  0.00    +0.000 OA
ENDROOT
BRANCH   2   4
ATOM      4  C   UNL     1       4.525   4.516  17.061  0.00  0.00    +0.000 A 
ATOM      5  C   UNL     1       4.749   4.152  15.716  0.00  0.00    +0.000 A 
ATOM      6  C   UNL     1       6.033   4.188  15.176  0.00  0.00    +0.000 A 
ATOM      7 CL   UNL     1       6.291   3.713  13.545  0.00  0.00    +0.000 Cl
ATOM      8  C   UNL     1       7.109   4.609  15.951  0.00  0.00    +0.000 A 
ATOM      9  C   UNL     1       6.887   4.998  17.272  0.00  0.00    +0.000 A 
ATOM     10  C   UNL     1       5.603   4.957  17.836  0.00  0.00    +0.000 A 
ATOM     11 CL   UNL     1       5.509   5.436  19.490  0.00  0.00    +0.000 Cl
ENDBRANCH   2   4
BRANCH   2  12
ATOM     12  N   UNL     1       2.914   3.844  19.204  0.00  0.00    +0.000 NA
ATOM     13  C   UNL     1       1.779   4.155  20.108  0.00  0.00    +0.000 C 
ATOM     14  C   UNL     1       2.151   3.847  21.554  0.00  0.00    +0.000 C 
ATOM     15  C   UNL     1       2.592   2.397  21.703  0.00  0.00    +0.000 C 
ATOM     16  C   UNL     1       3.763   2.115  20.770  0.00  0.00    +0.000 C 
ATOM     17  C   UNL     1       3.429   2.457  19.318  0.00  0.00    +0.000 C 
ENDBRANCH   2  12
TORSDOF 2
ENDMDL
MODEL 8
REMARK VINA RESULT:      -6.2      3.040      5.389
REMARK  Name = 
REMARK  2 active torsions:
REMARK  status: ('A' for Active; 'I' for Inactive)
REMARK    1  A    between atoms: S_2  and  C_4
REMARK    2  A    between atoms: S_2  and  N_12
REMARK                            x       y       z     vdW  Elec       q    Type
REMARK                         _______ _______ _______ _____ _____    ______ ____
ROOT
ATOM      1  O   UNL     1       5.274   5.438  19.634  0.00  0.00    +0.000 OA
ATOM      2  S   UNL     1       4.492   5.490  18.420  0.00  0.00    +0.000 S 
ATOM      3  O   UNL     1       3.704   6.673  18.125  0.00  0.00    +0.000 OA
ENDROOT
BRANCH   2   4
ATOM      4  C   UNL     1       5.555   5.231  17.009  0.00  0.00    +0.000 A 
ATOM      5  C   UNL     1       4.968   4.630  15.874  0.00  0.00    +0.000 A 
ATOM      6  C   UNL     1       5.709   4.438  14.711  0.00  0.00    +0.000 A 
ATOM      7 CL   UNL     1       4.987   3.679  13.349  0.00  0.00    +0.000 Cl
ATOM      8  C   UNL     1       7.032   4.861  14.643  0.00  0.00    +0.000 A 
ATOM      9  C   UNL     1       7.608   5.482  15.752  0.00  0.00    +0.000 A 
ATOM     10  C   UNL     1       6.880   5.673  16.937  0.00  0.00    +0.000 A 
ATOM     11 CL   UNL     1       7.749   6.422  18.223  0.00  0.00    +0.000 Cl
ENDBRANCH   2   4
BRANCH   2  12
ATOM     12  N   UNL     1       3.434   4.146  18.411  0.00  0.00    +0.000 NA
ATOM     13  C   UNL     1       3.957   2.891  19.005  0.00  0.00    +0.000 C 
ATOM     14  C   UNL     1       3.088   1.707  18.596  0.00  0.00    +0.000 C 
ATOM     15  C   UNL     1       1.635   1.940  18.989  0.00  0.00    +0.000 C 
ATOM     16  C   UNL     1       1.129   3.229  18.354  0.00  0.00    +0.000 C 
ATOM     17  C   UNL     1       2.009   4.425  18.715  0.00  0.00    +0.000 C 
ENDBRANCH   2  12
TORSDOF 2
ENDMDL
MODEL 9
REMARK VINA RESULT:      -6.2      2.681      4.176
REMARK  Name = 
REMARK  2 active torsions:
REMARK  status: ('A' for Active; 'I' for Inactive)
REMARK    1  A    between atoms: S_2  and  C_4
REMARK    2  A    between atoms: S_2  and  N_12
REMARK                            x       y       z     vdW  Elec       q    Type
REMARK                         _______ _______ _______ _____ _____    ______ ____
ROOT
ATOM      1  O   UNL     1       7.555   6.746  16.555  0.00  0.00    +0.000 OA
ATOM      2  S   UNL     1       7.164   5.357  16.487  0.00  0.00    +0.000 S 
ATOM      3  O   UNL     1       8.046   4.337  17.022  0.00  0.00    +0.000 OA
ENDROOT
BRANCH   2   4
ATOM      4  C   UNL     1       5.590   5.136  17.301  0.00  0.00    +0.000 A 
ATOM      5  C   UNL     1       5.501   4.080  18.234  0.00  0.00    +0.000 A 
ATOM      6  C   UNL     1       4.328   3.868  18.954  0.00  0.00    +0.000 A 
ATOM      7 CL   UNL     1       4.228   2.561  20.065  0.00  0.00    +0.000 Cl
ATOM      8  C   UNL     1       3.235   4.710  18.780  0.00  0.00    +0.000 A 
ATOM      9  C   UNL     1       3.328   5.772  17.880  0.00  0.00    +0.000 A 
ATOM     10  C   UNL     1       4.498   5.995  17.138  0.00  0.00    +0.000 A 
ATOM     11 CL   UNL     1       4.435   7.327  16.045  0.00  0.00    +0.000 Cl
ENDBRANCH   2   4
BRANCH   2  12
ATOM     12  N   UNL     1       6.856   4.972  14.849  0.00  0.00    +0.000 NA
ATOM     13  C   UNL     1       7.996   5.121  13.911  0.00  0.00    +0.000 C 
ATOM     14  C   UNL     1       7.500   5.120  12.469  0.00  0.00    +0.000 C 
ATOM     15  C   UNL     1       6.703   3.857  12.171  0.00  0.00    +0.000 C 
ATOM     16  C   UNL     1       5.537   3.741  13.145  0.00  0.00    +0.000 C 
ATOM     17  C   UNL     1       6.004   3.783  14.599  0.00  0.00    +0.000 C 
ENDBRANCH   2  12
TORSDOF 2
ENDMDL
