MODEL 1
REMARK VINA RESULT:      -8.2      0.000      0.000
REMARK  Name = 
REMARK  4 active torsions:
REMARK  status: ('A' for Active; 'I' for Inactive)
REMARK    1  A    between atoms: N_1  and  C_2
REMARK    2  A    between atoms: C_4  and  C_5
REMARK    3  A    between atoms: C_5  and  C_6
REMARK    4  A    between atoms: C_13  and  C_14
REMARK                            x       y       z     vdW  Elec       q    Type
REMARK                         _______ _______ _______ _____ _____    ______ ____
ROOT
ATOM      1  C   UNL     1       6.787   5.311  18.366  0.00  0.00    +0.000 A 
ATOM      2  C   UNL     1       5.459   5.610  18.648  0.00  0.00    +0.000 A 
ATOM      3  C   UNL     1       4.550   5.708  17.601  0.00  0.00    +0.000 A 
ATOM      4  N   UNL     1       4.898   5.469  16.311  0.00  0.00    +0.000 NA
ATOM      5  C   UNL     1       6.169   5.078  16.046  0.00  0.00    +0.000 A 
ATOM      6  C   UNL     1       7.129   4.993  17.054  0.00  0.00    +0.000 A 
ENDROOT
BRANCH   5   7
ATOM      7  C   UNL     1       6.443   4.709  14.641  0.00  0.00    +0.000 A 
ATOM      8  C   UNL     1       7.481   5.327  13.921  0.00  0.00    +0.000 A 
ATOM      9  C   UNL     1       7.733   5.008  12.582  0.00  0.00    +0.000 A 
ATOM     10  C   UNL     1       6.947   4.062  11.932  0.00  0.00    +0.000 A 
ATOM     11  C   UNL     1       5.910   3.437  12.618  0.00  0.00    +0.000 A 
ATOM     12  C   UNL     1       5.661   3.759  13.956  0.00  0.00    +0.000 A 
ENDBRANCH   5   7
BRANCH   1  13
ATOM     13  N   UNL     1       7.702   5.091  19.405  0.00  0.00    +0.000 N 
ATOM     14  H   UNL     1       8.029   4.133  19.471  0.00  0.00    +0.000 HD
ATOM     15  H   UNL     1       7.408   5.458  20.305  0.00  0.00    +0.000 HD
ENDBRANCH   1  13
BRANCH   3  16
ATOM     16  C   UNL     1       3.102   6.044  17.866  0.00  0.00    +0.000 C 
BRANCH  16  17
ATOM     17  C   UNL     1       2.346   4.973  18.619  0.00  0.00    +0.000 A 
ATOM     18  C   UNL     1       1.808   3.876  17.947  0.00  0.00    +0.000 A 
ATOM     19  C   UNL     1       1.059   2.944  18.661  0.00  0.00    +0.000 A 
ATOM     20  C   UNL     1       0.862   3.132  20.023  0.00  0.00    +0.000 A 
ATOM     21  C   UNL     1       1.435   4.242  20.618  0.00  0.00    +0.000 A 
ATOM     22  N   UNL     1       2.167   5.164  19.952  0.00  0.00    +0.000 NA
ENDBRANCH  16  17
ENDBRANCH   3  16
TORSDOF 4
ENDMDL
MODEL 2
REMARK VINA RESULT:      -8.2      0.071      1.078
REMARK  Name = 
REMARK  4 active torsions:
REMARK  status: ('A' for Active; 'I' for Inactive)
REMARK    1  A    between atoms: N_1  and  C_2
REMARK    2  A    between atoms: C_4  and  C_5
REMARK    3  A    between atoms: C_5  and  C_6
REMARK    4  A    between atoms: C_13  and  C_14
REMARK                            x       y       z     vdW  Elec       q    Type
REMARK                         _______ _______ _______ _____ _____    ______ ____
ROOT
ATOM      1  C   UNL     1       6.784   5.311  18.339  0.00  0.00    +0.000 A 
ATOM      2  C   UNL     1       5.455   5.599  18.627  0.00  0.00    +0.000 A 
ATOM      3  C   UNL     1       4.544   5.705  17.581  0.00  0.00    +0.000 A 
ATOM      4  N   UNL     1       4.892   5.486  16.288  0.00  0.00    +0.000 NA
ATOM      5  C   UNL     1       6.165   5.106  16.016  0.00  0.00    +0.000 A 
ATOM      6  C   UNL     1       7.127   5.013  17.022  0.00  0.00    +0.000 A 
ENDROOT
BRANCH   5   7
ATOM      7  C   UNL     1       6.439   4.757  14.606  0.00  0.00    +0.000 A 
ATOM      8  C   UNL     1       5.658   3.798  13.935  0.00  0.00    +0.000 A 
ATOM      9  C   UNL     1       5.924   3.437  12.609  0.00  0.00    +0.000 A 
ATOM     10  C   UNL     1       6.982   4.028  11.926  0.00  0.00    +0.000 A 
ATOM     11  C   UNL     1       7.773   4.977  12.565  0.00  0.00    +0.000 A 
ATOM     12  C   UNL     1       7.505   5.334  13.891  0.00  0.00    +0.000 A 
ENDBRANCH   5   7
BRANCH   1  13
ATOM     13  N   UNL     1       7.702   5.083  19.373  0.00  0.00    +0.000 N 
ATOM     14  H   UNL     1       8.119   5.929  19.749  0.00  0.00    +0.000 HD
ATOM     15  H   UNL     1       8.398   4.374  19.164  0.00  0.00    +0.000 HD
ENDBRANCH   1  13
BRANCH   3  16
ATOM     16  C   UNL     1       3.094   6.028  17.854  0.00  0.00    +0.000 C 
BRANCH  16  17
ATOM     17  C   UNL     1       2.340   4.933  18.572  0.00  0.00    +0.000 A 
ATOM     18  C   UNL     1       1.862   3.823  17.876  0.00  0.00    +0.000 A 
ATOM     19  C   UNL     1       1.112   2.867  18.557  0.00  0.00    +0.000 A 
ATOM     20  C   UNL     1       0.855   3.044  19.911  0.00  0.00    +0.000 A 
ATOM     21  C   UNL     1       1.370   4.169  20.532  0.00  0.00    +0.000 A 
ATOM     22  N   UNL     1       2.102   5.114  19.898  0.00  0.00    +0.000 NA
ENDBRANCH  16  17
ENDBRANCH   3  16
TORSDOF 4
ENDMDL
MODEL 3
REMARK VINA RESULT:      -8.1      0.656      1.520
REMARK  Name = 
REMARK  4 active torsions:
REMARK  status: ('A' for Active; 'I' for Inactive)
REMARK    1  A    between atoms: N_1  and  C_2
REMARK    2  A    between atoms: C_4  and  C_5
REMARK    3  A    between atoms: C_5  and  C_6
REMARK    4  A    between atoms: C_13  and  C_14
REMARK                            x       y       z     vdW  Elec       q    Type
REMARK                         _______ _______ _______ _____ _____    ______ ____
ROOT
ATOM      1  C   UNL     1       6.889   5.313  18.391  0.00  0.00    +0.000 A 
ATOM      2  C   UNL     1       5.572   5.626  18.707  0.00  0.00    +0.000 A 
ATOM      3  C   UNL     1       4.640   5.746  17.681  0.00  0.00    +0.000 A 
ATOM      4  N   UNL     1       4.957   5.518  16.381  0.00  0.00    +0.000 NA
ATOM      5  C   UNL     1       6.216   5.114  16.083  0.00  0.00    +0.000 A 
ATOM      6  C   UNL     1       7.197   5.006  17.068  0.00  0.00    +0.000 A 
ENDROOT
BRANCH   5   7
ATOM      7  C   UNL     1       6.453   4.756  14.668  0.00  0.00    +0.000 A 
ATOM      8  C   UNL     1       5.643   3.806  14.018  0.00  0.00    +0.000 A 
ATOM      9  C   UNL     1       5.874   3.437  12.688  0.00  0.00    +0.000 A 
ATOM     10  C   UNL     1       6.925   4.010  11.979  0.00  0.00    +0.000 A 
ATOM     11  C   UNL     1       7.744   4.950  12.597  0.00  0.00    +0.000 A 
ATOM     12  C   UNL     1       7.511   5.316  13.927  0.00  0.00    +0.000 A 
ENDBRANCH   5   7
BRANCH   1  13
ATOM     13  N   UNL     1       7.825   5.071  19.406  0.00  0.00    +0.000 N 
ATOM     14  H   UNL     1       7.426   5.049  20.339  0.00  0.00    +0.000 HD
ATOM     15  H   UNL     1       8.654   5.655  19.357  0.00  0.00    +0.000 HD
ENDBRANCH   1  13
BRANCH   3  16
ATOM     16  C   UNL     1       3.203   6.097  17.983  0.00  0.00    +0.000 C 
BRANCH  16  17
ATOM     17  C   UNL     1       2.403   4.965  18.585  0.00  0.00    +0.000 A 
ATOM     18  C   UNL     1       1.905   5.058  19.884  0.00  0.00    +0.000 A 
ATOM     19  C   UNL     1       1.231   3.968  20.431  0.00  0.00    +0.000 A 
ATOM     20  C   UNL     1       1.075   2.816  19.671  0.00  0.00    +0.000 A 
ATOM     21  C   UNL     1       1.592   2.805  18.388  0.00  0.00    +0.000 A 
ATOM     22  N   UNL     1       2.250   3.847  17.829  0.00  0.00    +0.000 NA
ENDBRANCH  16  17
ENDBRANCH   3  16
TORSDOF 4
ENDMDL
MODEL 4
REMARK VINA RESULT:      -8.1      0.709      1.114
REMARK  Name = 
REMARK  4 active torsions:
REMARK  status: ('A' for Active; 'I' for Inactive)
REMARK    1  A    between atoms: N_1  and  C_2
REMARK    2  A    between atoms: C_4  and  C_5
REMARK    3  A    between atoms: C_5  and  C_6
REMARK    4  A    between atoms: C_13  and  C_14
REMARK                            x       y       z     vdW  Elec       q    Type
REMARK                         _______ _______ _______ _____ _____    ______ ____
ROOT
ATOM      1  C   UNL     1       6.751   5.279  18.433  0.00  0.00    +0.000 A 
ATOM      2  C   UNL     1       5.401   5.457  18.710  0.00  0.00    +0.000 A 
ATOM      3  C   UNL     1       4.492   5.487  17.657  0.00  0.00    +0.000 A 
ATOM      4  N   UNL     1       4.867   5.296  16.367  0.00  0.00    +0.000 NA
ATOM      5  C   UNL     1       6.168   5.021  16.106  0.00  0.00    +0.000 A 
ATOM      6  C   UNL     1       7.127   5.009  17.119  0.00  0.00    +0.000 A 
ENDROOT
BRANCH   5   7
ATOM      7  C   UNL     1       6.480   4.694  14.698  0.00  0.00    +0.000 A 
ATOM      8  C   UNL     1       7.526   5.348  14.020  0.00  0.00    +0.000 A 
ATOM      9  C   UNL     1       7.814   5.070  12.679  0.00  0.00    +0.000 A 
ATOM     10  C   UNL     1       7.058   4.130  11.985  0.00  0.00    +0.000 A 
ATOM     11  C   UNL     1       6.016   3.470  12.629  0.00  0.00    +0.000 A 
ATOM     12  C   UNL     1       5.730   3.752  13.969  0.00  0.00    +0.000 A 
ENDBRANCH   5   7
BRANCH   1  13
ATOM     13  N   UNL     1       7.677   5.128  19.474  0.00  0.00    +0.000 N 
ATOM     14  H   UNL     1       7.485   4.342  20.087  0.00  0.00    +0.000 HD
ATOM     15  H   UNL     1       7.864   5.981  19.993  0.00  0.00    +0.000 HD
ENDBRANCH   1  13
BRANCH   3  16
ATOM     16  C   UNL     1       3.018   5.691  17.918  0.00  0.00    +0.000 C 
BRANCH  16  17
ATOM     17  C   UNL     1       2.397   4.642  18.811  0.00  0.00    +0.000 A 
ATOM     18  C   UNL     1       1.955   4.970  20.093  0.00  0.00    +0.000 A 
ATOM     19  C   UNL     1       1.451   3.964  20.914  0.00  0.00    +0.000 A 
ATOM     20  C   UNL     1       1.404   2.660  20.439  0.00  0.00    +0.000 A 
ATOM     21  C   UNL     1       1.855   2.417  19.153  0.00  0.00    +0.000 A 
ATOM     22  N   UNL     1       2.349   3.372  18.332  0.00  0.00    +0.000 NA
ENDBRANCH  16  17
ENDBRANCH   3  16
TORSDOF 4
ENDMDL
MODEL 5
REMARK VINA RESULT:      -7.9      2.669      5.307
REMARK  Name = 
REMARK  4 active torsions:
REMARK  status: ('A' for Active; 'I' for Inactive)
REMARK    1  A    between atoms: N_1  and  C_2
REMARK    2  A    between atoms: C_4  and  C_5
REMARK    3  A    between atoms: C_5  and  C_6
REMARK    4  A    between atoms: C_13  and  C_14
REMARK                            x       y       z     vdW  Elec       q    Type
REMARK                         _______ _______ _______ _____ _____    ______ ____
ROOT
ATOM      1  C   UNL     1       5.284   5.741  16.187  0.00  0.00    +0.000 A 
ATOM      2  C   UNL     1       4.979   4.431  16.534  0.00  0.00    +0.000 A 
ATOM      3  C   UNL     1       4.032   4.196  17.526  0.00  0.00    +0.000 A 
ATOM      4  N   UNL     1       3.353   5.201  18.135  0.00  0.00    +0.000 NA
ATOM      5  C   UNL     1       3.576   6.474  17.726  0.00  0.00    +0.000 A 
ATOM      6  C   UNL     1       4.535   6.768  16.757  0.00  0.00    +0.000 A 
ENDROOT
BRANCH   5   7
ATOM      7  C   UNL     1       2.709   7.502  18.339  0.00  0.00    +0.000 A 
ATOM      8  C   UNL     1       2.347   8.660  17.626  0.00  0.00    +0.000 A 
ATOM      9  C   UNL     1       1.550   9.655  18.203  0.00  0.00    +0.000 A 
ATOM     10  C   UNL     1       1.099   9.513  19.512  0.00  0.00    +0.000 A 
ATOM     11  C   UNL     1       1.443   8.380  20.242  0.00  0.00    +0.000 A 
ATOM     12  C   UNL     1       2.241   7.388  19.662  0.00  0.00    +0.000 A 
ENDBRANCH   5   7
BRANCH   1  13
ATOM     13  N   UNL     1       6.145   6.011  15.114  0.00  0.00    +0.000 N 
ATOM     14  H   UNL     1       6.512   6.957  15.107  0.00  0.00    +0.000 HD
ATOM     15  H   UNL     1       5.780   5.735  14.207  0.00  0.00    +0.000 HD
ENDBRANCH   1  13
BRANCH   3  16
ATOM     16  C   UNL     1       3.684   2.786  17.939  0.00  0.00    +0.000 C 
BRANCH  16  17
ATOM     17  C   UNL     1       2.850   2.698  19.197  0.00  0.00    +0.000 A 
ATOM     18  C   UNL     1       1.459   2.786  19.137  0.00  0.00    +0.000 A 
ATOM     19  C   UNL     1       0.728   2.770  20.322  0.00  0.00    +0.000 A 
ATOM     20  C   UNL     1       1.400   2.672  21.533  0.00  0.00    +0.000 A 
ATOM     21  C   UNL     1       2.781   2.582  21.509  0.00  0.00    +0.000 A 
ATOM     22  N   UNL     1       3.519   2.594  20.375  0.00  0.00    +0.000 NA
ENDBRANCH  16  17
ENDBRANCH   3  16
TORSDOF 4
ENDMDL
MODEL 6
REMARK VINA RESULT:      -7.9      2.706      5.405
REMARK  Name = 
REMARK  4 active torsions:
REMARK  status: ('A' for Active; 'I' for Inactive)
REMARK    1  A    between atoms: N_1  and  C_2
REMARK    2  A    between atoms: C_4  and  C_5
REMARK    3  A    between atoms: C_5  and  C_6
REMARK    4  A    between atoms: C_13  and  C_14
REMARK                            x       y       z     vdW  Elec       q    Type
REMARK                         _______ _______ _______ _____ _____    ______ ____
ROOT
ATOM      1  C   UNL     1       5.206   5.790  16.222  0.00  0.00    +0.000 A 
ATOM      2  C   UNL     1       4.822   4.486  16.511  0.00  0.00    +0.000 A 
ATOM      3  C   UNL     1       3.834   4.266  17.464  0.00  0.00    +0.000 A 
ATOM      4  N   UNL     1       3.188   5.283  18.090  0.00  0.00    +0.000 NA
ATOM      5  C   UNL     1       3.490   6.557  17.735  0.00  0.00    +0.000 A 
ATOM      6  C   UNL     1       4.494   6.834  16.807  0.00  0.00    +0.000 A 
ENDROOT
BRANCH   5   7
ATOM      7  C   UNL     1       2.658   7.607  18.359  0.00  0.00    +0.000 A 
ATOM      8  C   UNL     1       2.208   7.478  19.686  0.00  0.00    +0.000 A 
ATOM      9  C   UNL     1       1.395   8.450  20.280  0.00  0.00    +0.000 A 
ATOM     10  C   UNL     1       1.012   9.574  19.555  0.00  0.00    +0.000 A 
ATOM     11  C   UNL     1       1.439   9.727  18.240  0.00  0.00    +0.000 A 
ATOM     12  C   UNL     1       2.250   8.752  17.649  0.00  0.00    +0.000 A 
ENDBRANCH   5   7
BRANCH   1  13
ATOM     13  N   UNL     1       6.113   6.052  15.186  0.00  0.00    +0.000 N 
ATOM     14  H   UNL     1       5.989   6.958  14.747  0.00  0.00    +0.000 HD
ATOM     15  H   UNL     1       6.195   5.304  14.503  0.00  0.00    +0.000 HD
ENDBRANCH   1  13
BRANCH   3  16
ATOM     16  C   UNL     1       3.400   2.863  17.814  0.00  0.00    +0.000 C 
BRANCH  16  17
ATOM     17  C   UNL     1       2.698   2.747  19.147  0.00  0.00    +0.000 A 
ATOM     18  C   UNL     1       1.315   2.903  19.241  0.00  0.00    +0.000 A 
ATOM     19  C   UNL     1       0.711   2.858  20.494  0.00  0.00    +0.000 A 
ATOM     20  C   UNL     1       1.499   2.664  21.621  0.00  0.00    +0.000 A 
ATOM     21  C   UNL     1       2.863   2.510  21.445  0.00  0.00    +0.000 A 
ATOM     22  N   UNL     1       3.479   2.548  20.242  0.00  0.00    +0.000 NA
ENDBRANCH  16  17
ENDBRANCH   3  16
TORSDOF 4
ENDMDL
MODEL 7
REMARK VINA RESULT:      -7.9      1.302      1.884
REMARK  Name = 
REMARK  4 active torsions:
REMARK  status: ('A' for Active; 'I' for Inactive)
REMARK    1  A    between atoms: N_1  and  C_2
REMARK    2  A    between atoms: C_4  and  C_5
REMARK    3  A    between atoms: C_5  and  C_6
REMARK    4  A    between atoms: C_13  and  C_14
REMARK                            x       y       z     vdW  Elec       q    Type
REMARK                         _______ _______ _______ _____ _____    ______ ____
ROOT
ATOM      1  C   UNL     1       6.384   4.853  18.241  0.00  0.00    +0.000 A 
ATOM      2  C   UNL     1       5.217   4.143  18.496  0.00  0.00    +0.000 A 
ATOM      3  C   UNL     1       4.468   3.666  17.426  0.00  0.00    +0.000 A 
ATOM      4  N   UNL     1       4.861   3.822  16.136  0.00  0.00    +0.000 NA
ATOM      5  C   UNL     1       6.050   4.425  15.891  0.00  0.00    +0.000 A 
ATOM      6  C   UNL     1       6.827   4.949  16.924  0.00  0.00    +0.000 A 
ENDROOT
BRANCH   5   7
ATOM      7  C   UNL     1       6.476   4.443  14.475  0.00  0.00    +0.000 A 
ATOM      8  C   UNL     1       5.888   3.578  13.533  0.00  0.00    +0.000 A 
ATOM      9  C   UNL     1       6.301   3.563  12.197  0.00  0.00    +0.000 A 
ATOM     10  C   UNL     1       7.317   4.415  11.773  0.00  0.00    +0.000 A 
ATOM     11  C   UNL     1       7.919   5.279  12.682  0.00  0.00    +0.000 A 
ATOM     12  C   UNL     1       7.504   5.290  14.018  0.00  0.00    +0.000 A 
ENDBRANCH   5   7
BRANCH   1  13
ATOM     13  N   UNL     1       7.222   5.247  19.294  0.00  0.00    +0.000 N 
ATOM     14  H   UNL     1       8.176   5.445  19.012  0.00  0.00    +0.000 HD
ATOM     15  H   UNL     1       7.182   4.640  20.108  0.00  0.00    +0.000 HD
ENDBRANCH   1  13
BRANCH   3  16
ATOM     16  C   UNL     1       3.187   2.901  17.662  0.00  0.00    +0.000 C 
BRANCH  16  17
ATOM     17  C   UNL     1       2.585   3.113  19.032  0.00  0.00    +0.000 A 
ATOM     18  C   UNL     1       1.595   4.076  19.233  0.00  0.00    +0.000 A 
ATOM     19  C   UNL     1       1.112   4.291  20.521  0.00  0.00    +0.000 A 
ATOM     20  C   UNL     1       1.628   3.547  21.574  0.00  0.00    +0.000 A 
ATOM     21  C   UNL     1       2.603   2.606  21.291  0.00  0.00    +0.000 A 
ATOM     22  N   UNL     1       3.092   2.373  20.052  0.00  0.00    +0.000 NA
ENDBRANCH  16  17
ENDBRANCH   3  16
TORSDOF 4
ENDMDL
MODEL 8
REMARK VINA RESULT:      -7.9      1.304      1.556
REMARK  Name = 
REMARK  4 active torsions:
REMARK  status: ('A' for Active; 'I' for Inactive)
REMARK    1  A    between atoms: N_1  and  C_2
REMARK    2  A    between atoms: C_4  and  C_5
REMARK    3  A    between atoms: C_5  and  C_6
REMARK    4  A    between atoms: C_13  and  C_14
REMARK                            x       y       z     vdW  Elec       q    Type
REMARK                         _______ _______ _______ _____ _____    ______ ____
ROOT
ATOM      1  C   UNL     1       6.403   4.856  18.217  0.00  0.00    +0.000 A 
ATOM      2  C   UNL     1       5.211   4.187  18.466  0.00  0.00    +0.000 A 
ATOM      3  C   UNL     1       4.458   3.723  17.393  0.00  0.00    +0.000 A 
ATOM      4  N   UNL     1       4.869   3.853  16.106  0.00  0.00    +0.000 NA
ATOM      5  C   UNL     1       6.079   4.416  15.867  0.00  0.00    +0.000 A 
ATOM      6  C   UNL     1       6.862   4.925  16.904  0.00  0.00    +0.000 A 
ENDROOT
BRANCH   5   7
ATOM      7  C   UNL     1       6.520   4.405  14.456  0.00  0.00    +0.000 A 
ATOM      8  C   UNL     1       7.529   5.278  14.008  0.00  0.00    +0.000 A 
ATOM      9  C   UNL     1       7.935   5.300  12.670  0.00  0.00    +0.000 A 
ATOM     10  C   UNL     1       7.339   4.446  11.747  0.00  0.00    +0.000 A 
ATOM     11  C   UNL     1       6.337   3.574  12.161  0.00  0.00    +0.000 A 
ATOM     12  C   UNL     1       5.932   3.556  13.500  0.00  0.00    +0.000 A 
ENDBRANCH   5   7
BRANCH   1  13
ATOM     13  N   UNL     1       7.241   5.234  19.275  0.00  0.00    +0.000 N 
ATOM     14  H   UNL     1       6.938   4.897  20.183  0.00  0.00    +0.000 HD
ATOM     15  H   UNL     1       7.473   6.222  19.292  0.00  0.00    +0.000 HD
ENDBRANCH   1  13
BRANCH   3  16
ATOM     16  C   UNL     1       3.151   3.002  17.623  0.00  0.00    +0.000 C 
BRANCH  16  17
ATOM     17  C   UNL     1       2.594   3.162  19.019  0.00  0.00    +0.000 A 
ATOM     18  C   UNL     1       1.614   4.118  19.289  0.00  0.00    +0.000 A 
ATOM     19  C   UNL     1       1.174   4.285  20.599  0.00  0.00    +0.000 A 
ATOM     20  C   UNL     1       1.722   3.501  21.605  0.00  0.00    +0.000 A 
ATOM     21  C   UNL     1       2.685   2.570  21.256  0.00  0.00    +0.000 A 
ATOM     22  N   UNL     1       3.133   2.384  19.993  0.00  0.00    +0.000 NA
ENDBRANCH  16  17
ENDBRANCH   3  16
TORSDOF 4
ENDMDL
MODEL 9
REMARK VINA RESULT:      -7.7      2.498      6.746
REMARK  Name = 
REMARK  4 active torsions:
REMARK  status: ('A' for Active; 'I' for Inactive)
REMARK    1  A    between atoms: N_1  and  C_2
REMARK    2  A    between atoms: C_4  and  C_5
REMARK    3  A    between atoms: C_5  and  C_6
REMARK    4  A    between atoms: C_13  and  C_14
REMARK                            x       y       z     vdW  Elec       q    Type
REMARK                         _______ _______ _______ _____ _____    ______ ____
ROOT
ATOM      1  C   UNL     1       2.479   3.287  17.852  0.00  0.00    +0.000 A 
ATOM      2  C   UNL     1       3.740   3.348  17.272  0.00  0.00    +0.000 A 
ATOM      3  C   UNL     1       4.357   4.585  17.121  0.00  0.00    +0.000 A 
ATOM      4  N   UNL     1       3.795   5.737  17.566  0.00  0.00    +0.000 NA
ATOM      5  C   UNL     1       2.611   5.668  18.222  0.00  0.00    +0.000 A 
ATOM      6  C   UNL     1       1.934   4.457  18.376  0.00  0.00    +0.000 A 
ENDROOT
BRANCH   5   7
ATOM      7  C   UNL     1       2.123   6.940  18.794  0.00  0.00    +0.000 A 
ATOM      8  C   UNL     1       2.063   8.108  18.011  0.00  0.00    +0.000 A 
ATOM      9  C   UNL     1       1.631   9.326  18.547  0.00  0.00    +0.000 A 
ATOM     10  C   UNL     1       1.251   9.403  19.883  0.00  0.00    +0.000 A 
ATOM     11  C   UNL     1       1.303   8.266  20.683  0.00  0.00    +0.000 A 
ATOM     12  C   UNL     1       1.736   7.050  20.144  0.00  0.00    +0.000 A 
ENDBRANCH   5   7
BRANCH   1  13
ATOM     13  N   UNL     1       1.880   2.050  18.125  0.00  0.00    +0.000 N 
ATOM     14  H   UNL     1       1.836   1.821  19.112  0.00  0.00    +0.000 HD
ATOM     15  H   UNL     1       2.241   1.280  17.570  0.00  0.00    +0.000 HD
ENDBRANCH   1  13
BRANCH   3  16
ATOM     16  C   UNL     1       5.722   4.692  16.484  0.00  0.00    +0.000 C 
BRANCH  16  17
ATOM     17  C   UNL     1       6.656   5.653  17.181  0.00  0.00    +0.000 A 
ATOM     18  C   UNL     1       7.282   5.297  18.377  0.00  0.00    +0.000 A 
ATOM     19  C   UNL     1       8.082   6.233  19.027  0.00  0.00    +0.000 A 
ATOM     20  C   UNL     1       8.235   7.497  18.474  0.00  0.00    +0.000 A 
ATOM     21  C   UNL     1       7.588   7.771  17.282  0.00  0.00    +0.000 A 
ATOM     22  N   UNL     1       6.805   6.884  16.626  0.00  0.00    +0.000 NA
ENDBRANCH  16  17
ENDBRANCH   3  16
TORSDOF 4
ENDMDL
