MODEL 1
REMARK VINA RESULT:      -6.7      0.000      0.000
REMARK  Name = 
REMARK  1 active torsions:
REMARK  status: ('A' for Active; 'I' for Inactive)
REMARK    1  A    between atoms: C_1  and  N_2
REMARK                            x       y       z     vdW  Elec       q    Type
REMARK                         _______ _______ _______ _____ _____    ______ ____
ROOT
ATOM      1  C   UNL     1       5.749   4.366  14.339  0.00  0.00    +0.000 C 
ATOM      2  N   UNL     1       5.916   4.210  15.784  0.00  0.00    +0.000 NA
ATOM      3  C   UNL     1       4.799   3.466  16.382  0.00  0.00    +0.000 C 
ATOM      4  C   UNL     1       3.895   4.115  17.422  0.00  0.00    +0.000 A 
ATOM      5  C   UNL     1       2.505   3.906  17.296  0.00  0.00    +0.000 A 
ATOM      6  C   UNL     1       1.620   4.263  18.317  0.00  0.00    +0.000 A 
ATOM      7  C   UNL     1       2.103   4.813  19.499  0.00  0.00    +0.000 A 
ATOM      8  C   UNL     1       3.469   5.023  19.657  0.00  0.00    +0.000 A 
ATOM      9  C   UNL     1       4.360   4.703  18.617  0.00  0.00    +0.000 A 
ATOM     10  N   UNL     1       5.726   5.018  18.790  0.00  0.00    +0.000 N 
ATOM     11  N   UNL     1       6.292   5.184  20.012  0.00  0.00    +0.000 NA
ATOM     12  N   UNL     1       7.576   5.464  19.836  0.00  0.00    +0.000 NA
ATOM     13  C   UNL     1       7.805   5.567  18.498  0.00  0.00    +0.000 A 
ATOM     14  C   UNL     1       6.637   5.323  17.812  0.00  0.00    +0.000 A 
ATOM     15  C   UNL     1       6.261   5.480  16.397  0.00  0.00    +0.000 C 
ENDROOT
TORSDOF 0
ENDMDL
MODEL 2
REMARK VINA RESULT:      -6.6      2.205      3.669
REMARK  Name = 
REMARK  1 active torsions:
REMARK  status: ('A' for Active; 'I' for Inactive)
REMARK    1  A    between atoms: C_1  and  N_2
REMARK                            x       y       z     vdW  Elec       q    Type
REMARK                         _______ _______ _______ _____ _____    ______ ____
ROOT
ATOM      1  C   UNL     1       3.882   2.364  19.445  0.00  0.00    +0.000 C 
ATOM      2  N   UNL     1       4.483   3.517  18.775  0.00  0.00    +0.000 NA
ATOM      3  C   UNL     1       4.289   4.753  19.544  0.00  0.00    +0.000 C 
ATOM      4  C   UNL     1       3.492   5.917  18.967  0.00  0.00    +0.000 A 
ATOM      5  C   UNL     1       2.572   6.562  19.819  0.00  0.00    +0.000 A 
ATOM      6  C   UNL     1       1.969   7.769  19.459  0.00  0.00    +0.000 A 
ATOM      7  C   UNL     1       2.289   8.376  18.250  0.00  0.00    +0.000 A 
ATOM      8  C   UNL     1       3.200   7.770  17.391  0.00  0.00    +0.000 A 
ATOM      9  C   UNL     1       3.780   6.534  17.731  0.00  0.00    +0.000 A 
ATOM     10  N   UNL     1       4.629   5.915  16.787  0.00  0.00    +0.000 N 
ATOM     11  N   UNL     1       5.262   6.605  15.805  0.00  0.00    +0.000 NA
ATOM     12  N   UNL     1       5.980   5.745  15.095  0.00  0.00    +0.000 NA
ATOM     13  C   UNL     1       5.731   4.495  15.571  0.00  0.00    +0.000 A 
ATOM     14  C   UNL     1       4.847   4.571  16.624  0.00  0.00    +0.000 A 
ATOM     15  C   UNL     1       4.101   3.548  17.375  0.00  0.00    +0.000 C 
ENDROOT
TORSDOF 0
ENDMDL
MODEL 3
REMARK VINA RESULT:      -6.4      2.498      4.205
REMARK  Name = 
REMARK  1 active torsions:
REMARK  status: ('A' for Active; 'I' for Inactive)
REMARK    1  A    between atoms: C_1  and  N_2
REMARK                            x       y       z     vdW  Elec       q    Type
REMARK                         _______ _______ _______ _____ _____    ______ ____
ROOT
ATOM      1  C   UNL     1       3.738   1.128  18.728  0.00  0.00    +0.000 C 
ATOM      2  N   UNL     1       3.139   2.461  18.675  0.00  0.00    +0.000 NA
ATOM      3  C   UNL     1       3.257   3.056  17.337  0.00  0.00    +0.000 C 
ATOM      4  C   UNL     1       4.048   4.339  17.118  0.00  0.00    +0.000 A 
ATOM      5  C   UNL     1       4.904   4.394  15.998  0.00  0.00    +0.000 A 
ATOM      6  C   UNL     1       5.489   5.594  15.587  0.00  0.00    +0.000 A 
ATOM      7  C   UNL     1       5.214   6.774  16.268  0.00  0.00    +0.000 A 
ATOM      8  C   UNL     1       4.367   6.755  17.371  0.00  0.00    +0.000 A 
ATOM      9  C   UNL     1       3.806   5.543  17.814  0.00  0.00    +0.000 A 
ATOM     10  N   UNL     1       3.026   5.561  18.991  0.00  0.00    +0.000 N 
ATOM     11  N   UNL     1       2.425   6.685  19.456  0.00  0.00    +0.000 NA
ATOM     12  N   UNL     1       1.769   6.372  20.566  0.00  0.00    +0.000 NA
ATOM     13  C   UNL     1       2.030   5.068  20.855  0.00  0.00    +0.000 A 
ATOM     14  C   UNL     1       2.856   4.539  19.889  0.00  0.00    +0.000 A 
ATOM     15  C   UNL     1       3.592   3.267  19.794  0.00  0.00    +0.000 C 
ENDROOT
TORSDOF 0
ENDMDL
MODEL 4
REMARK VINA RESULT:      -6.3      2.840      4.887
REMARK  Name = 
REMARK  1 active torsions:
REMARK  status: ('A' for Active; 'I' for Inactive)
REMARK    1  A    between atoms: C_1  and  N_2
REMARK                            x       y       z     vdW  Elec       q    Type
REMARK                         _______ _______ _______ _____ _____    ______ ____
ROOT
ATOM      1  C   UNL     1       1.495   2.658  20.705  0.00  0.00    +0.000 C 
ATOM      2  N   UNL     1       1.437   3.946  20.016  0.00  0.00    +0.000 NA
ATOM      3  C   UNL     1       1.767   3.814  18.591  0.00  0.00    +0.000 C 
ATOM      4  C   UNL     1       2.980   4.522  17.999  0.00  0.00    +0.000 A 
ATOM      5  C   UNL     1       3.793   3.787  17.111  0.00  0.00    +0.000 A 
ATOM      6  C   UNL     1       4.783   4.409  16.347  0.00  0.00    +0.000 A 
ATOM      7  C   UNL     1       4.970   5.784  16.432  0.00  0.00    +0.000 A 
ATOM      8  C   UNL     1       4.179   6.538  17.293  0.00  0.00    +0.000 A 
ATOM      9  C   UNL     1       3.207   5.911  18.093  0.00  0.00    +0.000 A 
ATOM     10  N   UNL     1       2.491   6.706  19.016  0.00  0.00    +0.000 N 
ATOM     11  N   UNL     1       2.354   8.048  18.877  0.00  0.00    +0.000 NA
ATOM     12  N   UNL     1       1.630   8.496  19.895  0.00  0.00    +0.000 NA
ATOM     13  C   UNL     1       1.385   7.449  20.729  0.00  0.00    +0.000 A 
ATOM     14  C   UNL     1       1.952   6.306  20.212  0.00  0.00    +0.000 A 
ATOM     15  C   UNL     1       2.160   4.958  20.766  0.00  0.00    +0.000 C 
ENDROOT
TORSDOF 0
ENDMDL
MODEL 5
REMARK VINA RESULT:      -6.3      2.219      3.387
REMARK  Name = 
REMARK  1 active torsions:
REMARK  status: ('A' for Active; 'I' for Inactive)
REMARK    1  A    between atoms: C_1  and  N_2
REMARK                            x       y       z     vdW  Elec       q    Type
REMARK                         _______ _______ _______ _____ _____    ______ ____
ROOT
ATOM      1  C   UNL     1       3.472   1.571  18.528  0.00  0.00    +0.000 C 
ATOM      2  N   UNL     1       4.090   2.881  18.326  0.00  0.00    +0.000 NA
ATOM      3  C   UNL     1       3.921   3.748  19.499  0.00  0.00    +0.000 C 
ATOM      4  C   UNL     1       3.143   5.054  19.402  0.00  0.00    +0.000 A 
ATOM      5  C   UNL     1       2.237   5.351  20.442  0.00  0.00    +0.000 A 
ATOM      6  C   UNL     1       1.654   6.615  20.560  0.00  0.00    +0.000 A 
ATOM      7  C   UNL     1       1.979   7.622  19.658  0.00  0.00    +0.000 A 
ATOM      8  C   UNL     1       2.875   7.363  18.626  0.00  0.00    +0.000 A 
ATOM      9  C   UNL     1       3.435   6.081  18.479  0.00  0.00    +0.000 A 
ATOM     10  N   UNL     1       4.269   5.842  17.364  0.00  0.00    +0.000 N 
ATOM     11  N   UNL     1       4.909   6.837  16.700  0.00  0.00    +0.000 NA
ATOM     12  N   UNL     1       5.610   6.291  15.715  0.00  0.00    +0.000 NA
ATOM     13  C   UNL     1       5.341   4.957  15.698  0.00  0.00    +0.000 A 
ATOM     14  C   UNL     1       4.463   4.651  16.713  0.00  0.00    +0.000 A 
ATOM     15  C   UNL     1       3.702   3.434  17.040  0.00  0.00    +0.000 C 
ENDROOT
TORSDOF 0
ENDMDL
MODEL 6
REMARK VINA RESULT:      -6.3      2.511      4.486
REMARK  Name = 
REMARK  1 active torsions:
REMARK  status: ('A' for Active; 'I' for Inactive)
REMARK    1  A    between atoms: C_1  and  N_2
REMARK                            x       y       z     vdW  Elec       q    Type
REMARK                         _______ _______ _______ _____ _____    ______ ____
ROOT
ATOM      1  C   UNL     1       3.049   2.568  20.144  0.00  0.00    +0.000 C 
ATOM      2  N   UNL     1       2.745   3.762  19.355  0.00  0.00    +0.000 NA
ATOM      3  C   UNL     1       3.039   3.560  17.930  0.00  0.00    +0.000 C 
ATOM      4  C   UNL     1       4.089   4.405  17.220  0.00  0.00    +0.000 A 
ATOM      5  C   UNL     1       4.982   3.740  16.354  0.00  0.00    +0.000 A 
ATOM      6  C   UNL     1       5.822   4.449  15.491  0.00  0.00    +0.000 A 
ATOM      7  C   UNL     1       5.774   5.838  15.453  0.00  0.00    +0.000 A 
ATOM      8  C   UNL     1       4.898   6.522  16.289  0.00  0.00    +0.000 A 
ATOM      9  C   UNL     1       4.078   5.816  17.188  0.00  0.00    +0.000 A 
ATOM     10  N   UNL     1       3.272   6.559  18.079  0.00  0.00    +0.000 N 
ATOM     11  N   UNL     1       2.901   7.841  17.838  0.00  0.00    +0.000 NA
ATOM     12  N   UNL     1       2.151   8.250  18.852  0.00  0.00    +0.000 NA
ATOM     13  C   UNL     1       2.121   7.256  19.781  0.00  0.00    +0.000 A 
ATOM     14  C   UNL     1       2.855   6.183  19.330  0.00  0.00    +0.000 A 
ATOM     15  C   UNL     1       3.312   4.943  19.981  0.00  0.00    +0.000 C 
ENDROOT
TORSDOF 0
ENDMDL
MODEL 7
REMARK VINA RESULT:      -6.2      2.462      3.179
REMARK  Name = 
REMARK  1 active torsions:
REMARK  status: ('A' for Active; 'I' for Inactive)
REMARK    1  A    between atoms: C_1  and  N_2
REMARK                            x       y       z     vdW  Elec       q    Type
REMARK                         _______ _______ _______ _____ _____    ______ ____
ROOT
ATOM      1  C   UNL     1       6.860   4.801  16.531  0.00  0.00    +0.000 C 
ATOM      2  N   UNL     1       5.604   4.438  17.187  0.00  0.00    +0.000 NA
ATOM      3  C   UNL     1       4.501   5.315  16.772  0.00  0.00    +0.000 C 
ATOM      4  C   UNL     1       3.779   6.197  17.782  0.00  0.00    +0.000 A 
ATOM      5  C   UNL     1       3.500   7.526  17.403  0.00  0.00    +0.000 A 
ATOM      6  C   UNL     1       2.649   8.336  18.160  0.00  0.00    +0.000 A 
ATOM      7  C   UNL     1       2.036   7.830  19.301  0.00  0.00    +0.000 A 
ATOM      8  C   UNL     1       2.284   6.520  19.696  0.00  0.00    +0.000 A 
ATOM      9  C   UNL     1       3.171   5.713  18.960  0.00  0.00    +0.000 A 
ATOM     10  N   UNL     1       3.460   4.421  19.452  0.00  0.00    +0.000 N 
ATOM     11  N   UNL     1       2.635   3.756  20.299  0.00  0.00    +0.000 NA
ATOM     12  N   UNL     1       3.183   2.579  20.568  0.00  0.00    +0.000 NA
ATOM     13  C   UNL     1       4.401   2.533  19.963  0.00  0.00    +0.000 A 
ATOM     14  C   UNL     1       4.618   3.706  19.276  0.00  0.00    +0.000 A 
ATOM     15  C   UNL     1       5.806   4.270  18.615  0.00  0.00    +0.000 C 
ENDROOT
TORSDOF 0
ENDMDL
MODEL 8
REMARK VINA RESULT:      -6.2      2.153      4.343
REMARK  Name = 
REMARK  1 active torsions:
REMARK  status: ('A' for Active; 'I' for Inactive)
REMARK    1  A    between atoms: C_1  and  N_2
REMARK                            x       y       z     vdW  Elec       q    Type
REMARK                         _______ _______ _______ _____ _____    ______ ____
ROOT
ATOM      1  C   UNL     1       2.194   8.202  17.867  0.00  0.00    +0.000 C 
ATOM      2  N   UNL     1       3.025   7.086  18.317  0.00  0.00    +0.000 NA
ATOM      3  C   UNL     1       4.320   7.060  17.625  0.00  0.00    +0.000 C 
ATOM      4  C   UNL     1       4.715   5.881  16.745  0.00  0.00    +0.000 A 
ATOM      5  C   UNL     1       5.316   6.169  15.502  0.00  0.00    +0.000 A 
ATOM      6  C   UNL     1       5.915   5.167  14.734  0.00  0.00    +0.000 A 
ATOM      7  C   UNL     1       5.952   3.858  15.199  0.00  0.00    +0.000 A 
ATOM      8  C   UNL     1       5.375   3.543  16.425  0.00  0.00    +0.000 A 
ATOM      9  C   UNL     1       4.736   4.540  17.184  0.00  0.00    +0.000 A 
ATOM     10  N   UNL     1       4.087   4.154  18.379  0.00  0.00    +0.000 N 
ATOM     11  N   UNL     1       4.407   3.023  19.055  0.00  0.00    +0.000 NA
ATOM     12  N   UNL     1       3.628   2.949  20.126  0.00  0.00    +0.000 NA
ATOM     13  C   UNL     1       2.751   3.988  20.080  0.00  0.00    +0.000 A 
ATOM     14  C   UNL     1       2.997   4.750  18.960  0.00  0.00    +0.000 A 
ATOM     15  C   UNL     1       2.259   5.852  18.321  0.00  0.00    +0.000 C 
ENDROOT
TORSDOF 0
ENDMDL
MODEL 9
REMARK VINA RESULT:      -6.2      1.705      4.471
REMARK  Name = 
REMARK  1 active torsions:
REMARK  status: ('A' for Active; 'I' for Inactive)
REMARK    1  A    between atoms: C_1  and  N_2
REMARK                            x       y       z     vdW  Elec       q    Type
REMARK                         _______ _______ _______ _____ _____    ______ ____
ROOT
ATOM      1  C   UNL     1       8.019   6.053  19.591  0.00  0.00    +0.000 C 
ATOM      2  N   UNL     1       7.185   4.962  19.086  0.00  0.00    +0.000 NA
ATOM      3  C   UNL     1       7.681   4.450  17.802  0.00  0.00    +0.000 C 
ATOM      4  C   UNL     1       6.828   4.539  16.542  0.00  0.00    +0.000 A 
ATOM      5  C   UNL     1       7.465   4.952  15.353  0.00  0.00    +0.000 A 
ATOM      6  C   UNL     1       6.831   4.845  14.113  0.00  0.00    +0.000 A 
ATOM      7  C   UNL     1       5.555   4.300  14.025  0.00  0.00    +0.000 A 
ATOM      8  C   UNL     1       4.904   3.875  15.179  0.00  0.00    +0.000 A 
ATOM      9  C   UNL     1       5.522   4.017  16.435  0.00  0.00    +0.000 A 
ATOM     10  N   UNL     1       4.785   3.655  17.584  0.00  0.00    +0.000 N 
ATOM     11  N   UNL     1       3.739   2.792  17.544  0.00  0.00    +0.000 NA
ATOM     12  N   UNL     1       3.268   2.658  18.777  0.00  0.00    +0.000 NA
ATOM     13  C   UNL     1       3.958   3.507  19.585  0.00  0.00    +0.000 A 
ATOM     14  C   UNL     1       4.904   4.180  18.846  0.00  0.00    +0.000 A 
ATOM     15  C   UNL     1       5.780   5.323  19.150  0.00  0.00    +0.000 C 
ENDROOT
TORSDOF 0
ENDMDL
