MODEL 1
REMARK VINA RESULT:      -6.4      0.000      0.000
REMARK  Name = 
REMARK  1 active torsions:
REMARK  status: ('A' for Active; 'I' for Inactive)
REMARK    1  A    between atoms: N_1  and  C_2
REMARK                            x       y       z     vdW  Elec       q    Type
REMARK                         _______ _______ _______ _____ _____    ______ ____
ROOT
ATOM      1  C   UNL     1       3.214   4.761  18.936  0.00  0.00    +0.000 A 
ATOM      2  C   UNL     1       2.972   4.269  17.650  0.00  0.00    +0.000 A 
ATOM      3  C   UNL     1       4.019   4.085  16.743  0.00  0.00    +0.000 A 
ATOM      4  C   UNL     1       5.336   4.338  17.141  0.00  0.00    +0.000 A 
ATOM      5  C   UNL     1       6.448   4.111  16.196  0.00  0.00    +0.000 A 
ATOM      6  O   UNL     1       6.244   3.768  15.038  0.00  0.00    +0.000 OA
ATOM      7  N   UNL     1       7.718   4.295  16.682  0.00  0.00    +0.000 N 
ATOM      8  N   UNL     1       7.977   4.699  17.982  0.00  0.00    +0.000 N 
ATOM      9  C   UNL     1       6.983   4.981  18.888  0.00  0.00    +0.000 A 
ATOM     10  O   UNL     1       7.241   5.376  20.019  0.00  0.00    +0.000 OA
ATOM     11  C   UNL     1       5.594   4.771  18.438  0.00  0.00    +0.000 A 
ATOM     12  C   UNL     1       4.536   4.973  19.337  0.00  0.00    +0.000 A 
ATOM     13  H   UNL     1       8.495   4.134  16.048  0.00  0.00    +0.000 HD
ATOM     14  H   UNL     1       8.940   4.819  18.282  0.00  0.00    +0.000 HD
ENDROOT
BRANCH   1  15
ATOM     15  N   UNL     1       2.180   4.802  19.877  0.00  0.00    +0.000 N 
ATOM     16  H   UNL     1       1.249   4.866  19.479  0.00  0.00    +0.000 HD
ATOM     17  H   UNL     1       2.325   5.472  20.628  0.00  0.00    +0.000 HD
ENDBRANCH   1  15
TORSDOF 1
ENDMDL
MODEL 2
REMARK VINA RESULT:      -6.4      1.414      1.421
REMARK  Name = 
REMARK  1 active torsions:
REMARK  status: ('A' for Active; 'I' for Inactive)
REMARK    1  A    between atoms: N_1  and  C_2
REMARK                            x       y       z     vdW  Elec       q    Type
REMARK                         _______ _______ _______ _____ _____    ______ ____
ROOT
ATOM      1  C   UNL     1       3.973   3.274  18.793  0.00  0.00    +0.000 A 
ATOM      2  C   UNL     1       3.660   3.299  17.431  0.00  0.00    +0.000 A 
ATOM      3  C   UNL     1       4.392   4.091  16.541  0.00  0.00    +0.000 A 
ATOM      4  C   UNL     1       5.488   4.826  17.004  0.00  0.00    +0.000 A 
ATOM      5  C   UNL     1       6.283   5.637  16.060  0.00  0.00    +0.000 A 
ATOM      6  O   UNL     1       5.967   5.741  14.882  0.00  0.00    +0.000 OA
ATOM      7  N   UNL     1       7.395   6.260  16.568  0.00  0.00    +0.000 N 
ATOM      8  N   UNL     1       7.766   6.174  17.900  0.00  0.00    +0.000 N 
ATOM      9  C   UNL     1       7.035   5.483  18.836  0.00  0.00    +0.000 A 
ATOM     10  O   UNL     1       7.365   5.458  20.016  0.00  0.00    +0.000 OA
ATOM     11  C   UNL     1       5.844   4.762  18.348  0.00  0.00    +0.000 A 
ATOM     12  C   UNL     1       5.094   3.980  19.239  0.00  0.00    +0.000 A 
ATOM     13  H   UNL     1       7.959   6.814  15.930  0.00  0.00    +0.000 HD
ATOM     14  H   UNL     1       8.601   6.659  18.216  0.00  0.00    +0.000 HD
ENDROOT
BRANCH   1  15
ATOM     15  N   UNL     1       3.329   2.369  19.644  0.00  0.00    +0.000 N 
ATOM     16  H   UNL     1       2.316   2.424  19.630  0.00  0.00    +0.000 HD
ATOM     17  H   UNL     1       3.701   2.348  20.589  0.00  0.00    +0.000 HD
ENDBRANCH   1  15
TORSDOF 1
ENDMDL
MODEL 3
REMARK VINA RESULT:      -6.3      0.716      2.866
REMARK  Name = 
REMARK  1 active torsions:
REMARK  status: ('A' for Active; 'I' for Inactive)
REMARK    1  A    between atoms: N_1  and  C_2
REMARK                            x       y       z     vdW  Elec       q    Type
REMARK                         _______ _______ _______ _____ _____    ______ ____
ROOT
ATOM      1  C   UNL     1       2.902   4.483  17.948  0.00  0.00    +0.000 A 
ATOM      2  C   UNL     1       3.268   5.038  19.178  0.00  0.00    +0.000 A 
ATOM      3  C   UNL     1       4.614   5.196  19.521  0.00  0.00    +0.000 A 
ATOM      4  C   UNL     1       5.611   4.853  18.602  0.00  0.00    +0.000 A 
ATOM      5  C   UNL     1       7.033   5.052  18.949  0.00  0.00    +0.000 A 
ATOM      6  O   UNL     1       7.373   5.450  20.056  0.00  0.00    +0.000 OA
ATOM      7  N   UNL     1       7.951   4.776  17.967  0.00  0.00    +0.000 N 
ATOM      8  N   UNL     1       7.597   4.308  16.712  0.00  0.00    +0.000 N 
ATOM      9  C   UNL     1       6.296   4.048  16.352  0.00  0.00    +0.000 A 
ATOM     10  O   UNL     1       6.015   3.595  15.249  0.00  0.00    +0.000 OA
ATOM     11  C   UNL     1       5.256   4.355  17.351  0.00  0.00    +0.000 A 
ATOM     12  C   UNL     1       3.903   4.180  17.022  0.00  0.00    +0.000 A 
ATOM     13  H   UNL     1       8.933   4.917  18.185  0.00  0.00    +0.000 HD
ATOM     14  H   UNL     1       8.323   4.120  16.028  0.00  0.00    +0.000 HD
ENDROOT
BRANCH   1  15
ATOM     15  N   UNL     1       1.559   4.465  17.560  0.00  0.00    +0.000 N 
ATOM     16  H   UNL     1       0.965   5.120  18.059  0.00  0.00    +0.000 HD
ATOM     17  H   UNL     1       1.150   3.536  17.512  0.00  0.00    +0.000 HD
ENDBRANCH   1  15
TORSDOF 1
ENDMDL
MODEL 4
REMARK VINA RESULT:      -6.3      3.466      4.565
REMARK  Name = 
REMARK  1 active torsions:
REMARK  status: ('A' for Active; 'I' for Inactive)
REMARK    1  A    between atoms: N_1  and  C_2
REMARK                            x       y       z     vdW  Elec       q    Type
REMARK                         _______ _______ _______ _____ _____    ______ ____
ROOT
ATOM      1  C   UNL     1       3.593   2.069  18.374  0.00  0.00    +0.000 A 
ATOM      2  C   UNL     1       3.836   3.000  17.359  0.00  0.00    +0.000 A 
ATOM      3  C   UNL     1       3.521   4.351  17.535  0.00  0.00    +0.000 A 
ATOM      4  C   UNL     1       3.011   4.792  18.760  0.00  0.00    +0.000 A 
ATOM      5  C   UNL     1       2.710   6.225  18.960  0.00  0.00    +0.000 A 
ATOM      6  O   UNL     1       2.830   7.037  18.052  0.00  0.00    +0.000 OA
ATOM      7  N   UNL     1       2.296   6.599  20.214  0.00  0.00    +0.000 N 
ATOM      8  N   UNL     1       2.134   5.698  21.255  0.00  0.00    +0.000 N 
ATOM      9  C   UNL     1       2.342   4.348  21.113  0.00  0.00    +0.000 A 
ATOM     10  O   UNL     1       2.151   3.570  22.040  0.00  0.00    +0.000 OA
ATOM     11  C   UNL     1       2.821   3.883  19.797  0.00  0.00    +0.000 A 
ATOM     12  C   UNL     1       3.121   2.526  19.607  0.00  0.00    +0.000 A 
ATOM     13  H   UNL     1       2.094   7.581  20.371  0.00  0.00    +0.000 HD
ATOM     14  H   UNL     1       1.823   6.037  22.161  0.00  0.00    +0.000 HD
ENDROOT
BRANCH   1  15
ATOM     15  N   UNL     1       4.045   0.753  18.240  0.00  0.00    +0.000 N 
ATOM     16  H   UNL     1       4.405   0.521  17.319  0.00  0.00    +0.000 HD
ATOM     17  H   UNL     1       3.398   0.051  18.588  0.00  0.00    +0.000 HD
ENDBRANCH   1  15
TORSDOF 1
ENDMDL
MODEL 5
REMARK VINA RESULT:      -6.2      4.286      4.685
REMARK  Name = 
REMARK  1 active torsions:
REMARK  status: ('A' for Active; 'I' for Inactive)
REMARK    1  A    between atoms: N_1  and  C_2
REMARK                            x       y       z     vdW  Elec       q    Type
REMARK                         _______ _______ _______ _____ _____    ______ ____
ROOT
ATOM      1  C   UNL     1       2.105   6.627  20.193  0.00  0.00    +0.000 A 
ATOM      2  C   UNL     1       2.292   6.674  18.808  0.00  0.00    +0.000 A 
ATOM      3  C   UNL     1       2.344   5.501  18.051  0.00  0.00    +0.000 A 
ATOM      4  C   UNL     1       2.147   4.263  18.671  0.00  0.00    +0.000 A 
ATOM      5  C   UNL     1       2.166   3.025  17.866  0.00  0.00    +0.000 A 
ATOM      6  O   UNL     1       2.420   3.043  16.668  0.00  0.00    +0.000 OA
ATOM      7  N   UNL     1       1.878   1.856  18.526  0.00  0.00    +0.000 N 
ATOM      8  N   UNL     1       1.604   1.804  19.883  0.00  0.00    +0.000 N 
ATOM      9  C   UNL     1       1.629   2.914  20.693  0.00  0.00    +0.000 A 
ATOM     10  O   UNL     1       1.423   2.832  21.898  0.00  0.00    +0.000 OA
ATOM     11  C   UNL     1       1.900   4.208  20.039  0.00  0.00    +0.000 A 
ATOM     12  C   UNL     1       1.869   5.388  20.797  0.00  0.00    +0.000 A 
ATOM     13  H   UNL     1       1.877   0.997  17.986  0.00  0.00    +0.000 HD
ATOM     14  H   UNL     1       1.399   0.908  20.315  0.00  0.00    +0.000 HD
ENDROOT
BRANCH   1  15
ATOM     15  N   UNL     1       1.911   7.808  20.916  0.00  0.00    +0.000 N 
ATOM     16  H   UNL     1       1.985   8.657  20.365  0.00  0.00    +0.000 HD
ATOM     17  H   UNL     1       2.443   7.861  21.780  0.00  0.00    +0.000 HD
ENDBRANCH   1  15
TORSDOF 1
ENDMDL
MODEL 6
REMARK VINA RESULT:      -6.2      2.190      2.414
REMARK  Name = 
REMARK  1 active torsions:
REMARK  status: ('A' for Active; 'I' for Inactive)
REMARK    1  A    between atoms: N_1  and  C_2
REMARK                            x       y       z     vdW  Elec       q    Type
REMARK                         _______ _______ _______ _____ _____    ______ ____
ROOT
ATOM      1  C   UNL     1       2.655   6.671  19.684  0.00  0.00    +0.000 A 
ATOM      2  C   UNL     1       2.571   7.509  18.568  0.00  0.00    +0.000 A 
ATOM      3  C   UNL     1       3.416   7.328  17.469  0.00  0.00    +0.000 A 
ATOM      4  C   UNL     1       4.320   6.261  17.455  0.00  0.00    +0.000 A 
ATOM      5  C   UNL     1       5.190   6.048  16.281  0.00  0.00    +0.000 A 
ATOM      6  O   UNL     1       5.192   6.826  15.336  0.00  0.00    +0.000 OA
ATOM      7  N   UNL     1       5.988   4.931  16.299  0.00  0.00    +0.000 N 
ATOM      8  N   UNL     1       6.018   4.044  17.363  0.00  0.00    +0.000 N 
ATOM      9  C   UNL     1       5.276   4.221  18.505  0.00  0.00    +0.000 A 
ATOM     10  O   UNL     1       5.354   3.441  19.447  0.00  0.00    +0.000 OA
ATOM     11  C   UNL     1       4.371   5.385  18.536  0.00  0.00    +0.000 A 
ATOM     12  C   UNL     1       3.533   5.584  19.644  0.00  0.00    +0.000 A 
ATOM     13  H   UNL     1       6.585   4.764  15.496  0.00  0.00    +0.000 HD
ATOM     14  H   UNL     1       6.631   3.235  17.318  0.00  0.00    +0.000 HD
ENDROOT
BRANCH   1  15
ATOM     15  N   UNL     1       1.710   6.772  20.709  0.00  0.00    +0.000 N 
ATOM     16  H   UNL     1       1.733   6.012  21.381  0.00  0.00    +0.000 HD
ATOM     17  H   UNL     1       0.767   6.975  20.390  0.00  0.00    +0.000 HD
ENDBRANCH   1  15
TORSDOF 1
ENDMDL
MODEL 7
REMARK VINA RESULT:      -6.2      1.514      3.072
REMARK  Name = 
REMARK  1 active torsions:
REMARK  status: ('A' for Active; 'I' for Inactive)
REMARK    1  A    between atoms: N_1  and  C_2
REMARK                            x       y       z     vdW  Elec       q    Type
REMARK                         _______ _______ _______ _____ _____    ______ ____
ROOT
ATOM      1  C   UNL     1       3.539   3.647  17.647  0.00  0.00    +0.000 A 
ATOM      2  C   UNL     1       3.909   3.609  18.996  0.00  0.00    +0.000 A 
ATOM      3  C   UNL     1       5.085   4.222  19.435  0.00  0.00    +0.000 A 
ATOM      4  C   UNL     1       5.877   4.936  18.529  0.00  0.00    +0.000 A 
ATOM      5  C   UNL     1       7.103   5.614  18.998  0.00  0.00    +0.000 A 
ATOM      6  O   UNL     1       7.488   5.513  20.156  0.00  0.00    +0.000 OA
ATOM      7  N   UNL     1       7.782   6.368  18.074  0.00  0.00    +0.000 N 
ATOM      8  N   UNL     1       7.379   6.485  16.753  0.00  0.00    +0.000 N 
ATOM      9  C   UNL     1       6.282   5.831  16.246  0.00  0.00    +0.000 A 
ATOM     10  O   UNL     1       5.974   5.921  15.064  0.00  0.00    +0.000 OA
ATOM     11  C   UNL     1       5.488   5.030  17.196  0.00  0.00    +0.000 A 
ATOM     12  C   UNL     1       4.316   4.395  16.759  0.00  0.00    +0.000 A 
ATOM     13  H   UNL     1       8.622   6.849  18.382  0.00  0.00    +0.000 HD
ATOM     14  H   UNL     1       7.926   7.057  16.116  0.00  0.00    +0.000 HD
ENDROOT
BRANCH   1  15
ATOM     15  N   UNL     1       2.293   3.156  17.248  0.00  0.00    +0.000 N 
ATOM     16  H   UNL     1       1.529   3.379  17.878  0.00  0.00    +0.000 HD
ATOM     17  H   UNL     1       2.296   2.176  16.979  0.00  0.00    +0.000 HD
ENDBRANCH   1  15
TORSDOF 1
ENDMDL
MODEL 8
REMARK VINA RESULT:      -6.1      1.527      3.134
REMARK  Name = 
REMARK  1 active torsions:
REMARK  status: ('A' for Active; 'I' for Inactive)
REMARK    1  A    between atoms: N_1  and  C_2
REMARK                            x       y       z     vdW  Elec       q    Type
REMARK                         _______ _______ _______ _____ _____    ______ ____
ROOT
ATOM      1  C   UNL     1       3.940   3.504  18.215  0.00  0.00    +0.000 A 
ATOM      2  C   UNL     1       4.470   4.247  19.274  0.00  0.00    +0.000 A 
ATOM      3  C   UNL     1       5.571   5.086  19.081  0.00  0.00    +0.000 A 
ATOM      4  C   UNL     1       6.119   5.232  17.802  0.00  0.00    +0.000 A 
ATOM      5  C   UNL     1       7.261   6.144  17.590  0.00  0.00    +0.000 A 
ATOM      6  O   UNL     1       7.794   6.731  18.523  0.00  0.00    +0.000 OA
ATOM      7  N   UNL     1       7.689   6.305  16.296  0.00  0.00    +0.000 N 
ATOM      8  N   UNL     1       7.116   5.639  15.224  0.00  0.00    +0.000 N 
ATOM      9  C   UNL     1       6.090   4.736  15.367  0.00  0.00    +0.000 A 
ATOM     10  O   UNL     1       5.631   4.131  14.405  0.00  0.00    +0.000 OA
ATOM     11  C   UNL     1       5.561   4.542  16.730  0.00  0.00    +0.000 A 
ATOM     12  C   UNL     1       4.468   3.687  16.935  0.00  0.00    +0.000 A 
ATOM     13  H   UNL     1       8.467   6.935  16.130  0.00  0.00    +0.000 HD
ATOM     14  H   UNL     1       7.478   5.800  14.288  0.00  0.00    +0.000 HD
ENDROOT
BRANCH   1  15
ATOM     15  N   UNL     1       2.753   2.784  18.389  0.00  0.00    +0.000 N 
ATOM     16  H   UNL     1       1.952   3.164  17.894  0.00  0.00    +0.000 HD
ATOM     17  H   UNL     1       2.538   2.561  19.356  0.00  0.00    +0.000 HD
ENDBRANCH   1  15
TORSDOF 1
ENDMDL
MODEL 9
REMARK VINA RESULT:      -6.1      2.079      3.870
REMARK  Name = 
REMARK  1 active torsions:
REMARK  status: ('A' for Active; 'I' for Inactive)
REMARK    1  A    between atoms: N_1  and  C_2
REMARK                            x       y       z     vdW  Elec       q    Type
REMARK                         _______ _______ _______ _____ _____    ______ ____
ROOT
ATOM      1  C   UNL     1       7.061   4.923  14.691  0.00  0.00    +0.000 A 
ATOM      2  C   UNL     1       5.792   4.482  14.304  0.00  0.00    +0.000 A 
ATOM      3  C   UNL     1       4.869   4.033  15.252  0.00  0.00    +0.000 A 
ATOM      4  C   UNL     1       5.191   4.078  16.612  0.00  0.00    +0.000 A 
ATOM      5  C   UNL     1       4.204   3.636  17.618  0.00  0.00    +0.000 A 
ATOM      6  O   UNL     1       3.123   3.162  17.291  0.00  0.00    +0.000 OA
ATOM      7  N   UNL     1       4.555   3.791  18.936  0.00  0.00    +0.000 N 
ATOM      8  N   UNL     1       5.777   4.308  19.335  0.00  0.00    +0.000 N 
ATOM      9  C   UNL     1       6.756   4.681  18.447  0.00  0.00    +0.000 A 
ATOM     10  O   UNL     1       7.844   5.097  18.829  0.00  0.00    +0.000 OA
ATOM     11  C   UNL     1       6.429   4.571  17.012  0.00  0.00    +0.000 A 
ATOM     12  C   UNL     1       7.359   5.002  16.054  0.00  0.00    +0.000 A 
ATOM     13  H   UNL     1       3.884   3.501  19.641  0.00  0.00    +0.000 HD
ATOM     14  H   UNL     1       5.979   4.397  20.327  0.00  0.00    +0.000 HD
ENDROOT
BRANCH   1  15
ATOM     15  N   UNL     1       7.918   5.503  13.751  0.00  0.00    +0.000 N 
ATOM     16  H   UNL     1       8.124   6.484  13.915  0.00  0.00    +0.000 HD
ATOM     17  H   UNL     1       7.664   5.320  12.784  0.00  0.00    +0.000 HD
ENDBRANCH   1  15
TORSDOF 1
ENDMDL
