MODEL 1
REMARK VINA RESULT:      -7.3      0.000      0.000
REMARK  Name = 
REMARK  8 active torsions:
REMARK  status: ('A' for Active; 'I' for Inactive)
REMARK    1  A    between atoms: C_1  and  C_2
REMARK    2  A    between atoms: C_2  and  C_3
REMARK    3  A    between atoms: C_7  and  C_8
REMARK    4  A    between atoms: C_8  and  O_9
REMARK    5  A    between atoms: O_9  and  C_10
REMARK    6  A    between atoms: C_10  and  C_12
REMARK    7  A    between atoms: C_17  and  C_18
REMARK    8  A    between atoms: C_17  and  C_19
REMARK                            x       y       z     vdW  Elec       q    Type
REMARK                         _______ _______ _______ _____ _____    ______ ____
ROOT
ATOM      1  C   UNL     1       7.786   4.482  16.987  0.00  0.00    +0.000 C 
ATOM      2  C   UNL     1       6.689   5.073  17.855  0.00  0.00    +0.000 C 
ATOM      3  C   UNL     1       7.340   6.071  18.844  0.00  0.00    +0.000 C 
ATOM      4  O   UNL     1       5.726   5.742  17.032  0.00  0.00    +0.000 OA
ATOM      5  C   UNL     1       4.664   5.958  17.953  0.00  0.00    +0.000 C 
ATOM      6  O   UNL     1       3.404   6.243  17.367  0.00  0.00    +0.000 OA
ATOM      7  C   UNL     1       2.375   6.177  18.378  0.00  0.00    +0.000 C 
ATOM      8  C   UNL     1       2.146   4.681  18.594  0.00  0.00    +0.000 C 
ATOM      9  O   UNL     1       1.263   4.330  19.652  0.00  0.00    +0.000 OA
ATOM     10  C   UNL     1       1.720   3.040  20.066  0.00  0.00    +0.000 C 
ATOM     11  C   UNL     1       1.165   1.947  19.135  0.00  0.00    +0.000 C 
ATOM     12  C   UNL     1       1.224   2.761  21.481  0.00  0.00    +0.000 C 
ATOM     13  O   UNL     1       3.155   3.082  19.980  0.00  0.00    +0.000 OA
ATOM     14  C   UNL     1       3.433   3.865  18.788  0.00  0.00    +0.000 C 
ATOM     15  C   UNL     1       4.699   4.729  18.894  0.00  0.00    +0.000 C 
ATOM     16  O   UNL     1       5.950   4.072  18.577  0.00  0.00    +0.000 OA
ENDROOT
BRANCH   7  17
ATOM     17  C   UNL     1       2.736   7.052  19.604  0.00  0.00    +0.000 C 
BRANCH  17  18
ATOM     18  O   UNL     1       1.959   8.233  19.765  0.00  0.00    +0.000 OA
BRANCH  18  19
ATOM     19  C   UNL     1       1.261   8.258  20.902  0.00  0.00    +0.000 C 
ATOM     20  O   UNL     1       0.716   7.347  21.485  0.00  0.00    +0.000 OA
BRANCH  19  21
ATOM     21  C   UNL     1       1.065   9.686  21.253  0.00  0.00    +0.000 C 
ATOM     22  N   UNL     1       0.511   9.887  22.416  0.00  0.00    +0.000 NA
ATOM     23  N   UNL     1       0.027  10.094  23.430  0.00  0.00    +0.000 NA
ENDBRANCH  19  21
ENDBRANCH  18  19
ENDBRANCH  17  18
ENDBRANCH   7  17
TORSDOF 4
ENDMDL
MODEL 2
REMARK VINA RESULT:      -7.0      1.168      1.307
REMARK  Name = 
REMARK  8 active torsions:
REMARK  status: ('A' for Active; 'I' for Inactive)
REMARK    1  A    between atoms: C_1  and  C_2
REMARK    2  A    between atoms: C_2  and  C_3
REMARK    3  A    between atoms: C_7  and  C_8
REMARK    4  A    between atoms: C_8  and  O_9
REMARK    5  A    between atoms: O_9  and  C_10
REMARK    6  A    between atoms: C_10  and  C_12
REMARK    7  A    between atoms: C_17  and  C_18
REMARK    8  A    between atoms: C_17  and  C_19
REMARK                            x       y       z     vdW  Elec       q    Type
REMARK                         _______ _______ _______ _____ _____    ______ ____
ROOT
ATOM      1  C   UNL     1       7.846   4.451  17.199  0.00  0.00    +0.000 C 
ATOM      2  C   UNL     1       6.700   5.061  17.989  0.00  0.00    +0.000 C 
ATOM      3  C   UNL     1       7.279   6.161  18.911  0.00  0.00    +0.000 C 
ATOM      4  O   UNL     1       5.735   5.620  17.090  0.00  0.00    +0.000 OA
ATOM      5  C   UNL     1       4.638   5.861  17.963  0.00  0.00    +0.000 C 
ATOM      6  O   UNL     1       3.385   6.044  17.323  0.00  0.00    +0.000 OA
ATOM      7  C   UNL     1       2.330   6.012  18.309  0.00  0.00    +0.000 C 
ATOM      8  C   UNL     1       2.157   4.529  18.637  0.00  0.00    +0.000 C 
ATOM      9  O   UNL     1       1.259   4.224  19.697  0.00  0.00    +0.000 OA
ATOM     10  C   UNL     1       1.757   2.992  20.225  0.00  0.00    +0.000 C 
ATOM     11  C   UNL     1       1.276   1.806  19.370  0.00  0.00    +0.000 C 
ATOM     12  C   UNL     1       1.232   2.804  21.644  0.00  0.00    +0.000 C 
ATOM     13  O   UNL     1       3.191   3.090  20.173  0.00  0.00    +0.000 OA
ATOM     14  C   UNL     1       3.471   3.788  18.930  0.00  0.00    +0.000 C 
ATOM     15  C   UNL     1       4.696   4.713  18.999  0.00  0.00    +0.000 C 
ATOM     16  O   UNL     1       5.982   4.088  18.768  0.00  0.00    +0.000 OA
ENDROOT
BRANCH   7  17
ATOM     17  C   UNL     1       2.618   6.996  19.470  0.00  0.00    +0.000 C 
BRANCH  17  18
ATOM     18  O   UNL     1       2.008   8.276  19.355  0.00  0.00    +0.000 OA
BRANCH  18  19
ATOM     19  C   UNL     1       1.317   8.635  20.438  0.00  0.00    +0.000 C 
ATOM     20  O   UNL     1       1.244   8.084  21.514  0.00  0.00    +0.000 OA
BRANCH  19  21
ATOM     21  C   UNL     1       0.438   9.759  20.033  0.00  0.00    +0.000 C 
ATOM     22  N   UNL     1       1.050  10.725  19.407  0.00  0.00    +0.000 NA
ATOM     23  N   UNL     1       1.558  11.589  18.857  0.00  0.00    +0.000 NA
ENDBRANCH  19  21
ENDBRANCH  18  19
ENDBRANCH  17  18
ENDBRANCH   7  17
TORSDOF 4
ENDMDL
MODEL 3
REMARK VINA RESULT:      -6.9      3.434      5.974
REMARK  Name = 
REMARK  8 active torsions:
REMARK  status: ('A' for Active; 'I' for Inactive)
REMARK    1  A    between atoms: C_1  and  C_2
REMARK    2  A    between atoms: C_2  and  C_3
REMARK    3  A    between atoms: C_7  and  C_8
REMARK    4  A    between atoms: C_8  and  O_9
REMARK    5  A    between atoms: O_9  and  C_10
REMARK    6  A    between atoms: C_10  and  C_12
REMARK    7  A    between atoms: C_17  and  C_18
REMARK    8  A    between atoms: C_17  and  C_19
REMARK                            x       y       z     vdW  Elec       q    Type
REMARK                         _______ _______ _______ _____ _____    ______ ____
ROOT
ATOM      1  C   UNL     1       1.304   9.492  17.703  0.00  0.00    +0.000 C 
ATOM      2  C   UNL     1       1.995   8.270  18.282  0.00  0.00    +0.000 C 
ATOM      3  C   UNL     1       1.996   8.400  19.825  0.00  0.00    +0.000 C 
ATOM      4  O   UNL     1       1.298   7.083  17.882  0.00  0.00    +0.000 OA
ATOM      5  C   UNL     1       2.226   6.070  18.249  0.00  0.00    +0.000 C 
ATOM      6  O   UNL     1       2.019   4.809  17.633  0.00  0.00    +0.000 OA
ATOM      7  C   UNL     1       3.162   3.959  17.874  0.00  0.00    +0.000 C 
ATOM      8  C   UNL     1       4.229   4.468  16.904  0.00  0.00    +0.000 C 
ATOM      9  O   UNL     1       5.519   3.883  17.031  0.00  0.00    +0.000 OA
ATOM     10  C   UNL     1       6.405   4.904  16.567  0.00  0.00    +0.000 C 
ATOM     11  C   UNL     1       6.471   4.905  15.030  0.00  0.00    +0.000 C 
ATOM     12  C   UNL     1       7.807   4.637  17.106  0.00  0.00    +0.000 C 
ATOM     13  O   UNL     1       5.859   6.148  17.040  0.00  0.00    +0.000 OA
ATOM     14  C   UNL     1       4.419   5.993  16.915  0.00  0.00    +0.000 C 
ATOM     15  C   UNL     1       3.619   6.705  18.016  0.00  0.00    +0.000 C 
ATOM     16  O   UNL     1       3.340   8.109  17.797  0.00  0.00    +0.000 OA
ENDROOT
BRANCH   7  17
ATOM     17  C   UNL     1       3.506   3.899  19.383  0.00  0.00    +0.000 C 
BRANCH  17  18
ATOM     18  O   UNL     1       2.554   3.232  20.204  0.00  0.00    +0.000 OA
BRANCH  18  19
ATOM     19  C   UNL     1       3.103   2.381  21.071  0.00  0.00    +0.000 C 
ATOM     20  O   UNL     1       2.736   2.084  22.187  0.00  0.00    +0.000 OA
BRANCH  19  21
ATOM     21  C   UNL     1       4.420   1.991  20.513  0.00  0.00    +0.000 C 
ATOM     22  N   UNL     1       5.215   1.402  21.362  0.00  0.00    +0.000 NA
ATOM     23  N   UNL     1       5.935   0.884  22.084  0.00  0.00    +0.000 NA
ENDBRANCH  19  21
ENDBRANCH  18  19
ENDBRANCH  17  18
ENDBRANCH   7  17
TORSDOF 4
ENDMDL
MODEL 4
REMARK VINA RESULT:      -6.8      1.102      1.352
REMARK  Name = 
REMARK  8 active torsions:
REMARK  status: ('A' for Active; 'I' for Inactive)
REMARK    1  A    between atoms: C_1  and  C_2
REMARK    2  A    between atoms: C_2  and  C_3
REMARK    3  A    between atoms: C_7  and  C_8
REMARK    4  A    between atoms: C_8  and  O_9
REMARK    5  A    between atoms: O_9  and  C_10
REMARK    6  A    between atoms: C_10  and  C_12
REMARK    7  A    between atoms: C_17  and  C_18
REMARK    8  A    between atoms: C_17  and  C_19
REMARK                            x       y       z     vdW  Elec       q    Type
REMARK                         _______ _______ _______ _____ _____    ______ ____
ROOT
ATOM      1  C   UNL     1       7.454   4.896  16.078  0.00  0.00    +0.000 C 
ATOM      2  C   UNL     1       6.476   5.430  17.110  0.00  0.00    +0.000 C 
ATOM      3  C   UNL     1       7.201   6.507  17.955  0.00  0.00    +0.000 C 
ATOM      4  O   UNL     1       5.337   5.997  16.451  0.00  0.00    +0.000 OA
ATOM      5  C   UNL     1       4.432   6.162  17.536  0.00  0.00    +0.000 C 
ATOM      6  O   UNL     1       3.072   6.331  17.168  0.00  0.00    +0.000 OA
ATOM      7  C   UNL     1       2.237   6.220  18.341  0.00  0.00    +0.000 C 
ATOM      8  C   UNL     1       2.169   4.718  18.621  0.00  0.00    +0.000 C 
ATOM      9  O   UNL     1       1.507   4.336  19.821  0.00  0.00    +0.000 OA
ATOM     10  C   UNL     1       2.130   3.098  20.175  0.00  0.00    +0.000 C 
ATOM     11  C   UNL     1       1.516   1.937  19.374  0.00  0.00    +0.000 C 
ATOM     12  C   UNL     1       1.905   2.828  21.659  0.00  0.00    +0.000 C 
ATOM     13  O   UNL     1       3.522   3.246  19.845  0.00  0.00    +0.000 OA
ATOM     14  C   UNL     1       3.532   4.009  18.608  0.00  0.00    +0.000 C 
ATOM     15  C   UNL     1       4.723   4.970  18.480  0.00  0.00    +0.000 C 
ATOM     16  O   UNL     1       5.952   4.400  17.966  0.00  0.00    +0.000 OA
ENDROOT
BRANCH   7  17
ATOM     17  C   UNL     1       2.728   7.159  19.470  0.00  0.00    +0.000 C 
BRANCH  17  18
ATOM     18  O   UNL     1       1.774   8.104  19.941  0.00  0.00    +0.000 OA
BRANCH  18  19
ATOM     19  C   UNL     1       1.524   9.085  19.072  0.00  0.00    +0.000 C 
ATOM     20  O   UNL     1       2.147   9.408  18.085  0.00  0.00    +0.000 OA
BRANCH  19  21
ATOM     21  C   UNL     1       0.424   9.896  19.647  0.00  0.00    +0.000 C 
ATOM     22  N   UNL     1       0.794  10.722  20.587  0.00  0.00    +0.000 NA
ATOM     23  N   UNL     1       1.089  11.454  21.413  0.00  0.00    +0.000 NA
ENDBRANCH  19  21
ENDBRANCH  18  19
ENDBRANCH  17  18
ENDBRANCH   7  17
TORSDOF 4
ENDMDL
MODEL 5
REMARK VINA RESULT:      -6.7      1.763      4.499
REMARK  Name = 
REMARK  8 active torsions:
REMARK  status: ('A' for Active; 'I' for Inactive)
REMARK    1  A    between atoms: C_1  and  C_2
REMARK    2  A    between atoms: C_2  and  C_3
REMARK    3  A    between atoms: C_7  and  C_8
REMARK    4  A    between atoms: C_8  and  O_9
REMARK    5  A    between atoms: O_9  and  C_10
REMARK    6  A    between atoms: C_10  and  C_12
REMARK    7  A    between atoms: C_17  and  C_18
REMARK    8  A    between atoms: C_17  and  C_19
REMARK                            x       y       z     vdW  Elec       q    Type
REMARK                         _______ _______ _______ _____ _____    ______ ____
ROOT
ATOM      1  C   UNL     1       2.217   2.430  21.612  0.00  0.00    +0.000 C 
ATOM      2  C   UNL     1       2.164   3.404  20.448  0.00  0.00    +0.000 C 
ATOM      3  C   UNL     1       0.695   3.508  19.969  0.00  0.00    +0.000 C 
ATOM      4  O   UNL     1       2.644   4.688  20.868  0.00  0.00    +0.000 OA
ATOM      5  C   UNL     1       2.801   5.355  19.621  0.00  0.00    +0.000 C 
ATOM      6  O   UNL     1       3.631   6.505  19.651  0.00  0.00    +0.000 OA
ATOM      7  C   UNL     1       3.921   6.928  18.301  0.00  0.00    +0.000 C 
ATOM      8  C   UNL     1       4.984   5.942  17.813  0.00  0.00    +0.000 C 
ATOM      9  O   UNL     1       5.355   6.052  16.444  0.00  0.00    +0.000 OA
ATOM     10  C   UNL     1       5.771   4.730  16.095  0.00  0.00    +0.000 C 
ATOM     11  C   UNL     1       7.221   4.482  16.550  0.00  0.00    +0.000 C 
ATOM     12  C   UNL     1       5.710   4.566  14.580  0.00  0.00    +0.000 C 
ATOM     13  O   UNL     1       4.878   3.838  16.784  0.00  0.00    +0.000 OA
ATOM     14  C   UNL     1       4.648   4.466  18.075  0.00  0.00    +0.000 C 
ATOM     15  C   UNL     1       3.233   4.247  18.630  0.00  0.00    +0.000 C 
ATOM     16  O   UNL     1       3.015   3.013  19.356  0.00  0.00    +0.000 OA
ENDROOT
BRANCH   7  17
ATOM     17  C   UNL     1       2.623   7.082  17.471  0.00  0.00    +0.000 C 
BRANCH  17  18
ATOM     18  O   UNL     1       1.563   7.781  18.115  0.00  0.00    +0.000 OA
BRANCH  18  19
ATOM     19  C   UNL     1       1.677   9.108  18.036  0.00  0.00    +0.000 C 
ATOM     20  O   UNL     1       2.354   9.774  17.283  0.00  0.00    +0.000 OA
BRANCH  19  21
ATOM     21  C   UNL     1       0.972   9.669  19.214  0.00  0.00    +0.000 C 
ATOM     22  N   UNL     1       1.128   8.987  20.314  0.00  0.00    +0.000 NA
ATOM     23  N   UNL     1       1.246   8.409  21.293  0.00  0.00    +0.000 NA
ENDBRANCH  19  21
ENDBRANCH  18  19
ENDBRANCH  17  18
ENDBRANCH   7  17
TORSDOF 4
ENDMDL
MODEL 6
REMARK VINA RESULT:      -6.5      2.063      4.554
REMARK  Name = 
REMARK  8 active torsions:
REMARK  status: ('A' for Active; 'I' for Inactive)
REMARK    1  A    between atoms: C_1  and  C_2
REMARK    2  A    between atoms: C_2  and  C_3
REMARK    3  A    between atoms: C_7  and  C_8
REMARK    4  A    between atoms: C_8  and  O_9
REMARK    5  A    between atoms: O_9  and  C_10
REMARK    6  A    between atoms: C_10  and  C_12
REMARK    7  A    between atoms: C_17  and  C_18
REMARK    8  A    between atoms: C_17  and  C_19
REMARK                            x       y       z     vdW  Elec       q    Type
REMARK                         _______ _______ _______ _____ _____    ______ ____
ROOT
ATOM      1  C   UNL     1       2.164   2.428  21.585  0.00  0.00    +0.000 C 
ATOM      2  C   UNL     1       2.118   3.435  20.449  0.00  0.00    +0.000 C 
ATOM      3  C   UNL     1       0.639   3.627  20.030  0.00  0.00    +0.000 C 
ATOM      4  O   UNL     1       2.680   4.680  20.882  0.00  0.00    +0.000 OA
ATOM      5  C   UNL     1       2.824   5.372  19.648  0.00  0.00    +0.000 C 
ATOM      6  O   UNL     1       3.713   6.477  19.675  0.00  0.00    +0.000 OA
ATOM      7  C   UNL     1       3.975   6.921  18.326  0.00  0.00    +0.000 C 
ATOM      8  C   UNL     1       4.966   5.897  17.771  0.00  0.00    +0.000 C 
ATOM      9  O   UNL     1       5.290   6.025  16.392  0.00  0.00    +0.000 OA
ATOM     10  C   UNL     1       5.624   4.693  15.994  0.00  0.00    +0.000 C 
ATOM     11  C   UNL     1       7.074   4.359  16.386  0.00  0.00    +0.000 C 
ATOM     12  C   UNL     1       5.497   4.574  14.479  0.00  0.00    +0.000 C 
ATOM     13  O   UNL     1       4.711   3.829  16.695  0.00  0.00    +0.000 OA
ATOM     14  C   UNL     1       4.563   4.433  18.008  0.00  0.00    +0.000 C 
ATOM     15  C   UNL     1       3.160   4.271  18.613  0.00  0.00    +0.000 C 
ATOM     16  O   UNL     1       2.906   3.031  19.315  0.00  0.00    +0.000 OA
ENDROOT
BRANCH   7  17
ATOM     17  C   UNL     1       2.656   7.165  17.551  0.00  0.00    +0.000 C 
BRANCH  17  18
ATOM     18  O   UNL     1       2.355   8.526  17.266  0.00  0.00    +0.000 OA
BRANCH  18  19
ATOM     19  C   UNL     1       1.895   9.200  18.321  0.00  0.00    +0.000 C 
ATOM     20  O   UNL     1       1.323   8.784  19.304  0.00  0.00    +0.000 OA
BRANCH  19  21
ATOM     21  C   UNL     1       2.011  10.642  17.993  0.00  0.00    +0.000 C 
ATOM     22  N   UNL     1       1.435  11.440  18.847  0.00  0.00    +0.000 NA
ATOM     23  N   UNL     1       0.939  12.165  19.579  0.00  0.00    +0.000 NA
ENDBRANCH  19  21
ENDBRANCH  18  19
ENDBRANCH  17  18
ENDBRANCH   7  17
TORSDOF 4
ENDMDL
MODEL 7
REMARK VINA RESULT:      -6.5      4.844      6.419
REMARK  Name = 
REMARK  8 active torsions:
REMARK  status: ('A' for Active; 'I' for Inactive)
REMARK    1  A    between atoms: C_1  and  C_2
REMARK    2  A    between atoms: C_2  and  C_3
REMARK    3  A    between atoms: C_7  and  C_8
REMARK    4  A    between atoms: C_8  and  O_9
REMARK    5  A    between atoms: O_9  and  C_10
REMARK    6  A    between atoms: C_10  and  C_12
REMARK    7  A    between atoms: C_17  and  C_18
REMARK    8  A    between atoms: C_17  and  C_19
REMARK                            x       y       z     vdW  Elec       q    Type
REMARK                         _______ _______ _______ _____ _____    ______ ____
ROOT
ATOM      1  C   UNL     1       8.772   5.380  20.501  0.00  0.00    +0.000 C 
ATOM      2  C   UNL     1       7.843   5.550  19.312  0.00  0.00    +0.000 C 
ATOM      3  C   UNL     1       8.071   6.961  18.716  0.00  0.00    +0.000 C 
ATOM      4  O   UNL     1       8.122   4.543  18.331  0.00  0.00    +0.000 OA
ATOM      5  C   UNL     1       7.000   4.669  17.466  0.00  0.00    +0.000 C 
ATOM      6  O   UNL     1       6.765   3.558  16.615  0.00  0.00    +0.000 OA
ATOM      7  C   UNL     1       5.469   3.691  15.992  0.00  0.00    +0.000 C 
ATOM      8  C   UNL     1       4.476   3.301  17.088  0.00  0.00    +0.000 C 
ATOM      9  O   UNL     1       3.099   3.478  16.774  0.00  0.00    +0.000 OA
ATOM     10  C   UNL     1       2.486   3.701  18.046  0.00  0.00    +0.000 C 
ATOM     11  C   UNL     1       2.232   2.365  18.766  0.00  0.00    +0.000 C 
ATOM     12  C   UNL     1       1.144   4.398  17.842  0.00  0.00    +0.000 C 
ATOM     13  O   UNL     1       3.414   4.500  18.800  0.00  0.00    +0.000 OA
ATOM     14  C   UNL     1       4.725   3.984  18.441  0.00  0.00    +0.000 C 
ATOM     15  C   UNL     1       5.824   5.056  18.396  0.00  0.00    +0.000 C 
ATOM     16  O   UNL     1       6.457   5.376  19.658  0.00  0.00    +0.000 OA
ENDROOT
BRANCH   7  17
ATOM     17  C   UNL     1       5.313   5.075  15.315  0.00  0.00    +0.000 C 
BRANCH  17  18
ATOM     18  O   UNL     1       5.515   5.095  13.906  0.00  0.00    +0.000 OA
BRANCH  18  19
ATOM     19  C   UNL     1       6.757   4.774  13.543  0.00  0.00    +0.000 C 
ATOM     20  O   UNL     1       7.788   5.383  13.726  0.00  0.00    +0.000 OA
BRANCH  19  21
ATOM     21  C   UNL     1       6.651   3.597  12.647  0.00  0.00    +0.000 C 
ATOM     22  N   UNL     1       5.478   3.436  12.101  0.00  0.00    +0.000 NA
ATOM     23  N   UNL     1       4.461   3.269  11.609  0.00  0.00    +0.000 NA
ENDBRANCH  19  21
ENDBRANCH  18  19
ENDBRANCH  17  18
ENDBRANCH   7  17
TORSDOF 4
ENDMDL
MODEL 8
REMARK VINA RESULT:      -6.4      3.166      5.086
REMARK  Name = 
REMARK  8 active torsions:
REMARK  status: ('A' for Active; 'I' for Inactive)
REMARK    1  A    between atoms: C_1  and  C_2
REMARK    2  A    between atoms: C_2  and  C_3
REMARK    3  A    between atoms: C_7  and  C_8
REMARK    4  A    between atoms: C_8  and  O_9
REMARK    5  A    between atoms: O_9  and  C_10
REMARK    6  A    between atoms: C_10  and  C_12
REMARK    7  A    between atoms: C_17  and  C_18
REMARK    8  A    between atoms: C_17  and  C_19
REMARK                            x       y       z     vdW  Elec       q    Type
REMARK                         _______ _______ _______ _____ _____    ______ ____
ROOT
ATOM      1  C   UNL     1       7.100   5.839  16.419  0.00  0.00    +0.000 C 
ATOM      2  C   UNL     1       5.669   5.618  16.879  0.00  0.00    +0.000 C 
ATOM      3  C   UNL     1       5.135   4.333  16.200  0.00  0.00    +0.000 C 
ATOM      4  O   UNL     1       5.635   5.480  18.305  0.00  0.00    +0.000 OA
ATOM      5  C   UNL     1       4.241   5.581  18.568  0.00  0.00    +0.000 C 
ATOM      6  O   UNL     1       3.899   5.880  19.912  0.00  0.00    +0.000 OA
ATOM      7  C   UNL     1       2.497   6.216  19.991  0.00  0.00    +0.000 C 
ATOM      8  C   UNL     1       2.415   7.647  19.455  0.00  0.00    +0.000 C 
ATOM      9  O   UNL     1       1.106   8.180  19.296  0.00  0.00    +0.000 OA
ATOM     10  C   UNL     1       1.251   9.132  18.239  0.00  0.00    +0.000 C 
ATOM     11  C   UNL     1       1.812  10.459  18.780  0.00  0.00    +0.000 C 
ATOM     12  C   UNL     1      -0.115   9.406  17.618  0.00  0.00    +0.000 C 
ATOM     13  O   UNL     1       2.176   8.548  17.304  0.00  0.00    +0.000 OA
ATOM     14  C   UNL     1       3.161   7.869  18.130  0.00  0.00    +0.000 C 
ATOM     15  C   UNL     1       3.709   6.577  17.508  0.00  0.00    +0.000 C 
ATOM     16  O   UNL     1       4.810   6.731  16.579  0.00  0.00    +0.000 OA
ENDROOT
BRANCH   7  17
ATOM     17  C   UNL     1       1.621   5.128  19.323  0.00  0.00    +0.000 C 
BRANCH  17  18
ATOM     18  O   UNL     1       0.953   4.244  20.216  0.00  0.00    +0.000 OA
BRANCH  18  19
ATOM     19  C   UNL     1       1.774   3.396  20.837  0.00  0.00    +0.000 C 
ATOM     20  O   UNL     1       2.137   3.392  21.993  0.00  0.00    +0.000 OA
BRANCH  19  21
ATOM     21  C   UNL     1       2.373   2.535  19.789  0.00  0.00    +0.000 C 
ATOM     22  N   UNL     1       3.644   2.289  19.951  0.00  0.00    +0.000 NA
ATOM     23  N   UNL     1       4.757   2.058  20.066  0.00  0.00    +0.000 NA
ENDBRANCH  19  21
ENDBRANCH  18  19
ENDBRANCH  17  18
ENDBRANCH   7  17
TORSDOF 4
ENDMDL
MODEL 9
REMARK VINA RESULT:      -6.3      1.091      1.181
REMARK  Name = 
REMARK  8 active torsions:
REMARK  status: ('A' for Active; 'I' for Inactive)
REMARK    1  A    between atoms: C_1  and  C_2
REMARK    2  A    between atoms: C_2  and  C_3
REMARK    3  A    between atoms: C_7  and  C_8
REMARK    4  A    between atoms: C_8  and  O_9
REMARK    5  A    between atoms: O_9  and  C_10
REMARK    6  A    between atoms: C_10  and  C_12
REMARK    7  A    between atoms: C_17  and  C_18
REMARK    8  A    between atoms: C_17  and  C_19
REMARK                            x       y       z     vdW  Elec       q    Type
REMARK                         _______ _______ _______ _____ _____    ______ ____
ROOT
ATOM      1  C   UNL     1       8.340   4.376  17.886  0.00  0.00    +0.000 C 
ATOM      2  C   UNL     1       7.063   5.058  18.344  0.00  0.00    +0.000 C 
ATOM      3  C   UNL     1       7.450   6.336  19.128  0.00  0.00    +0.000 C 
ATOM      4  O   UNL     1       6.258   5.395  17.206  0.00  0.00    +0.000 OA
ATOM      5  C   UNL     1       5.022   5.733  17.822  0.00  0.00    +0.000 C 
ATOM      6  O   UNL     1       3.896   5.732  16.958  0.00  0.00    +0.000 OA
ATOM      7  C   UNL     1       2.686   5.825  17.739  0.00  0.00    +0.000 C 
ATOM      8  C   UNL     1       2.488   4.419  18.307  0.00  0.00    +0.000 C 
ATOM      9  O   UNL     1       1.423   4.266  19.238  0.00  0.00    +0.000 OA
ATOM     10  C   UNL     1       1.845   3.177  20.063  0.00  0.00    +0.000 C 
ATOM     11  C   UNL     1       1.544   1.832  19.378  0.00  0.00    +0.000 C 
ATOM     12  C   UNL     1       1.084   3.222  21.384  0.00  0.00    +0.000 C 
ATOM     13  O   UNL     1       3.264   3.337  20.237  0.00  0.00    +0.000 OA
ATOM     14  C   UNL     1       3.744   3.813  18.950  0.00  0.00    +0.000 C 
ATOM     15  C   UNL     1       4.920   4.796  19.049  0.00  0.00    +0.000 C 
ATOM     16  O   UNL     1       6.238   4.207  19.160  0.00  0.00    +0.000 OA
ENDROOT
BRANCH   7  17
ATOM     17  C   UNL     1       2.748   7.016  18.727  0.00  0.00    +0.000 C 
BRANCH  17  18
ATOM     18  O   UNL     1       2.001   8.167  18.348  0.00  0.00    +0.000 OA
BRANCH  18  19
ATOM     19  C   UNL     1       1.620   8.918  19.383  0.00  0.00    +0.000 C 
ATOM     20  O   UNL     1       1.482  10.120  19.445  0.00  0.00    +0.000 OA
BRANCH  19  21
ATOM     21  C   UNL     1       1.593   8.029  20.570  0.00  0.00    +0.000 C 
ATOM     22  N   UNL     1       1.271   8.624  21.685  0.00  0.00    +0.000 NA
ATOM     23  N   UNL     1       0.992   9.118  22.677  0.00  0.00    +0.000 NA
ENDBRANCH  19  21
ENDBRANCH  18  19
ENDBRANCH  17  18
ENDBRANCH   7  17
TORSDOF 4
ENDMDL
