MODEL 1
REMARK VINA RESULT:      -6.3      0.000      0.000
REMARK  Name = 
REMARK  4 active torsions:
REMARK  status: ('A' for Active; 'I' for Inactive)
REMARK    1  A    between atoms: C_1  and  C_2
REMARK    2  A    between atoms: C_5  and  C_6
REMARK    3  A    between atoms: C_9  and  C_10
REMARK    4  A    between atoms: C_10  and  N_11
REMARK                            x       y       z     vdW  Elec       q    Type
REMARK                         _______ _______ _______ _____ _____    ______ ____
ROOT
ATOM      1  C   UNL     1       4.303   3.798  17.726  0.00  0.00    +0.000 A 
ATOM      2  C   UNL     1       2.964   3.707  17.323  0.00  0.00    +0.000 A 
ATOM      3  C   UNL     1       1.956   3.397  18.242  0.00  0.00    +0.000 A 
ATOM      4  C   UNL     1       2.261   3.163  19.591  0.00  0.00    +0.000 A 
ATOM      5  C   UNL     1       3.598   3.271  19.998  0.00  0.00    +0.000 A 
ATOM      6  C   UNL     1       4.606   3.574  19.076  0.00  0.00    +0.000 A 
ENDROOT
BRANCH   1  11
ATOM      7  C   UNL     1       7.086   4.814  13.796  0.00  0.00    +0.000 C 
ATOM      8  C   UNL     1       6.636   4.548  15.174  0.00  0.00    +0.000 A 
ATOM      9  N   UNL     1       7.448   4.665  16.231  0.00  0.00    +0.000 NA
ATOM     10  O   UNL     1       6.607   4.371  17.307  0.00  0.00    +0.000 OA
ATOM     11  C   UNL     1       5.371   4.109  16.782  0.00  0.00    +0.000 A 
ATOM     12  N   UNL     1       5.344   4.195  15.468  0.00  0.00    +0.000 NA
ENDBRANCH   1  11
BRANCH   4  13
ATOM     13  C   UNL     1       1.143   2.889  20.569  0.00  0.00    +0.000 C 
BRANCH  13  14
ATOM     14  N   UNL     1       1.615   2.611  21.921  0.00  0.00    +0.000 NA
ATOM     15  H   UNL     1       1.029   1.883  22.329  0.00  0.00    +0.000 HD
ATOM     16  H   UNL     1       1.479   3.441  22.496  0.00  0.00    +0.000 HD
ENDBRANCH  13  14
ENDBRANCH   4  13
TORSDOF 3
ENDMDL
MODEL 2
REMARK VINA RESULT:      -6.2      0.103      1.288
REMARK  Name = 
REMARK  4 active torsions:
REMARK  status: ('A' for Active; 'I' for Inactive)
REMARK    1  A    between atoms: C_1  and  C_2
REMARK    2  A    between atoms: C_5  and  C_6
REMARK    3  A    between atoms: C_9  and  C_10
REMARK    4  A    between atoms: C_10  and  N_11
REMARK                            x       y       z     vdW  Elec       q    Type
REMARK                         _______ _______ _______ _____ _____    ______ ____
ROOT
ATOM      1  C   UNL     1       4.296   3.852  17.797  0.00  0.00    +0.000 A 
ATOM      2  C   UNL     1       4.552   3.730  19.169  0.00  0.00    +0.000 A 
ATOM      3  C   UNL     1       3.518   3.461  20.073  0.00  0.00    +0.000 A 
ATOM      4  C   UNL     1       2.197   3.312  19.628  0.00  0.00    +0.000 A 
ATOM      5  C   UNL     1       1.943   3.417  18.254  0.00  0.00    +0.000 A 
ATOM      6  C   UNL     1       2.976   3.693  17.352  0.00  0.00    +0.000 A 
ENDROOT
BRANCH   1  11
ATOM      7  C   UNL     1       7.052   4.792  13.829  0.00  0.00    +0.000 C 
ATOM      8  C   UNL     1       6.612   4.550  15.215  0.00  0.00    +0.000 A 
ATOM      9  N   UNL     1       7.432   4.678  16.263  0.00  0.00    +0.000 NA
ATOM     10  O   UNL     1       6.599   4.406  17.351  0.00  0.00    +0.000 OA
ATOM     11  C   UNL     1       5.357   4.143  16.839  0.00  0.00    +0.000 A 
ATOM     12  N   UNL     1       5.320   4.208  15.524  0.00  0.00    +0.000 NA
ENDBRANCH   1  11
BRANCH   4  13
ATOM     13  C   UNL     1       1.113   2.964  20.621  0.00  0.00    +0.000 C 
BRANCH  13  14
ATOM     14  N   UNL     1       1.631   2.606  21.938  0.00  0.00    +0.000 NA
ATOM     15  H   UNL     1       1.037   3.028  22.650  0.00  0.00    +0.000 HD
ATOM     16  H   UNL     1       2.554   3.021  22.054  0.00  0.00    +0.000 HD
ENDBRANCH  13  14
ENDBRANCH   4  13
TORSDOF 3
ENDMDL
MODEL 3
REMARK VINA RESULT:      -6.2      1.169      1.243
REMARK  Name = 
REMARK  4 active torsions:
REMARK  status: ('A' for Active; 'I' for Inactive)
REMARK    1  A    between atoms: C_1  and  C_2
REMARK    2  A    between atoms: C_5  and  C_6
REMARK    3  A    between atoms: C_9  and  C_10
REMARK    4  A    between atoms: C_10  and  N_11
REMARK                            x       y       z     vdW  Elec       q    Type
REMARK                         _______ _______ _______ _____ _____    ______ ____
ROOT
ATOM      1  C   UNL     1       3.780   4.284  17.693  0.00  0.00    +0.000 A 
ATOM      2  C   UNL     1       2.526   4.872  17.907  0.00  0.00    +0.000 A 
ATOM      3  C   UNL     1       1.681   4.412  18.923  0.00  0.00    +0.000 A 
ATOM      4  C   UNL     1       2.066   3.347  19.750  0.00  0.00    +0.000 A 
ATOM      5  C   UNL     1       3.327   2.771  19.548  0.00  0.00    +0.000 A 
ATOM      6  C   UNL     1       4.168   3.227  18.527  0.00  0.00    +0.000 A 
ENDROOT
BRANCH   1  11
ATOM      7  C   UNL     1       6.956   4.741  13.960  0.00  0.00    +0.000 C 
ATOM      8  C   UNL     1       6.011   5.038  15.052  0.00  0.00    +0.000 A 
ATOM      9  N   UNL     1       5.582   6.278  15.315  0.00  0.00    +0.000 NA
ATOM     10  O   UNL     1       4.688   6.084  16.371  0.00  0.00    +0.000 OA
ATOM     11  C   UNL     1       4.672   4.741  16.632  0.00  0.00    +0.000 A 
ATOM     12  N   UNL     1       5.482   4.057  15.851  0.00  0.00    +0.000 NA
ENDBRANCH   1  11
BRANCH   4  13
ATOM     13  C   UNL     1       1.156   2.914  20.876  0.00  0.00    +0.000 C 
BRANCH  13  14
ATOM     14  N   UNL     1       1.860   2.689  22.134  0.00  0.00    +0.000 NA
ATOM     15  H   UNL     1       1.633   3.446  22.776  0.00  0.00    +0.000 HD
ATOM     16  H   UNL     1       2.864   2.750  21.965  0.00  0.00    +0.000 HD
ENDBRANCH  13  14
ENDBRANCH   4  13
TORSDOF 3
ENDMDL
MODEL 4
REMARK VINA RESULT:      -6.2      1.152      1.643
REMARK  Name = 
REMARK  4 active torsions:
REMARK  status: ('A' for Active; 'I' for Inactive)
REMARK    1  A    between atoms: C_1  and  C_2
REMARK    2  A    between atoms: C_5  and  C_6
REMARK    3  A    between atoms: C_9  and  C_10
REMARK    4  A    between atoms: C_10  and  N_11
REMARK                            x       y       z     vdW  Elec       q    Type
REMARK                         _______ _______ _______ _____ _____    ______ ____
ROOT
ATOM      1  C   UNL     1       3.841   4.271  17.710  0.00  0.00    +0.000 A 
ATOM      2  C   UNL     1       4.230   3.250  18.588  0.00  0.00    +0.000 A 
ATOM      3  C   UNL     1       3.376   2.816  19.609  0.00  0.00    +0.000 A 
ATOM      4  C   UNL     1       2.112   3.396  19.783  0.00  0.00    +0.000 A 
ATOM      5  C   UNL     1       1.716   4.405  18.894  0.00  0.00    +0.000 A 
ATOM      6  C   UNL     1       2.573   4.843  17.879  0.00  0.00    +0.000 A 
ENDROOT
BRANCH   1  11
ATOM      7  C   UNL     1       7.004   4.792  13.975  0.00  0.00    +0.000 C 
ATOM      8  C   UNL     1       6.050   5.070  15.065  0.00  0.00    +0.000 A 
ATOM      9  N   UNL     1       5.585   6.298  15.318  0.00  0.00    +0.000 NA
ATOM     10  O   UNL     1       4.697   6.086  16.375  0.00  0.00    +0.000 OA
ATOM     11  C   UNL     1       4.719   4.745  16.647  0.00  0.00    +0.000 A 
ATOM     12  N   UNL     1       5.550   4.079  15.871  0.00  0.00    +0.000 NA
ENDBRANCH   1  11
BRANCH   4  13
ATOM     13  C   UNL     1       1.192   2.864  20.856  0.00  0.00    +0.000 C 
BRANCH  13  14
ATOM     14  N   UNL     1       1.855   2.671  22.142  0.00  0.00    +0.000 NA
ATOM     15  H   UNL     1       1.640   1.736  22.484  0.00  0.00    +0.000 HD
ATOM     16  H   UNL     1       1.459   3.321  22.819  0.00  0.00    +0.000 HD
ENDBRANCH  13  14
ENDBRANCH   4  13
TORSDOF 3
ENDMDL
MODEL 5
REMARK VINA RESULT:      -6.1      1.124      1.264
REMARK  Name = 
REMARK  4 active torsions:
REMARK  status: ('A' for Active; 'I' for Inactive)
REMARK    1  A    between atoms: C_1  and  C_2
REMARK    2  A    between atoms: C_5  and  C_6
REMARK    3  A    between atoms: C_9  and  C_10
REMARK    4  A    between atoms: C_10  and  N_11
REMARK                            x       y       z     vdW  Elec       q    Type
REMARK                         _______ _______ _______ _____ _____    ______ ____
ROOT
ATOM      1  C   UNL     1       4.178   3.860  17.044  0.00  0.00    +0.000 A 
ATOM      2  C   UNL     1       3.815   2.526  17.277  0.00  0.00    +0.000 A 
ATOM      3  C   UNL     1       2.688   2.212  18.044  0.00  0.00    +0.000 A 
ATOM      4  C   UNL     1       1.895   3.223  18.605  0.00  0.00    +0.000 A 
ATOM      5  C   UNL     1       2.247   4.557  18.357  0.00  0.00    +0.000 A 
ATOM      6  C   UNL     1       3.379   4.871  17.596  0.00  0.00    +0.000 A 
ENDROOT
BRANCH   1  11
ATOM      7  C   UNL     1       7.438   5.003  13.539  0.00  0.00    +0.000 C 
ATOM      8  C   UNL     1       6.814   4.703  14.840  0.00  0.00    +0.000 A 
ATOM      9  N   UNL     1       7.474   4.817  15.998  0.00  0.00    +0.000 NA
ATOM     10  O   UNL     1       6.503   4.487  16.947  0.00  0.00    +0.000 OA
ATOM     11  C   UNL     1       5.355   4.210  16.257  0.00  0.00    +0.000 A 
ATOM     12  N   UNL     1       5.502   4.318  14.952  0.00  0.00    +0.000 NA
ENDBRANCH   1  11
BRANCH   4  13
ATOM     13  C   UNL     1       0.652   2.851  19.377  0.00  0.00    +0.000 C 
BRANCH  13  14
ATOM     14  N   UNL     1       0.755   3.129  20.806  0.00  0.00    +0.000 NA
ATOM     15  H   UNL     1       1.642   2.764  21.148  0.00  0.00    +0.000 HD
ATOM     16  H   UNL     1       0.026   2.613  21.297  0.00  0.00    +0.000 HD
ENDBRANCH  13  14
ENDBRANCH   4  13
TORSDOF 3
ENDMDL
MODEL 6
REMARK VINA RESULT:      -6.1      2.190      2.568
REMARK  Name = 
REMARK  4 active torsions:
REMARK  status: ('A' for Active; 'I' for Inactive)
REMARK    1  A    between atoms: C_1  and  C_2
REMARK    2  A    between atoms: C_5  and  C_6
REMARK    3  A    between atoms: C_9  and  C_10
REMARK    4  A    between atoms: C_10  and  N_11
REMARK                            x       y       z     vdW  Elec       q    Type
REMARK                         _______ _______ _______ _____ _____    ______ ____
ROOT
ATOM      1  C   UNL     1       4.761   5.135  16.532  0.00  0.00    +0.000 A 
ATOM      2  C   UNL     1       4.534   6.404  17.083  0.00  0.00    +0.000 A 
ATOM      3  C   UNL     1       3.669   6.571  18.170  0.00  0.00    +0.000 A 
ATOM      4  C   UNL     1       3.003   5.473  18.734  0.00  0.00    +0.000 A 
ATOM      5  C   UNL     1       3.244   4.202  18.194  0.00  0.00    +0.000 A 
ATOM      6  C   UNL     1       4.103   4.037  17.102  0.00  0.00    +0.000 A 
ENDROOT
BRANCH   1  11
ATOM      7  C   UNL     1       6.916   3.877  12.290  0.00  0.00    +0.000 C 
ATOM      8  C   UNL     1       6.649   4.461  13.617  0.00  0.00    +0.000 A 
ATOM      9  N   UNL     1       7.488   5.319  14.208  0.00  0.00    +0.000 NA
ATOM     10  O   UNL     1       6.825   5.640  15.394  0.00  0.00    +0.000 OA
ATOM     11  C   UNL     1       5.649   4.940  15.391  0.00  0.00    +0.000 A 
ATOM     12  N   UNL     1       5.503   4.189  14.319  0.00  0.00    +0.000 NA
ENDBRANCH   1  11
BRANCH   4  13
ATOM     13  C   UNL     1       2.123   5.679  19.944  0.00  0.00    +0.000 C 
BRANCH  13  14
ATOM     14  N   UNL     1       2.119   7.056  20.427  0.00  0.00    +0.000 NA
ATOM     15  H   UNL     1       1.968   7.680  19.636  0.00  0.00    +0.000 HD
ATOM     16  H   UNL     1       3.042   7.279  20.795  0.00  0.00    +0.000 HD
ENDBRANCH  13  14
ENDBRANCH   4  13
TORSDOF 3
ENDMDL
MODEL 7
REMARK VINA RESULT:      -6.1      2.154      2.549
REMARK  Name = 
REMARK  4 active torsions:
REMARK  status: ('A' for Active; 'I' for Inactive)
REMARK    1  A    between atoms: C_1  and  C_2
REMARK    2  A    between atoms: C_5  and  C_6
REMARK    3  A    between atoms: C_9  and  C_10
REMARK    4  A    between atoms: C_10  and  N_11
REMARK                            x       y       z     vdW  Elec       q    Type
REMARK                         _______ _______ _______ _____ _____    ______ ____
ROOT
ATOM      1  C   UNL     1       4.861   5.055  16.551  0.00  0.00    +0.000 A 
ATOM      2  C   UNL     1       4.320   3.956  17.232  0.00  0.00    +0.000 A 
ATOM      3  C   UNL     1       3.494   4.137  18.347  0.00  0.00    +0.000 A 
ATOM      4  C   UNL     1       3.191   5.423  18.815  0.00  0.00    +0.000 A 
ATOM      5  C   UNL     1       3.717   6.523  18.123  0.00  0.00    +0.000 A 
ATOM      6  C   UNL     1       4.549   6.341  17.013  0.00  0.00    +0.000 A 
ENDROOT
BRANCH   1  11
ATOM      7  C   UNL     1       6.984   3.843  12.279  0.00  0.00    +0.000 C 
ATOM      8  C   UNL     1       6.716   4.434  13.603  0.00  0.00    +0.000 A 
ATOM      9  N   UNL     1       7.522   5.344  14.162  0.00  0.00    +0.000 NA
ATOM     10  O   UNL     1       6.870   5.649  15.358  0.00  0.00    +0.000 OA
ATOM     11  C   UNL     1       5.733   4.889  15.393  0.00  0.00    +0.000 A 
ATOM     12  N   UNL     1       5.602   4.114  14.336  0.00  0.00    +0.000 NA
ENDBRANCH   1  11
BRANCH   4  13
ATOM     13  C   UNL     1       2.249   5.585  19.985  0.00  0.00    +0.000 C 
BRANCH  13  14
ATOM     14  N   UNL     1       2.126   6.966  20.440  0.00  0.00    +0.000 NA
ATOM     15  H   UNL     1       3.056   7.379  20.486  0.00  0.00    +0.000 HD
ATOM     16  H   UNL     1       1.766   6.968  21.393  0.00  0.00    +0.000 HD
ENDBRANCH  13  14
ENDBRANCH   4  13
TORSDOF 3
ENDMDL
MODEL 8
REMARK VINA RESULT:      -6.1      1.442      1.772
REMARK  Name = 
REMARK  4 active torsions:
REMARK  status: ('A' for Active; 'I' for Inactive)
REMARK    1  A    between atoms: C_1  and  C_2
REMARK    2  A    between atoms: C_5  and  C_6
REMARK    3  A    between atoms: C_9  and  C_10
REMARK    4  A    between atoms: C_10  and  N_11
REMARK                            x       y       z     vdW  Elec       q    Type
REMARK                         _______ _______ _______ _____ _____    ______ ____
ROOT
ATOM      1  C   UNL     1       4.434   4.732  17.101  0.00  0.00    +0.000 A 
ATOM      2  C   UNL     1       4.434   5.719  18.096  0.00  0.00    +0.000 A 
ATOM      3  C   UNL     1       3.480   5.706  19.120  0.00  0.00    +0.000 A 
ATOM      4  C   UNL     1       2.497   4.708  19.173  0.00  0.00    +0.000 A 
ATOM      5  C   UNL     1       2.508   3.711  18.188  0.00  0.00    +0.000 A 
ATOM      6  C   UNL     1       3.458   3.730  17.160  0.00  0.00    +0.000 A 
ENDROOT
BRANCH   1  11
ATOM      7  C   UNL     1       6.918   4.253  12.878  0.00  0.00    +0.000 C 
ATOM      8  C   UNL     1       6.549   4.575  14.268  0.00  0.00    +0.000 A 
ATOM      9  N   UNL     1       7.352   5.271  15.082  0.00  0.00    +0.000 NA
ATOM     10  O   UNL     1       6.597   5.377  16.253  0.00  0.00    +0.000 OA
ATOM     11  C   UNL     1       5.413   4.733  16.018  0.00  0.00    +0.000 A 
ATOM     12  N   UNL     1       5.343   4.212  14.811  0.00  0.00    +0.000 NA
ENDBRANCH   1  11
BRANCH   4  13
ATOM     13  C   UNL     1       1.519   4.689  20.324  0.00  0.00    +0.000 C 
BRANCH  13  14
ATOM     14  N   UNL     1       0.625   3.535  20.303  0.00  0.00    +0.000 NA
ATOM     15  H   UNL     1       0.447   3.242  21.262  0.00  0.00    +0.000 HD
ATOM     16  H   UNL     1       1.102   2.757  19.851  0.00  0.00    +0.000 HD
ENDBRANCH  13  14
ENDBRANCH   4  13
TORSDOF 3
ENDMDL
MODEL 9
REMARK VINA RESULT:      -6.0      1.401      1.448
REMARK  Name = 
REMARK  4 active torsions:
REMARK  status: ('A' for Active; 'I' for Inactive)
REMARK    1  A    between atoms: C_1  and  C_2
REMARK    2  A    between atoms: C_5  and  C_6
REMARK    3  A    between atoms: C_9  and  C_10
REMARK    4  A    between atoms: C_10  and  N_11
REMARK                            x       y       z     vdW  Elec       q    Type
REMARK                         _______ _______ _______ _____ _____    ______ ____
ROOT
ATOM      1  C   UNL     1       4.527   4.680  17.255  0.00  0.00    +0.000 A 
ATOM      2  C   UNL     1       3.449   3.785  17.298  0.00  0.00    +0.000 A 
ATOM      3  C   UNL     1       2.564   3.777  18.382  0.00  0.00    +0.000 A 
ATOM      4  C   UNL     1       2.736   4.661  19.456  0.00  0.00    +0.000 A 
ATOM      5  C   UNL     1       3.803   5.569  19.405  0.00  0.00    +0.000 A 
ATOM      6  C   UNL     1       4.692   5.571  18.325  0.00  0.00    +0.000 A 
ENDROOT
BRANCH   1  11
ATOM      7  C   UNL     1       6.877   4.234  12.954  0.00  0.00    +0.000 C 
ATOM      8  C   UNL     1       6.548   4.556  14.354  0.00  0.00    +0.000 A 
ATOM      9  N   UNL     1       7.360   5.276  15.136  0.00  0.00    +0.000 NA
ATOM     10  O   UNL     1       6.643   5.372  16.331  0.00  0.00    +0.000 OA
ATOM     11  C   UNL     1       5.468   4.698  16.140  0.00  0.00    +0.000 A 
ATOM     12  N   UNL     1       5.370   4.167  14.939  0.00  0.00    +0.000 NA
ENDBRANCH   1  11
BRANCH   4  13
ATOM     13  C   UNL     1       1.729   4.667  20.582  0.00  0.00    +0.000 C 
BRANCH  13  14
ATOM     14  N   UNL     1       0.590   3.787  20.342  0.00  0.00    +0.000 NA
ATOM     15  H   UNL     1       0.913   2.822  20.357  0.00  0.00    +0.000 HD
ATOM     16  H   UNL     1       0.236   3.955  19.402  0.00  0.00    +0.000 HD
ENDBRANCH  13  14
ENDBRANCH   4  13
TORSDOF 3
ENDMDL
