MODEL 1
REMARK VINA RESULT:      -5.8      0.000      0.000
REMARK  Name = 
REMARK  8 active torsions:
REMARK  status: ('A' for Active; 'I' for Inactive)
REMARK    1  A    between atoms: C_1  and  C_2
REMARK    2  A    between atoms: C_2  and  N_3
REMARK    3  A    between atoms: C_5  and  O_6
REMARK    4  A    between atoms: O_6  and  C_7
REMARK    5  A    between atoms: C_7  and  C_8
REMARK    6  A    between atoms: C_8  and  O_9
REMARK    7  A    between atoms: O_9  and  C_10
REMARK    8  A    between atoms: C_10  and  C_11
REMARK                            x       y       z     vdW  Elec       q    Type
REMARK                         _______ _______ _______ _____ _____    ______ ____
ROOT
ATOM      1  C   UNL     1       3.974   4.587  17.366  0.00  0.00    +0.000 C 
ENDROOT
BRANCH   1   2
ATOM      2  O   UNL     1       5.379   4.340  17.429  0.00  0.00    +0.000 OA
BRANCH   2   5
ATOM      3  N   UNL     1       6.724   4.339  14.191  0.00  0.00    +0.000 N 
ATOM      4  C   UNL     1       5.846   3.787  15.079  0.00  0.00    +0.000 A 
ATOM      5  C   UNL     1       6.033   4.473  16.253  0.00  0.00    +0.000 A 
ATOM      6  C   UNL     1       7.073   5.378  15.990  0.00  0.00    +0.000 A 
ATOM      7  N   UNL     1       7.504   5.298  14.725  0.00  0.00    +0.000 NA
BRANCH   3   9
ATOM      8  C   UNL     1       5.523   3.394  12.273  0.00  0.00    +0.000 C 
ATOM      9  C   UNL     1       6.807   4.035  12.775  0.00  0.00    +0.000 C 
ENDBRANCH   3   9
ENDBRANCH   2   5
ENDBRANCH   1   2
BRANCH   1  10
ATOM     10  C   UNL     1       3.695   5.878  18.123  0.00  0.00    +0.000 C 
BRANCH  10  11
ATOM     11  O   UNL     1       3.549   5.611  19.519  0.00  0.00    +0.000 OA
BRANCH  11  12
ATOM     12  C   UNL     1       2.265   6.037  19.978  0.00  0.00    +0.000 C 
BRANCH  12  13
ATOM     13  C   UNL     1       1.461   4.855  20.513  0.00  0.00    +0.000 C 
ATOM     14  C   UNL     1       2.263   3.956  21.444  0.00  0.00    +0.000 C 
ATOM     15  C   UNL     1       1.643   2.603  21.208  0.00  0.00    +0.000 C 
ATOM     16  C   UNL     1       1.264   2.658  19.746  0.00  0.00    +0.000 C 
ATOM     17  O   UNL     1       1.020   4.032  19.419  0.00  0.00    +0.000 OA
ENDBRANCH  12  13
ENDBRANCH  11  12
ENDBRANCH  10  11
ENDBRANCH   1  10
TORSDOF 7
ENDMDL
MODEL 2
REMARK VINA RESULT:      -5.6      1.868      3.082
REMARK  Name = 
REMARK  8 active torsions:
REMARK  status: ('A' for Active; 'I' for Inactive)
REMARK    1  A    between atoms: C_1  and  C_2
REMARK    2  A    between atoms: C_2  and  N_3
REMARK    3  A    between atoms: C_5  and  O_6
REMARK    4  A    between atoms: O_6  and  C_7
REMARK    5  A    between atoms: C_7  and  C_8
REMARK    6  A    between atoms: C_8  and  O_9
REMARK    7  A    between atoms: O_9  and  C_10
REMARK    8  A    between atoms: C_10  and  C_11
REMARK                            x       y       z     vdW  Elec       q    Type
REMARK                         _______ _______ _______ _____ _____    ______ ____
ROOT
ATOM      1  C   UNL     1       2.459   5.840  19.326  0.00  0.00    +0.000 C 
ENDROOT
BRANCH   1   2
ATOM      2  O   UNL     1       3.809   6.001  19.763  0.00  0.00    +0.000 OA
BRANCH   2   5
ATOM      3  N   UNL     1       5.965   5.047  17.168  0.00  0.00    +0.000 N 
ATOM      4  C   UNL     1       4.797   5.648  17.539  0.00  0.00    +0.000 A 
ATOM      5  C   UNL     1       4.744   5.532  18.906  0.00  0.00    +0.000 A 
ATOM      6  C   UNL     1       5.891   4.806  19.260  0.00  0.00    +0.000 A 
ATOM      7  N   UNL     1       6.644   4.502  18.196  0.00  0.00    +0.000 NA
BRANCH   3   9
ATOM      8  C   UNL     1       5.953   3.893  15.005  0.00  0.00    +0.000 C 
ATOM      9  C   UNL     1       6.528   5.031  15.832  0.00  0.00    +0.000 C 
ENDBRANCH   3   9
ENDBRANCH   2   5
ENDBRANCH   1   2
BRANCH   1  10
ATOM     10  C   UNL     1       1.634   5.389  20.524  0.00  0.00    +0.000 C 
BRANCH  10  11
ATOM     11  O   UNL     1       2.057   4.094  20.955  0.00  0.00    +0.000 OA
BRANCH  11  12
ATOM     12  C   UNL     1       1.121   3.098  20.538  0.00  0.00    +0.000 C 
BRANCH  12  13
ATOM     13  C   UNL     1       1.717   2.222  19.439  0.00  0.00    +0.000 C 
ATOM     14  C   UNL     1       3.238   2.177  19.464  0.00  0.00    +0.000 C 
ATOM     15  C   UNL     1       3.586   1.987  18.010  0.00  0.00    +0.000 C 
ATOM     16  C   UNL     1       2.493   2.754  17.301  0.00  0.00    +0.000 C 
ATOM     17  O   UNL     1       1.337   2.735  18.149  0.00  0.00    +0.000 OA
ENDBRANCH  12  13
ENDBRANCH  11  12
ENDBRANCH  10  11
ENDBRANCH   1  10
TORSDOF 7
ENDMDL
MODEL 3
REMARK VINA RESULT:      -5.6      1.455      2.022
REMARK  Name = 
REMARK  8 active torsions:
REMARK  status: ('A' for Active; 'I' for Inactive)
REMARK    1  A    between atoms: C_1  and  C_2
REMARK    2  A    between atoms: C_2  and  N_3
REMARK    3  A    between atoms: C_5  and  O_6
REMARK    4  A    between atoms: O_6  and  C_7
REMARK    5  A    between atoms: C_7  and  C_8
REMARK    6  A    between atoms: C_8  and  O_9
REMARK    7  A    between atoms: O_9  and  C_10
REMARK    8  A    between atoms: C_10  and  C_11
REMARK                            x       y       z     vdW  Elec       q    Type
REMARK                         _______ _______ _______ _____ _____    ______ ____
ROOT
ATOM      1  C   UNL     1       3.263   5.208  18.241  0.00  0.00    +0.000 C 
ENDROOT
BRANCH   1   2
ATOM      2  O   UNL     1       4.289   4.257  17.955  0.00  0.00    +0.000 OA
BRANCH   2   5
ATOM      3  N   UNL     1       6.384   4.841  15.205  0.00  0.00    +0.000 N 
ATOM      4  C   UNL     1       5.477   4.023  15.815  0.00  0.00    +0.000 A 
ATOM      5  C   UNL     1       5.170   4.639  17.003  0.00  0.00    +0.000 A 
ATOM      6  C   UNL     1       5.974   5.788  17.042  0.00  0.00    +0.000 A 
ATOM      7  N   UNL     1       6.725   5.916  15.941  0.00  0.00    +0.000 NA
BRANCH   3   9
ATOM      8  C   UNL     1       6.082   3.683  13.065  0.00  0.00    +0.000 C 
ATOM      9  C   UNL     1       6.908   4.680  13.862  0.00  0.00    +0.000 C 
ENDBRANCH   3   9
ENDBRANCH   2   5
ENDBRANCH   1   2
BRANCH   1  10
ATOM     10  C   UNL     1       1.963   4.679  17.651  0.00  0.00    +0.000 C 
BRANCH  10  11
ATOM     11  O   UNL     1       1.978   3.251  17.623  0.00  0.00    +0.000 OA
BRANCH  11  12
ATOM     12  C   UNL     1       0.896   2.725  18.395  0.00  0.00    +0.000 C 
BRANCH  12  13
ATOM     13  C   UNL     1       1.390   2.235  19.754  0.00  0.00    +0.000 C 
ATOM     14  C   UNL     1       1.128   3.223  20.881  0.00  0.00    +0.000 C 
ATOM     15  C   UNL     1       2.277   2.963  21.821  0.00  0.00    +0.000 C 
ATOM     16  C   UNL     1       3.404   2.599  20.880  0.00  0.00    +0.000 C 
ATOM     17  O   UNL     1       2.813   2.024  19.707  0.00  0.00    +0.000 OA
ENDBRANCH  12  13
ENDBRANCH  11  12
ENDBRANCH  10  11
ENDBRANCH   1  10
TORSDOF 7
ENDMDL
MODEL 4
REMARK VINA RESULT:      -5.6      2.030      2.587
REMARK  Name = 
REMARK  8 active torsions:
REMARK  status: ('A' for Active; 'I' for Inactive)
REMARK    1  A    between atoms: C_1  and  C_2
REMARK    2  A    between atoms: C_2  and  N_3
REMARK    3  A    between atoms: C_5  and  O_6
REMARK    4  A    between atoms: O_6  and  C_7
REMARK    5  A    between atoms: C_7  and  C_8
REMARK    6  A    between atoms: C_8  and  O_9
REMARK    7  A    between atoms: O_9  and  C_10
REMARK    8  A    between atoms: C_10  and  C_11
REMARK                            x       y       z     vdW  Elec       q    Type
REMARK                         _______ _______ _______ _____ _____    ______ ____
ROOT
ATOM      1  C   UNL     1       6.991   4.643  16.584  0.00  0.00    +0.000 C 
ENDROOT
BRANCH   1   2
ATOM      2  O   UNL     1       7.331   5.412  15.431  0.00  0.00    +0.000 OA
BRANCH   2   5
ATOM      3  N   UNL     1       6.217   3.643  12.616  0.00  0.00    +0.000 N 
ATOM      4  C   UNL     1       6.103   3.874  13.957  0.00  0.00    +0.000 A 
ATOM      5  C   UNL     1       7.060   4.814  14.248  0.00  0.00    +0.000 A 
ATOM      6  C   UNL     1       7.729   5.049  13.038  0.00  0.00    +0.000 A 
ATOM      7  N   UNL     1       7.218   4.329  12.031  0.00  0.00    +0.000 NA
BRANCH   3   9
ATOM      8  C   UNL     1       6.053   1.598  11.273  0.00  0.00    +0.000 C 
ATOM      9  C   UNL     1       5.331   2.821  11.815  0.00  0.00    +0.000 C 
ENDBRANCH   3   9
ENDBRANCH   2   5
ENDBRANCH   1   2
BRANCH   1  10
ATOM     10  C   UNL     1       6.087   5.497  17.462  0.00  0.00    +0.000 C 
BRANCH  10  11
ATOM     11  O   UNL     1       5.857   4.847  18.714  0.00  0.00    +0.000 OA
BRANCH  11  12
ATOM     12  C   UNL     1       4.607   5.262  19.270  0.00  0.00    +0.000 C 
BRANCH  12  13
ATOM     13  C   UNL     1       3.609   4.107  19.278  0.00  0.00    +0.000 C 
ATOM     14  C   UNL     1       4.270   2.741  19.160  0.00  0.00    +0.000 C 
ATOM     15  C   UNL     1       3.225   1.931  18.437  0.00  0.00    +0.000 C 
ATOM     16  C   UNL     1       2.578   2.953  17.529  0.00  0.00    +0.000 C 
ATOM     17  O   UNL     1       2.710   4.232  18.162  0.00  0.00    +0.000 OA
ENDBRANCH  12  13
ENDBRANCH  11  12
ENDBRANCH  10  11
ENDBRANCH   1  10
TORSDOF 7
ENDMDL
MODEL 5
REMARK VINA RESULT:      -5.5      1.539      2.109
REMARK  Name = 
REMARK  8 active torsions:
REMARK  status: ('A' for Active; 'I' for Inactive)
REMARK    1  A    between atoms: C_1  and  C_2
REMARK    2  A    between atoms: C_2  and  N_3
REMARK    3  A    between atoms: C_5  and  O_6
REMARK    4  A    between atoms: O_6  and  C_7
REMARK    5  A    between atoms: C_7  and  C_8
REMARK    6  A    between atoms: C_8  and  O_9
REMARK    7  A    between atoms: O_9  and  C_10
REMARK    8  A    between atoms: C_10  and  C_11
REMARK                            x       y       z     vdW  Elec       q    Type
REMARK                         _______ _______ _______ _____ _____    ______ ____
ROOT
ATOM      1  C   UNL     1       6.441   6.111  17.715  0.00  0.00    +0.000 C 
ENDROOT
BRANCH   1   2
ATOM      2  O   UNL     1       7.343   5.501  16.791  0.00  0.00    +0.000 OA
BRANCH   2   5
ATOM      3  N   UNL     1       6.334   4.180  13.704  0.00  0.00    +0.000 N 
ATOM      4  C   UNL     1       7.345   4.681  14.473  0.00  0.00    +0.000 A 
ATOM      5  C   UNL     1       6.764   5.007  15.674  0.00  0.00    +0.000 A 
ATOM      6  C   UNL     1       5.400   4.715  15.516  0.00  0.00    +0.000 A 
ATOM      7  N   UNL     1       5.129   4.210  14.306  0.00  0.00    +0.000 NA
BRANCH   3   9
ATOM      8  C   UNL     1       5.131   3.171  11.820  0.00  0.00    +0.000 C 
ATOM      9  C   UNL     1       6.480   3.578  12.393  0.00  0.00    +0.000 C 
ENDBRANCH   3   9
ENDBRANCH   2   5
ENDBRANCH   1   2
BRANCH   1  10
ATOM     10  C   UNL     1       6.570   5.378  19.043  0.00  0.00    +0.000 C 
BRANCH  10  11
ATOM     11  O   UNL     1       5.730   4.223  19.054  0.00  0.00    +0.000 OA
BRANCH  11  12
ATOM     12  C   UNL     1       4.364   4.596  18.856  0.00  0.00    +0.000 C 
BRANCH  12  13
ATOM     13  C   UNL     1       3.462   3.907  19.876  0.00  0.00    +0.000 C 
ATOM     14  C   UNL     1       2.497   2.911  19.248  0.00  0.00    +0.000 C 
ATOM     15  C   UNL     1       1.310   2.975  20.174  0.00  0.00    +0.000 C 
ATOM     16  C   UNL     1       1.307   4.421  20.617  0.00  0.00    +0.000 C 
ATOM     17  O   UNL     1       2.661   4.888  20.558  0.00  0.00    +0.000 OA
ENDBRANCH  12  13
ENDBRANCH  11  12
ENDBRANCH  10  11
ENDBRANCH   1  10
TORSDOF 7
ENDMDL
MODEL 6
REMARK VINA RESULT:      -5.5      3.073      6.914
REMARK  Name = 
REMARK  8 active torsions:
REMARK  status: ('A' for Active; 'I' for Inactive)
REMARK    1  A    between atoms: C_1  and  C_2
REMARK    2  A    between atoms: C_2  and  N_3
REMARK    3  A    between atoms: C_5  and  O_6
REMARK    4  A    between atoms: O_6  and  C_7
REMARK    5  A    between atoms: C_7  and  C_8
REMARK    6  A    between atoms: C_8  and  O_9
REMARK    7  A    between atoms: O_9  and  C_10
REMARK    8  A    between atoms: C_10  and  C_11
REMARK                            x       y       z     vdW  Elec       q    Type
REMARK                         _______ _______ _______ _____ _____    ______ ____
ROOT
ATOM      1  C   UNL     1       4.322   6.923  17.481  0.00  0.00    +0.000 C 
ENDROOT
BRANCH   1   2
ATOM      2  O   UNL     1       3.708   5.642  17.340  0.00  0.00    +0.000 OA
BRANCH   2   5
ATOM      3  N   UNL     1       1.638   4.213  19.782  0.00  0.00    +0.000 N 
ATOM      4  C   UNL     1       2.245   4.091  18.565  0.00  0.00    +0.000 A 
ATOM      5  C   UNL     1       2.916   5.273  18.372  0.00  0.00    +0.000 A 
ATOM      6  C   UNL     1       2.615   6.058  19.496  0.00  0.00    +0.000 A 
ATOM      7  N   UNL     1       1.827   5.412  20.365  0.00  0.00    +0.000 NA
BRANCH   3   9
ATOM      8  C   UNL     1       1.696   2.677  21.694  0.00  0.00    +0.000 C 
ATOM      9  C   UNL     1       0.918   3.167  20.482  0.00  0.00    +0.000 C 
ENDBRANCH   3   9
ENDBRANCH   2   5
ENDBRANCH   1   2
BRANCH   1  10
ATOM     10  C   UNL     1       5.765   6.802  17.012  0.00  0.00    +0.000 C 
BRANCH  10  11
ATOM     11  O   UNL     1       6.406   5.704  17.663  0.00  0.00    +0.000 OA
BRANCH  11  12
ATOM     12  C   UNL     1       7.158   4.934  16.723  0.00  0.00    +0.000 C 
BRANCH  12  13
ATOM     13  C   UNL     1       6.587   5.090  15.316  0.00  0.00    +0.000 C 
ATOM     14  C   UNL     1       6.035   3.793  14.744  0.00  0.00    +0.000 C 
ATOM     15  C   UNL     1       6.271   3.959  13.264  0.00  0.00    +0.000 C 
ATOM     16  C   UNL     1       7.556   4.754  13.218  0.00  0.00    +0.000 C 
ATOM     17  O   UNL     1       7.620   5.534  14.418  0.00  0.00    +0.000 OA
ENDBRANCH  12  13
ENDBRANCH  11  12
ENDBRANCH  10  11
ENDBRANCH   1  10
TORSDOF 7
ENDMDL
MODEL 7
REMARK VINA RESULT:      -5.5      2.927      6.611
REMARK  Name = 
REMARK  8 active torsions:
REMARK  status: ('A' for Active; 'I' for Inactive)
REMARK    1  A    between atoms: C_1  and  C_2
REMARK    2  A    between atoms: C_2  and  N_3
REMARK    3  A    between atoms: C_5  and  O_6
REMARK    4  A    between atoms: O_6  and  C_7
REMARK    5  A    between atoms: C_7  and  C_8
REMARK    6  A    between atoms: C_8  and  O_9
REMARK    7  A    between atoms: O_9  and  C_10
REMARK    8  A    between atoms: C_10  and  C_11
REMARK                            x       y       z     vdW  Elec       q    Type
REMARK                         _______ _______ _______ _____ _____    ______ ____
ROOT
ATOM      1  C   UNL     1       7.252   5.224  18.418  0.00  0.00    +0.000 C 
ENDROOT
BRANCH   1   2
ATOM      2  O   UNL     1       6.399   4.341  19.147  0.00  0.00    +0.000 OA
BRANCH   2   5
ATOM      3  N   UNL     1       2.917   4.301  18.736  0.00  0.00    +0.000 N 
ATOM      4  C   UNL     1       4.060   3.598  18.987  0.00  0.00    +0.000 A 
ATOM      5  C   UNL     1       5.076   4.520  18.929  0.00  0.00    +0.000 A 
ATOM      6  C   UNL     1       4.456   5.732  18.590  0.00  0.00    +0.000 A 
ATOM      7  N   UNL     1       3.129   5.603  18.467  0.00  0.00    +0.000 NA
BRANCH   3   9
ATOM      8  C   UNL     1       1.538   2.276  18.623  0.00  0.00    +0.000 C 
ATOM      9  C   UNL     1       1.564   3.784  18.819  0.00  0.00    +0.000 C 
ENDBRANCH   3   9
ENDBRANCH   2   5
ENDBRANCH   1   2
BRANCH   1  10
ATOM     10  C   UNL     1       7.408   4.662  17.011  0.00  0.00    +0.000 C 
BRANCH  10  11
ATOM     11  O   UNL     1       7.238   5.699  16.044  0.00  0.00    +0.000 OA
BRANCH  11  12
ATOM     12  C   UNL     1       6.190   5.365  15.130  0.00  0.00    +0.000 C 
BRANCH  12  13
ATOM     13  C   UNL     1       6.648   4.283  14.155  0.00  0.00    +0.000 C 
ATOM     14  C   UNL     1       7.393   4.838  12.949  0.00  0.00    +0.000 C 
ATOM     15  C   UNL     1       7.052   3.846  11.867  0.00  0.00    +0.000 C 
ATOM     16  C   UNL     1       5.644   3.428  12.228  0.00  0.00    +0.000 C 
ATOM     17  O   UNL     1       5.505   3.572  13.647  0.00  0.00    +0.000 OA
ENDBRANCH  12  13
ENDBRANCH  11  12
ENDBRANCH  10  11
ENDBRANCH   1  10
TORSDOF 7
ENDMDL
MODEL 8
REMARK VINA RESULT:      -5.5      1.356      1.451
REMARK  Name = 
REMARK  8 active torsions:
REMARK  status: ('A' for Active; 'I' for Inactive)
REMARK    1  A    between atoms: C_1  and  C_2
REMARK    2  A    between atoms: C_2  and  N_3
REMARK    3  A    between atoms: C_5  and  O_6
REMARK    4  A    between atoms: O_6  and  C_7
REMARK    5  A    between atoms: C_7  and  C_8
REMARK    6  A    between atoms: C_8  and  O_9
REMARK    7  A    between atoms: O_9  and  C_10
REMARK    8  A    between atoms: C_10  and  C_11
REMARK                            x       y       z     vdW  Elec       q    Type
REMARK                         _______ _______ _______ _____ _____    ______ ____
ROOT
ATOM      1  C   UNL     1       6.091   5.366  19.238  0.00  0.00    +0.000 C 
ENDROOT
BRANCH   1   2
ATOM      2  O   UNL     1       6.846   4.559  18.334  0.00  0.00    +0.000 OA
BRANCH   2   5
ATOM      3  N   UNL     1       6.745   4.950  14.851  0.00  0.00    +0.000 N 
ATOM      4  C   UNL     1       7.235   4.262  15.924  0.00  0.00    +0.000 A 
ATOM      5  C   UNL     1       6.704   4.882  17.029  0.00  0.00    +0.000 A 
ATOM      6  C   UNL     1       5.954   5.955  16.526  0.00  0.00    +0.000 A 
ATOM      7  N   UNL     1       5.978   6.005  15.188  0.00  0.00    +0.000 NA
BRANCH   3   9
ATOM      8  C   UNL     1       5.852   3.607  13.005  0.00  0.00    +0.000 C 
ATOM      9  C   UNL     1       6.919   4.590  13.458  0.00  0.00    +0.000 C 
ENDBRANCH   3   9
ENDBRANCH   2   5
ENDBRANCH   1   2
BRANCH   1  10
ATOM     10  C   UNL     1       4.778   4.648  19.517  0.00  0.00    +0.000 C 
BRANCH  10  11
ATOM     11  O   UNL     1       3.728   5.597  19.713  0.00  0.00    +0.000 OA
BRANCH  11  12
ATOM     12  C   UNL     1       2.719   5.440  18.713  0.00  0.00    +0.000 C 
BRANCH  12  13
ATOM     13  C   UNL     1       1.628   4.484  19.190  0.00  0.00    +0.000 C 
ATOM     14  C   UNL     1       1.576   4.341  20.705  0.00  0.00    +0.000 C 
ATOM     15  C   UNL     1       1.084   2.928  20.884  0.00  0.00    +0.000 C 
ATOM     16  C   UNL     1       1.696   2.207  19.704  0.00  0.00    +0.000 C 
ATOM     17  O   UNL     1       1.865   3.170  18.656  0.00  0.00    +0.000 OA
ENDBRANCH  12  13
ENDBRANCH  11  12
ENDBRANCH  10  11
ENDBRANCH   1  10
TORSDOF 7
ENDMDL
MODEL 9
REMARK VINA RESULT:      -5.5      1.590      2.021
REMARK  Name = 
REMARK  8 active torsions:
REMARK  status: ('A' for Active; 'I' for Inactive)
REMARK    1  A    between atoms: C_1  and  C_2
REMARK    2  A    between atoms: C_2  and  N_3
REMARK    3  A    between atoms: C_5  and  O_6
REMARK    4  A    between atoms: O_6  and  C_7
REMARK    5  A    between atoms: C_7  and  C_8
REMARK    6  A    between atoms: C_8  and  O_9
REMARK    7  A    between atoms: O_9  and  C_10
REMARK    8  A    between atoms: C_10  and  C_11
REMARK                            x       y       z     vdW  Elec       q    Type
REMARK                         _______ _______ _______ _____ _____    ______ ____
ROOT
ATOM      1  C   UNL     1       3.096   6.475  18.357  0.00  0.00    +0.000 C 
ENDROOT
BRANCH   1   2
ATOM      2  O   UNL     1       3.514   5.289  17.681  0.00  0.00    +0.000 OA
BRANCH   2   5
ATOM      3  N   UNL     1       6.232   5.214  15.467  0.00  0.00    +0.000 N 
ATOM      4  C   UNL     1       5.120   4.590  15.955  0.00  0.00    +0.000 A 
ATOM      5  C   UNL     1       4.627   5.427  16.925  0.00  0.00    +0.000 A 
ATOM      6  C   UNL     1       5.531   6.498  16.984  0.00  0.00    +0.000 A 
ATOM      7  N   UNL     1       6.523   6.371  16.092  0.00  0.00    +0.000 NA
BRANCH   3   9
ATOM      8  C   UNL     1       6.228   3.852  13.428  0.00  0.00    +0.000 C 
ATOM      9  C   UNL     1       7.024   4.779  14.332  0.00  0.00    +0.000 C 
ENDBRANCH   3   9
ENDBRANCH   2   5
ENDBRANCH   1   2
BRANCH   1  10
ATOM     10  C   UNL     1       2.914   6.132  19.828  0.00  0.00    +0.000 C 
BRANCH  10  11
ATOM     11  O   UNL     1       1.776   5.286  20.001  0.00  0.00    +0.000 OA
BRANCH  11  12
ATOM     12  C   UNL     1       2.063   4.244  20.937  0.00  0.00    +0.000 C 
BRANCH  12  13
ATOM     13  C   UNL     1       2.141   2.892  20.234  0.00  0.00    +0.000 C 
ATOM     14  C   UNL     1       3.561   2.486  19.867  0.00  0.00    +0.000 C 
ATOM     15  C   UNL     1       3.357   1.664  18.621  0.00  0.00    +0.000 C 
ATOM     16  C   UNL     1       2.172   2.337  17.966  0.00  0.00    +0.000 C 
ATOM     17  O   UNL     1       1.391   2.937  19.007  0.00  0.00    +0.000 OA
ENDBRANCH  12  13
ENDBRANCH  11  12
ENDBRANCH  10  11
ENDBRANCH   1  10
TORSDOF 7
ENDMDL
