MODEL 1
REMARK VINA RESULT:      -9.1      0.000      0.000
REMARK  Name = 
REMARK  6 active torsions:
REMARK  status: ('A' for Active; 'I' for Inactive)
REMARK    1  A    between atoms: C_2  and  C_4
REMARK    2  A    between atoms: C_9  and  N_10
REMARK    3  A    between atoms: N_10  and  C_11
REMARK    4  A    between atoms: N_10  and  C_18
REMARK    5  A    between atoms: C_11  and  C_12
REMARK    6  A    between atoms: C_18  and  C_19
REMARK                            x       y       z     vdW  Elec       q    Type
REMARK                         _______ _______ _______ _____ _____    ______ ____
ROOT
ATOM      1  C   UNL     1      -0.163  10.732  21.837  0.00  0.00    +0.000 A 
ATOM      2  C   UNL     1      -0.037  10.705  20.437  0.00  0.00    +0.000 A 
ATOM      3  C   UNL     1       0.685   9.690  19.805  0.00  0.00    +0.000 A 
ATOM      4  C   UNL     1       0.839   9.672  18.420  0.00  0.00    +0.000 A 
ATOM      5  C   UNL     1       1.600   8.680  17.809  0.00  0.00    +0.000 A 
ATOM      6  C   UNL     1       2.234   7.658  18.563  0.00  0.00    +0.000 A 
ATOM      7  C   UNL     1       2.048   7.682  19.972  0.00  0.00    +0.000 A 
ATOM      8  C   UNL     1       1.282   8.690  20.585  0.00  0.00    +0.000 A 
ATOM      9  O   UNL     1       1.129   8.708  21.906  0.00  0.00    +0.000 OA
ATOM     10  C   UNL     1       0.446   9.658  22.549  0.00  0.00    +0.000 A 
ATOM     11  O   UNL     1       0.367   9.595  23.764  0.00  0.00    +0.000 OA
ENDROOT
BRANCH   1  13
ATOM     12  N   UNL     1      -0.482  13.079  22.354  0.00  0.00    +0.000 NA
ATOM     13  C   UNL     1      -0.881  11.867  22.534  0.00  0.00    +0.000 C 
ATOM     14  N   UNL     1      -2.034  11.651  23.349  0.00  0.00    +0.000 N 
ATOM     15  H   UNL     1      -0.967  13.879  22.789  0.00  0.00    +0.000 HD
ATOM     16  H   UNL     1      -2.529  12.451  23.770  0.00  0.00    +0.000 HD
ATOM     17  H   UNL     1      -2.435  10.723  23.522  0.00  0.00    +0.000 HD
ENDBRANCH   1  13
BRANCH   6  18
ATOM     18  N   UNL     1       3.050   6.650  17.902  0.00  0.00    +0.000 N 
BRANCH  18  19
ATOM     19  C   UNL     1       4.223   7.040  17.107  0.00  0.00    +0.000 C 
BRANCH  19  20
ATOM     20  C   UNL     1       5.452   6.163  17.318  0.00  0.00    +0.000 A 
ATOM     21  C   UNL     1       5.961   5.283  16.336  0.00  0.00    +0.000 A 
ATOM     22  C   UNL     1       7.073   4.482  16.608  0.00  0.00    +0.000 A 
ATOM     23  C   UNL     1       7.698   4.547  17.854  0.00  0.00    +0.000 A 
ATOM     24  C   UNL     1       7.218   5.420  18.830  0.00  0.00    +0.000 A 
ATOM     25  C   UNL     1       6.102   6.224  18.565  0.00  0.00    +0.000 A 
ENDBRANCH  19  20
ENDBRANCH  18  19
BRANCH  18  26
ATOM     26  C   UNL     1       2.576   5.265  17.776  0.00  0.00    +0.000 C 
BRANCH  26  27
ATOM     27  C   UNL     1       2.642   4.364  19.002  0.00  0.00    +0.000 A 
ATOM     28  C   UNL     1       3.744   3.570  19.387  0.00  0.00    +0.000 A 
ATOM     29  C   UNL     1       3.668   2.769  20.540  0.00  0.00    +0.000 A 
ATOM     30  C   UNL     1       2.506   2.754  21.315  0.00  0.00    +0.000 A 
ATOM     31  C   UNL     1       1.414   3.536  20.946  0.00  0.00    +0.000 A 
ATOM     32  C   UNL     1       1.483   4.331  19.801  0.00  0.00    +0.000 A 
ENDBRANCH  26  27
ENDBRANCH  18  26
ENDBRANCH   6  18
TORSDOF 6
ENDMDL
MODEL 2
REMARK VINA RESULT:      -9.0      1.024      1.308
REMARK  Name = 
REMARK  6 active torsions:
REMARK  status: ('A' for Active; 'I' for Inactive)
REMARK    1  A    between atoms: C_2  and  C_4
REMARK    2  A    between atoms: C_9  and  N_10
REMARK    3  A    between atoms: N_10  and  C_11
REMARK    4  A    between atoms: N_10  and  C_18
REMARK    5  A    between atoms: C_11  and  C_12
REMARK    6  A    between atoms: C_18  and  C_19
REMARK                            x       y       z     vdW  Elec       q    Type
REMARK                         _______ _______ _______ _____ _____    ______ ____
ROOT
ATOM      1  C   UNL     1       0.432  10.465  21.159  0.00  0.00    +0.000 A 
ATOM      2  C   UNL     1       0.776  10.393  19.798  0.00  0.00    +0.000 A 
ATOM      3  C   UNL     1       1.361   9.240  19.269  0.00  0.00    +0.000 A 
ATOM      4  C   UNL     1       1.731   9.171  17.927  0.00  0.00    +0.000 A 
ATOM      5  C   UNL     1       2.354   8.032  17.426  0.00  0.00    +0.000 A 
ATOM      6  C   UNL     1       2.627   6.909  18.251  0.00  0.00    +0.000 A 
ATOM      7  C   UNL     1       2.222   6.991  19.611  0.00  0.00    +0.000 A 
ATOM      8  C   UNL     1       1.598   8.147  20.114  0.00  0.00    +0.000 A 
ATOM      9  O   UNL     1       1.238   8.214  21.392  0.00  0.00    +0.000 OA
ATOM     10  C   UNL     1       0.677   9.297  21.937  0.00  0.00    +0.000 A 
ATOM     11  O   UNL     1       0.389   9.268  23.122  0.00  0.00    +0.000 OA
ENDROOT
BRANCH   1  13
ATOM     12  N   UNL     1       0.071  12.863  21.164  0.00  0.00    +0.000 NA
ATOM     13  C   UNL     1      -0.133  11.736  21.755  0.00  0.00    +0.000 C 
ATOM     14  N   UNL     1      -0.943  11.729  22.932  0.00  0.00    +0.000 N 
ATOM     15  H   UNL     1      -0.325  13.743  21.526  0.00  0.00    +0.000 HD
ATOM     16  H   UNL     1      -1.354  12.606  23.283  0.00  0.00    +0.000 HD
ATOM     17  H   UNL     1      -1.179  10.875  23.447  0.00  0.00    +0.000 HD
ENDBRANCH   1  13
BRANCH   6  18
ATOM     18  N   UNL     1       3.307   5.743  17.710  0.00  0.00    +0.000 N 
BRANCH  18  19
ATOM     19  C   UNL     1       4.497   5.897  16.861  0.00  0.00    +0.000 C 
BRANCH  19  20
ATOM     20  C   UNL     1       5.794   6.141  17.625  0.00  0.00    +0.000 A 
ATOM     21  C   UNL     1       6.220   5.348  18.713  0.00  0.00    +0.000 A 
ATOM     22  C   UNL     1       7.405   5.648  19.391  0.00  0.00    +0.000 A 
ATOM     23  C   UNL     1       8.184   6.735  18.994  0.00  0.00    +0.000 A 
ATOM     24  C   UNL     1       7.786   7.521  17.912  0.00  0.00    +0.000 A 
ATOM     25  C   UNL     1       6.599   7.226  17.231  0.00  0.00    +0.000 A 
ENDBRANCH  19  20
ENDBRANCH  18  19
BRANCH  18  26
ATOM     26  C   UNL     1       2.678   4.416  17.759  0.00  0.00    +0.000 C 
BRANCH  26  27
ATOM     27  C   UNL     1       2.506   3.746  19.116  0.00  0.00    +0.000 A 
ATOM     28  C   UNL     1       3.544   3.226  19.919  0.00  0.00    +0.000 A 
ATOM     29  C   UNL     1       3.245   2.618  21.151  0.00  0.00    +0.000 A 
ATOM     30  C   UNL     1       1.923   2.525  21.592  0.00  0.00    +0.000 A 
ATOM     31  C   UNL     1       0.892   3.039  20.808  0.00  0.00    +0.000 A 
ATOM     32  C   UNL     1       1.182   3.642  19.584  0.00  0.00    +0.000 A 
ENDBRANCH  26  27
ENDBRANCH  18  26
ENDBRANCH   6  18
TORSDOF 6
ENDMDL
MODEL 3
REMARK VINA RESULT:      -9.0      1.044      3.903
REMARK  Name = 
REMARK  6 active torsions:
REMARK  status: ('A' for Active; 'I' for Inactive)
REMARK    1  A    between atoms: C_2  and  C_4
REMARK    2  A    between atoms: C_9  and  N_10
REMARK    3  A    between atoms: N_10  and  C_11
REMARK    4  A    between atoms: N_10  and  C_18
REMARK    5  A    between atoms: C_11  and  C_12
REMARK    6  A    between atoms: C_18  and  C_19
REMARK                            x       y       z     vdW  Elec       q    Type
REMARK                         _______ _______ _______ _____ _____    ______ ____
ROOT
ATOM      1  C   UNL     1      -0.798  11.142  21.426  0.00  0.00    +0.000 A 
ATOM      2  C   UNL     1      -0.453  10.990  20.071  0.00  0.00    +0.000 A 
ATOM      3  C   UNL     1       0.402   9.964  19.663  0.00  0.00    +0.000 A 
ATOM      4  C   UNL     1       0.771   9.825  18.326  0.00  0.00    +0.000 A 
ATOM      5  C   UNL     1       1.660   8.825  17.942  0.00  0.00    +0.000 A 
ATOM      6  C   UNL     1       2.212   7.917  18.884  0.00  0.00    +0.000 A 
ATOM      7  C   UNL     1       1.806   8.063  20.238  0.00  0.00    +0.000 A 
ATOM      8  C   UNL     1       0.912   9.078  20.622  0.00  0.00    +0.000 A 
ATOM      9  O   UNL     1       0.552   9.211  21.896  0.00  0.00    +0.000 OA
ATOM     10  C   UNL     1      -0.262  10.178  22.328  0.00  0.00    +0.000 A 
ATOM     11  O   UNL     1      -0.528  10.225  23.517  0.00  0.00    +0.000 OA
ENDROOT
BRANCH   1  13
ATOM     12  N   UNL     1      -1.419  12.862  23.017  0.00  0.00    +0.000 NA
ATOM     13  C   UNL     1      -1.663  12.295  21.887  0.00  0.00    +0.000 C 
ATOM     14  N   UNL     1      -2.717  12.823  21.080  0.00  0.00    +0.000 N 
ATOM     15  H   UNL     1      -1.970  13.669  23.347  0.00  0.00    +0.000 HD
ATOM     16  H   UNL     1      -3.256  13.640  21.401  0.00  0.00    +0.000 HD
ATOM     17  H   UNL     1      -2.959  12.451  20.155  0.00  0.00    +0.000 HD
ENDBRANCH   1  13
BRANCH   6  18
ATOM     18  N   UNL     1       3.163   6.901  18.461  0.00  0.00    +0.000 N 
BRANCH  18  19
ATOM     19  C   UNL     1       3.544   5.808  19.366  0.00  0.00    +0.000 C 
BRANCH  19  20
ATOM     20  C   UNL     1       2.525   4.678  19.463  0.00  0.00    +0.000 A 
ATOM     21  C   UNL     1       1.895   4.297  20.668  0.00  0.00    +0.000 A 
ATOM     22  C   UNL     1       0.993   3.229  20.692  0.00  0.00    +0.000 A 
ATOM     23  C   UNL     1       0.702   2.530  19.520  0.00  0.00    +0.000 A 
ATOM     24  C   UNL     1       1.305   2.902  18.318  0.00  0.00    +0.000 A 
ATOM     25  C   UNL     1       2.210   3.970  18.289  0.00  0.00    +0.000 A 
ENDBRANCH  19  20
ENDBRANCH  18  19
BRANCH  18  26
ATOM     26  C   UNL     1       3.969   7.087  17.247  0.00  0.00    +0.000 C 
BRANCH  26  27
ATOM     27  C   UNL     1       5.142   6.146  17.005  0.00  0.00    +0.000 A 
ATOM     28  C   UNL     1       5.155   5.048  16.119  0.00  0.00    +0.000 A 
ATOM     29  C   UNL     1       6.305   4.249  16.002  0.00  0.00    +0.000 A 
ATOM     30  C   UNL     1       7.446   4.535  16.756  0.00  0.00    +0.000 A 
ATOM     31  C   UNL     1       7.445   5.619  17.631  0.00  0.00    +0.000 A 
ATOM     32  C   UNL     1       6.306   6.415  17.753  0.00  0.00    +0.000 A 
ENDBRANCH  26  27
ENDBRANCH  18  26
ENDBRANCH   6  18
TORSDOF 6
ENDMDL
MODEL 4
REMARK VINA RESULT:      -8.9      0.543      1.497
REMARK  Name = 
REMARK  6 active torsions:
REMARK  status: ('A' for Active; 'I' for Inactive)
REMARK    1  A    between atoms: C_2  and  C_4
REMARK    2  A    between atoms: C_9  and  N_10
REMARK    3  A    between atoms: N_10  and  C_11
REMARK    4  A    between atoms: N_10  and  C_18
REMARK    5  A    between atoms: C_11  and  C_12
REMARK    6  A    between atoms: C_18  and  C_19
REMARK                            x       y       z     vdW  Elec       q    Type
REMARK                         _______ _______ _______ _____ _____    ______ ____
ROOT
ATOM      1  C   UNL     1       0.287  10.820  21.491  0.00  0.00    +0.000 A 
ATOM      2  C   UNL     1       0.486  10.735  20.102  0.00  0.00    +0.000 A 
ATOM      3  C   UNL     1       1.067   9.600  19.532  0.00  0.00    +0.000 A 
ATOM      4  C   UNL     1       1.294   9.521  18.158  0.00  0.00    +0.000 A 
ATOM      5  C   UNL     1       1.915   8.402  17.612  0.00  0.00    +0.000 A 
ATOM      6  C   UNL     1       2.331   7.311  18.420  0.00  0.00    +0.000 A 
ATOM      7  C   UNL     1       2.071   7.403  19.814  0.00  0.00    +0.000 A 
ATOM      8  C   UNL     1       1.447   8.538  20.363  0.00  0.00    +0.000 A 
ATOM      9  O   UNL     1       1.224   8.615  21.672  0.00  0.00    +0.000 OA
ATOM     10  C   UNL     1       0.671   9.681  22.257  0.00  0.00    +0.000 A 
ATOM     11  O   UNL     1       0.514   9.664  23.466  0.00  0.00    +0.000 OA
ENDROOT
BRANCH   1  13
ATOM     12  N   UNL     1      -1.063  11.979  23.138  0.00  0.00    +0.000 NA
ATOM     13  C   UNL     1      -0.274  12.075  22.124  0.00  0.00    +0.000 C 
ATOM     14  N   UNL     1       0.089  13.381  21.673  0.00  0.00    +0.000 N 
ATOM     15  H   UNL     1      -1.438  12.814  23.612  0.00  0.00    +0.000 HD
ATOM     16  H   UNL     1      -0.271  14.215  22.157  0.00  0.00    +0.000 HD
ATOM     17  H   UNL     1       0.734  13.548  20.893  0.00  0.00    +0.000 HD
ENDBRANCH   1  13
BRANCH   6  18
ATOM     18  N   UNL     1       3.007   6.168  17.826  0.00  0.00    +0.000 N 
BRANCH  18  19
ATOM     19  C   UNL     1       4.189   6.356  16.975  0.00  0.00    +0.000 C 
BRANCH  19  20
ATOM     20  C   UNL     1       5.483   5.792  17.552  0.00  0.00    +0.000 A 
ATOM     21  C   UNL     1       5.874   5.959  18.900  0.00  0.00    +0.000 A 
ATOM     22  C   UNL     1       7.091   5.444  19.355  0.00  0.00    +0.000 A 
ATOM     23  C   UNL     1       7.931   4.752  18.483  0.00  0.00    +0.000 A 
ATOM     24  C   UNL     1       7.554   4.565  17.153  0.00  0.00    +0.000 A 
ATOM     25  C   UNL     1       6.338   5.081  16.690  0.00  0.00    +0.000 A 
ENDBRANCH  19  20
ENDBRANCH  18  19
BRANCH  18  26
ATOM     26  C   UNL     1       2.377   4.840  17.828  0.00  0.00    +0.000 C 
BRANCH  26  27
ATOM     27  C   UNL     1       2.331   4.062  19.136  0.00  0.00    +0.000 A 
ATOM     28  C   UNL     1       1.211   3.938  19.986  0.00  0.00    +0.000 A 
ATOM     29  C   UNL     1       1.308   3.198  21.177  0.00  0.00    +0.000 A 
ATOM     30  C   UNL     1       2.509   2.577  21.529  0.00  0.00    +0.000 A 
ATOM     31  C   UNL     1       3.619   2.691  20.695  0.00  0.00    +0.000 A 
ATOM     32  C   UNL     1       3.530   3.425  19.512  0.00  0.00    +0.000 A 
ENDBRANCH  26  27
ENDBRANCH  18  26
ENDBRANCH   6  18
TORSDOF 6
ENDMDL
MODEL 5
REMARK VINA RESULT:      -8.8      1.120      3.872
REMARK  Name = 
REMARK  6 active torsions:
REMARK  status: ('A' for Active; 'I' for Inactive)
REMARK    1  A    between atoms: C_2  and  C_4
REMARK    2  A    between atoms: C_9  and  N_10
REMARK    3  A    between atoms: N_10  and  C_11
REMARK    4  A    between atoms: N_10  and  C_18
REMARK    5  A    between atoms: C_11  and  C_12
REMARK    6  A    between atoms: C_18  and  C_19
REMARK                            x       y       z     vdW  Elec       q    Type
REMARK                         _______ _______ _______ _____ _____    ______ ____
ROOT
ATOM      1  C   UNL     1      -0.830  11.424  21.157  0.00  0.00    +0.000 A 
ATOM      2  C   UNL     1      -0.532  11.134  19.814  0.00  0.00    +0.000 A 
ATOM      3  C   UNL     1       0.327  10.083  19.484  0.00  0.00    +0.000 A 
ATOM      4  C   UNL     1       0.650   9.807  18.156  0.00  0.00    +0.000 A 
ATOM      5  C   UNL     1       1.542   8.785  17.847  0.00  0.00    +0.000 A 
ATOM      6  C   UNL     1       2.145   7.991  18.858  0.00  0.00    +0.000 A 
ATOM      7  C   UNL     1       1.787   8.275  20.204  0.00  0.00    +0.000 A 
ATOM      8  C   UNL     1       0.888   9.312  20.512  0.00  0.00    +0.000 A 
ATOM      9  O   UNL     1       0.573   9.575  21.777  0.00  0.00    +0.000 OA
ATOM     10  C   UNL     1      -0.243  10.570  22.135  0.00  0.00    +0.000 A 
ATOM     11  O   UNL     1      -0.466  10.739  23.322  0.00  0.00    +0.000 OA
ENDROOT
BRANCH   1  13
ATOM     12  N   UNL     1      -2.771  12.844  20.852  0.00  0.00    +0.000 NA
ATOM     13  C   UNL     1      -1.699  12.607  21.526  0.00  0.00    +0.000 C 
ATOM     14  N   UNL     1      -1.405  13.446  22.643  0.00  0.00    +0.000 N 
ATOM     15  H   UNL     1      -3.402  13.622  21.095  0.00  0.00    +0.000 HD
ATOM     16  H   UNL     1      -2.044  14.213  22.897  0.00  0.00    +0.000 HD
ATOM     17  H   UNL     1      -0.590  13.311  23.250  0.00  0.00    +0.000 HD
ENDBRANCH   1  13
BRANCH   6  18
ATOM     18  N   UNL     1       3.099   6.950  18.508  0.00  0.00    +0.000 N 
BRANCH  18  19
ATOM     19  C   UNL     1       3.430   5.886  19.466  0.00  0.00    +0.000 C 
BRANCH  19  20
ATOM     20  C   UNL     1       2.486   4.688  19.436  0.00  0.00    +0.000 A 
ATOM     21  C   UNL     1       1.705   4.283  20.541  0.00  0.00    +0.000 A 
ATOM     22  C   UNL     1       0.885   3.154  20.455  0.00  0.00    +0.000 A 
ATOM     23  C   UNL     1       0.825   2.418  19.272  0.00  0.00    +0.000 A 
ATOM     24  C   UNL     1       1.579   2.813  18.166  0.00  0.00    +0.000 A 
ATOM     25  C   UNL     1       2.404   3.941  18.247  0.00  0.00    +0.000 A 
ENDBRANCH  19  20
ENDBRANCH  18  19
BRANCH  18  26
ATOM     26  C   UNL     1       3.955   7.084  17.322  0.00  0.00    +0.000 C 
BRANCH  26  27
ATOM     27  C   UNL     1       5.203   6.216  17.227  0.00  0.00    +0.000 A 
ATOM     28  C   UNL     1       6.396   6.399  17.958  0.00  0.00    +0.000 A 
ATOM     29  C   UNL     1       7.483   5.529  17.764  0.00  0.00    +0.000 A 
ATOM     30  C   UNL     1       7.391   4.474  16.852  0.00  0.00    +0.000 A 
ATOM     31  C   UNL     1       6.216   4.282  16.129  0.00  0.00    +0.000 A 
ATOM     32  C   UNL     1       5.135   5.144  16.315  0.00  0.00    +0.000 A 
ENDBRANCH  26  27
ENDBRANCH  18  26
ENDBRANCH   6  18
TORSDOF 6
ENDMDL
MODEL 6
REMARK VINA RESULT:      -8.7      0.783      3.831
REMARK  Name = 
REMARK  6 active torsions:
REMARK  status: ('A' for Active; 'I' for Inactive)
REMARK    1  A    between atoms: C_2  and  C_4
REMARK    2  A    between atoms: C_9  and  N_10
REMARK    3  A    between atoms: N_10  and  C_11
REMARK    4  A    between atoms: N_10  and  C_18
REMARK    5  A    between atoms: C_11  and  C_12
REMARK    6  A    between atoms: C_18  and  C_19
REMARK                            x       y       z     vdW  Elec       q    Type
REMARK                         _______ _______ _______ _____ _____    ______ ____
ROOT
ATOM      1  C   UNL     1      -0.312  11.032  21.306  0.00  0.00    +0.000 A 
ATOM      2  C   UNL     1       0.008  10.855  19.948  0.00  0.00    +0.000 A 
ATOM      3  C   UNL     1       0.743   9.744  19.528  0.00  0.00    +0.000 A 
ATOM      4  C   UNL     1       1.088   9.575  18.188  0.00  0.00    +0.000 A 
ATOM      5  C   UNL     1       1.860   8.487  17.792  0.00  0.00    +0.000 A 
ATOM      6  C   UNL     1       2.313   7.516  18.723  0.00  0.00    +0.000 A 
ATOM      7  C   UNL     1       1.932   7.695  20.081  0.00  0.00    +0.000 A 
ATOM      8  C   UNL     1       1.157   8.800  20.478  0.00  0.00    +0.000 A 
ATOM      9  O   UNL     1       0.821   8.962  21.754  0.00  0.00    +0.000 OA
ATOM     10  C   UNL     1       0.119  10.008  22.198  0.00  0.00    +0.000 A 
ATOM     11  O   UNL     1      -0.134  10.074  23.389  0.00  0.00    +0.000 OA
ENDROOT
BRANCH   1  13
ATOM     12  N   UNL     1      -2.020  12.738  21.084  0.00  0.00    +0.000 NA
ATOM     13  C   UNL     1      -1.043  12.270  21.780  0.00  0.00    +0.000 C 
ATOM     14  N   UNL     1      -0.726  12.913  23.016  0.00  0.00    +0.000 N 
ATOM     15  H   UNL     1      -2.560  13.561  21.393  0.00  0.00    +0.000 HD
ATOM     16  H   UNL     1      -1.276  13.724  23.334  0.00  0.00    +0.000 HD
ATOM     17  H   UNL     1       0.016  12.589  23.645  0.00  0.00    +0.000 HD
ENDBRANCH   1  13
BRANCH   6  18
ATOM     18  N   UNL     1       3.145   6.405  18.288  0.00  0.00    +0.000 N 
BRANCH  18  19
ATOM     19  C   UNL     1       2.551   5.092  18.000  0.00  0.00    +0.000 C 
BRANCH  19  20
ATOM     20  C   UNL     1       2.442   4.167  19.207  0.00  0.00    +0.000 A 
ATOM     21  C   UNL     1       1.294   4.086  20.027  0.00  0.00    +0.000 A 
ATOM     22  C   UNL     1       1.274   3.239  21.139  0.00  0.00    +0.000 A 
ATOM     23  C   UNL     1       2.388   2.459  21.447  0.00  0.00    +0.000 A 
ATOM     24  C   UNL     1       3.524   2.516  20.640  0.00  0.00    +0.000 A 
ATOM     25  C   UNL     1       3.552   3.363  19.526  0.00  0.00    +0.000 A 
ENDBRANCH  19  20
ENDBRANCH  18  19
BRANCH  18  26
ATOM     26  C   UNL     1       4.609   6.478  18.390  0.00  0.00    +0.000 C 
BRANCH  26  27
ATOM     27  C   UNL     1       5.445   5.771  17.332  0.00  0.00    +0.000 A 
ATOM     28  C   UNL     1       6.527   4.899  17.579  0.00  0.00    +0.000 A 
ATOM     29  C   UNL     1       7.225   4.320  16.505  0.00  0.00    +0.000 A 
ATOM     30  C   UNL     1       6.855   4.599  15.187  0.00  0.00    +0.000 A 
ATOM     31  C   UNL     1       5.786   5.455  14.933  0.00  0.00    +0.000 A 
ATOM     32  C   UNL     1       5.090   6.034  15.995  0.00  0.00    +0.000 A 
ENDBRANCH  26  27
ENDBRANCH  18  26
ENDBRANCH   6  18
TORSDOF 6
ENDMDL
MODEL 7
REMARK VINA RESULT:      -8.7      1.003      3.849
REMARK  Name = 
REMARK  6 active torsions:
REMARK  status: ('A' for Active; 'I' for Inactive)
REMARK    1  A    between atoms: C_2  and  C_4
REMARK    2  A    between atoms: C_9  and  N_10
REMARK    3  A    between atoms: N_10  and  C_11
REMARK    4  A    between atoms: N_10  and  C_18
REMARK    5  A    between atoms: C_11  and  C_12
REMARK    6  A    between atoms: C_18  and  C_19
REMARK                            x       y       z     vdW  Elec       q    Type
REMARK                         _______ _______ _______ _____ _____    ______ ____
ROOT
ATOM      1  C   UNL     1      -0.078  11.045  21.454  0.00  0.00    +0.000 A 
ATOM      2  C   UNL     1       0.190  10.904  20.081  0.00  0.00    +0.000 A 
ATOM      3  C   UNL     1       0.825   9.760  19.591  0.00  0.00    +0.000 A 
ATOM      4  C   UNL     1       1.119   9.626  18.235  0.00  0.00    +0.000 A 
ATOM      5  C   UNL     1       1.794   8.501  17.770  0.00  0.00    +0.000 A 
ATOM      6  C   UNL     1       2.197   7.459  18.645  0.00  0.00    +0.000 A 
ATOM      7  C   UNL     1       1.869   7.606  20.021  0.00  0.00    +0.000 A 
ATOM      8  C   UNL     1       1.192   8.747  20.487  0.00  0.00    +0.000 A 
ATOM      9  O   UNL     1       0.904   8.877  21.779  0.00  0.00    +0.000 OA
ATOM     10  C   UNL     1       0.298   9.952  22.288  0.00  0.00    +0.000 A 
ATOM     11  O   UNL     1       0.083   9.985  23.488  0.00  0.00    +0.000 OA
ENDROOT
BRANCH   1  13
ATOM     12  N   UNL     1       0.005  13.098  22.740  0.00  0.00    +0.000 NA
ATOM     13  C   UNL     1      -0.699  12.312  22.002  0.00  0.00    +0.000 C 
ATOM     14  N   UNL     1      -2.034  12.704  21.680  0.00  0.00    +0.000 N 
ATOM     15  H   UNL     1      -0.377  13.984  23.105  0.00  0.00    +0.000 HD
ATOM     16  H   UNL     1      -2.410  13.597  22.029  0.00  0.00    +0.000 HD
ATOM     17  H   UNL     1      -2.653  12.153  21.075  0.00  0.00    +0.000 HD
ENDBRANCH   1  13
BRANCH   6  18
ATOM     18  N   UNL     1       2.929   6.309  18.137  0.00  0.00    +0.000 N 
BRANCH  18  19
ATOM     19  C   UNL     1       2.270   5.003  18.000  0.00  0.00    +0.000 C 
BRANCH  19  20
ATOM     20  C   UNL     1       2.339   4.123  19.243  0.00  0.00    +0.000 A 
ATOM     21  C   UNL     1       3.491   3.397  19.622  0.00  0.00    +0.000 A 
ATOM     22  C   UNL     1       3.475   2.582  20.757  0.00  0.00    +0.000 A 
ATOM     23  C   UNL     1       2.321   2.481  21.534  0.00  0.00    +0.000 A 
ATOM     24  C   UNL     1       1.179   3.202  21.182  0.00  0.00    +0.000 A 
ATOM     25  C   UNL     1       1.188   4.018  20.045  0.00  0.00    +0.000 A 
ENDBRANCH  19  20
ENDBRANCH  18  19
BRANCH  18  26
ATOM     26  C   UNL     1       4.393   6.345  18.015  0.00  0.00    +0.000 C 
BRANCH  26  27
ATOM     27  C   UNL     1       5.036   5.659  16.817  0.00  0.00    +0.000 A 
ATOM     28  C   UNL     1       5.198   6.218  15.531  0.00  0.00    +0.000 A 
ATOM     29  C   UNL     1       5.800   5.467  14.506  0.00  0.00    +0.000 A 
ATOM     30  C   UNL     1       6.244   4.165  14.750  0.00  0.00    +0.000 A 
ATOM     31  C   UNL     1       6.092   3.606  16.017  0.00  0.00    +0.000 A 
ATOM     32  C   UNL     1       5.494   4.345  17.038  0.00  0.00    +0.000 A 
ENDBRANCH  26  27
ENDBRANCH  18  26
ENDBRANCH   6  18
TORSDOF 6
ENDMDL
MODEL 8
REMARK VINA RESULT:      -8.7      0.586      1.090
REMARK  Name = 
REMARK  6 active torsions:
REMARK  status: ('A' for Active; 'I' for Inactive)
REMARK    1  A    between atoms: C_2  and  C_4
REMARK    2  A    between atoms: C_9  and  N_10
REMARK    3  A    between atoms: N_10  and  C_11
REMARK    4  A    between atoms: N_10  and  C_18
REMARK    5  A    between atoms: C_11  and  C_12
REMARK    6  A    between atoms: C_18  and  C_19
REMARK                            x       y       z     vdW  Elec       q    Type
REMARK                         _______ _______ _______ _____ _____    ______ ____
ROOT
ATOM      1  C   UNL     1      -0.612  10.919  21.837  0.00  0.00    +0.000 A 
ATOM      2  C   UNL     1      -0.467  10.847  20.441  0.00  0.00    +0.000 A 
ATOM      3  C   UNL     1       0.353   9.878  19.857  0.00  0.00    +0.000 A 
ATOM      4  C   UNL     1       0.524   9.819  18.475  0.00  0.00    +0.000 A 
ATOM      5  C   UNL     1       1.380   8.877  17.912  0.00  0.00    +0.000 A 
ATOM      6  C   UNL     1       2.097   7.949  18.713  0.00  0.00    +0.000 A 
ATOM      7  C   UNL     1       1.893   8.013  20.118  0.00  0.00    +0.000 A 
ATOM      8  C   UNL     1       1.030   8.970  20.683  0.00  0.00    +0.000 A 
ATOM      9  O   UNL     1       0.859   9.027  22.001  0.00  0.00    +0.000 OA
ATOM     10  C   UNL     1       0.085   9.936  22.598  0.00  0.00    +0.000 A 
ATOM     11  O   UNL     1      -0.003   9.915  23.814  0.00  0.00    +0.000 OA
ENDROOT
BRANCH   1  13
ATOM     12  N   UNL     1      -0.890  12.809  23.330  0.00  0.00    +0.000 NA
ATOM     13  C   UNL     1      -1.439  12.011  22.481  0.00  0.00    +0.000 C 
ATOM     14  N   UNL     1      -2.808  12.230  22.136  0.00  0.00    +0.000 N 
ATOM     15  H   UNL     1      -1.417  13.583  23.764  0.00  0.00    +0.000 HD
ATOM     16  H   UNL     1      -3.329  13.013  22.556  0.00  0.00    +0.000 HD
ATOM     17  H   UNL     1      -3.314  11.661  21.449  0.00  0.00    +0.000 HD
ENDBRANCH   1  13
BRANCH   6  18
ATOM     18  N   UNL     1       3.010   6.996  18.101  0.00  0.00    +0.000 N 
BRANCH  18  19
ATOM     19  C   UNL     1       4.256   7.451  17.469  0.00  0.00    +0.000 C 
BRANCH  19  20
ATOM     20  C   UNL     1       5.263   6.344  17.181  0.00  0.00    +0.000 A 
ATOM     21  C   UNL     1       6.226   5.903  18.117  0.00  0.00    +0.000 A 
ATOM     22  C   UNL     1       7.143   4.904  17.776  0.00  0.00    +0.000 A 
ATOM     23  C   UNL     1       7.113   4.328  16.506  0.00  0.00    +0.000 A 
ATOM     24  C   UNL     1       6.160   4.741  15.575  0.00  0.00    +0.000 A 
ATOM     25  C   UNL     1       5.240   5.742  15.910  0.00  0.00    +0.000 A 
ENDBRANCH  19  20
ENDBRANCH  18  19
BRANCH  18  26
ATOM     26  C   UNL     1       2.591   5.610  17.852  0.00  0.00    +0.000 C 
BRANCH  26  27
ATOM     27  C   UNL     1       2.615   4.626  19.014  0.00  0.00    +0.000 A 
ATOM     28  C   UNL     1       3.632   3.685  19.282  0.00  0.00    +0.000 A 
ATOM     29  C   UNL     1       3.523   2.823  20.387  0.00  0.00    +0.000 A 
ATOM     30  C   UNL     1       2.411   2.891  21.231  0.00  0.00    +0.000 A 
ATOM     31  C   UNL     1       1.403   3.819  20.977  0.00  0.00    +0.000 A 
ATOM     32  C   UNL     1       1.505   4.676  19.881  0.00  0.00    +0.000 A 
ENDBRANCH  26  27
ENDBRANCH  18  26
ENDBRANCH   6  18
TORSDOF 6
ENDMDL
MODEL 9
REMARK VINA RESULT:      -8.5      2.713      8.401
REMARK  Name = 
REMARK  6 active torsions:
REMARK  status: ('A' for Active; 'I' for Inactive)
REMARK    1  A    between atoms: C_2  and  C_4
REMARK    2  A    between atoms: C_9  and  N_10
REMARK    3  A    between atoms: N_10  and  C_11
REMARK    4  A    between atoms: N_10  and  C_18
REMARK    5  A    between atoms: C_11  and  C_12
REMARK    6  A    between atoms: C_18  and  C_19
REMARK                            x       y       z     vdW  Elec       q    Type
REMARK                         _______ _______ _______ _____ _____    ______ ____
ROOT
ATOM      1  C   UNL     1       2.810   4.412  19.230  0.00  0.00    +0.000 A 
ATOM      2  C   UNL     1       2.870   5.476  18.314  0.00  0.00    +0.000 A 
ATOM      3  C   UNL     1       2.407   6.747  18.664  0.00  0.00    +0.000 A 
ATOM      4  C   UNL     1       2.436   7.800  17.751  0.00  0.00    +0.000 A 
ATOM      5  C   UNL     1       1.929   9.048  18.100  0.00  0.00    +0.000 A 
ATOM      6  C   UNL     1       1.375   9.295  19.384  0.00  0.00    +0.000 A 
ATOM      7  C   UNL     1       1.374   8.214  20.307  0.00  0.00    +0.000 A 
ATOM      8  C   UNL     1       1.883   6.953  19.947  0.00  0.00    +0.000 A 
ATOM      9  O   UNL     1       1.862   5.946  20.817  0.00  0.00    +0.000 OA
ATOM     10  C   UNL     1       2.295   4.718  20.523  0.00  0.00    +0.000 A 
ATOM     11  O   UNL     1       2.227   3.857  21.384  0.00  0.00    +0.000 OA
ENDROOT
BRANCH   1  13
ATOM     12  N   UNL     1       4.454   2.807  18.456  0.00  0.00    +0.000 NA
ATOM     13  C   UNL     1       3.241   3.016  18.835  0.00  0.00    +0.000 C 
ATOM     14  N   UNL     1       2.359   1.896  18.922  0.00  0.00    +0.000 N 
ATOM     15  H   UNL     1       4.789   1.864  18.209  0.00  0.00    +0.000 HD
ATOM     16  H   UNL     1       2.698   0.950  18.693  0.00  0.00    +0.000 HD
ATOM     17  H   UNL     1       1.387   1.967  19.242  0.00  0.00    +0.000 HD
ENDBRANCH   1  13
BRANCH   6  18
ATOM     18  N   UNL     1       0.823  10.600  19.712  0.00  0.00    +0.000 N 
BRANCH  18  19
ATOM     19  C   UNL     1       0.241  11.451  18.666  0.00  0.00    +0.000 C 
BRANCH  19  20
ATOM     20  C   UNL     1      -1.236  11.196  18.388  0.00  0.00    +0.000 A 
ATOM     21  C   UNL     1      -2.279  11.977  18.935  0.00  0.00    +0.000 A 
ATOM     22  C   UNL     1      -3.615  11.667  18.666  0.00  0.00    +0.000 A 
ATOM     23  C   UNL     1      -3.933  10.583  17.848  0.00  0.00    +0.000 A 
ATOM     24  C   UNL     1      -2.916   9.809  17.289  0.00  0.00    +0.000 A 
ATOM     25  C   UNL     1      -1.576  10.114  17.556  0.00  0.00    +0.000 A 
ENDBRANCH  19  20
ENDBRANCH  18  19
BRANCH  18  26
ATOM     26  C   UNL     1       1.079  11.215  21.022  0.00  0.00    +0.000 C 
BRANCH  26  27
ATOM     27  C   UNL     1      -0.105  11.768  21.805  0.00  0.00    +0.000 A 
ATOM     28  C   UNL     1      -1.081  11.004  22.479  0.00  0.00    +0.000 A 
ATOM     29  C   UNL     1      -2.134  11.644  23.156  0.00  0.00    +0.000 A 
ATOM     30  C   UNL     1      -2.222  13.038  23.170  0.00  0.00    +0.000 A 
ATOM     31  C   UNL     1      -1.262  13.802  22.510  0.00  0.00    +0.000 A 
ATOM     32  C   UNL     1      -0.215  13.172  21.835  0.00  0.00    +0.000 A 
ENDBRANCH  26  27
ENDBRANCH  18  26
ENDBRANCH   6  18
TORSDOF 6
ENDMDL
