MODEL 1
REMARK VINA RESULT:      -7.0      0.000      0.000
REMARK  Name = 
REMARK  3 active torsions:
REMARK  status: ('A' for Active; 'I' for Inactive)
REMARK    1  A    between atoms: N_11  and  C_12
REMARK    2  A    between atoms: C_12  and  C_13
REMARK    3  A    between atoms: C_13  and  C_14
REMARK                            x       y       z     vdW  Elec       q    Type
REMARK                         _______ _______ _______ _____ _____    ______ ____
ROOT
ATOM      1  O   UNL     1       1.835   3.628  16.808  0.00  0.00    +0.000 OA
ATOM      2  C   UNL     1       2.486   3.114  17.707  0.00  0.00    +0.000 C 
ATOM      3  C   UNL     1       1.897   2.373  18.894  0.00  0.00    +0.000 C 
ATOM      4  C   UNL     1       0.808   3.062  19.686  0.00  0.00    +0.000 C 
ATOM      5  C   UNL     1       1.338   3.177  21.115  0.00  0.00    +0.000 C 
ATOM      6  F   UNL     1       1.325   4.492  21.468  0.00  0.00    +0.000 F 
ATOM      7  C   UNL     1       2.776   2.667  21.114  0.00  0.00    +0.000 C 
ATOM      8  N   UNL     1       3.050   2.283  19.747  0.00  0.00    +0.000 N 
ATOM      9  C   UNL     1       4.194   2.728  19.096  0.00  0.00    +0.000 C 
ATOM     10  O   UNL     1       5.279   2.904  19.627  0.00  0.00    +0.000 OA
ATOM     11  N   UNL     1       3.854   3.064  17.815  0.00  0.00    +0.000 N 
ENDROOT
BRANCH  11  12
ATOM     12  C   UNL     1       4.769   3.725  16.895  0.00  0.00    +0.000 C 
BRANCH  12  13
ATOM     13  C   UNL     1       4.640   5.251  16.926  0.00  0.00    +0.000 C 
BRANCH  13  14
ATOM     14  C   UNL     1       5.884   5.910  17.440  0.00  0.00    +0.000 A 
ATOM     15  C   UNL     1       6.678   5.478  18.484  0.00  0.00    +0.000 A 
ATOM     16  S   UNL     1       7.993   6.555  18.714  0.00  0.00    +0.000 S 
ATOM     17  C   UNL     1       7.413   7.507  17.411  0.00  0.00    +0.000 A 
ATOM     18  N   UNL     1       6.319   7.075  16.824  0.00  0.00    +0.000 NA
ENDBRANCH  13  14
ENDBRANCH  12  13
ENDBRANCH  11  12
TORSDOF 3
ENDMDL
MODEL 2
REMARK VINA RESULT:      -6.9      0.833      1.013
REMARK  Name = 
REMARK  3 active torsions:
REMARK  status: ('A' for Active; 'I' for Inactive)
REMARK    1  A    between atoms: N_11  and  C_12
REMARK    2  A    between atoms: C_12  and  C_13
REMARK    3  A    between atoms: C_13  and  C_14
REMARK                            x       y       z     vdW  Elec       q    Type
REMARK                         _______ _______ _______ _____ _____    ______ ____
ROOT
ATOM      1  O   UNL     1       1.941   3.337  16.827  0.00  0.00    +0.000 OA
ATOM      2  C   UNL     1       2.517   2.870  17.799  0.00  0.00    +0.000 C 
ATOM      3  C   UNL     1       1.830   2.259  19.008  0.00  0.00    +0.000 C 
ATOM      4  C   UNL     1       0.740   3.063  19.681  0.00  0.00    +0.000 C 
ATOM      5  C   UNL     1       1.203   3.271  21.123  0.00  0.00    +0.000 C 
ATOM      6  F   UNL     1       1.241   4.610  21.368  0.00  0.00    +0.000 F 
ATOM      7  C   UNL     1       2.609   2.693  21.243  0.00  0.00    +0.000 C 
ATOM      8  N   UNL     1       2.932   2.184  19.928  0.00  0.00    +0.000 N 
ATOM      9  C   UNL     1       4.130   2.518  19.307  0.00  0.00    +0.000 C 
ATOM     10  O   UNL     1       5.194   2.684  19.881  0.00  0.00    +0.000 OA
ATOM     11  N   UNL     1       3.874   2.762  17.986  0.00  0.00    +0.000 N 
ENDROOT
BRANCH  11  12
ATOM     12  C   UNL     1       4.867   3.299  17.068  0.00  0.00    +0.000 C 
BRANCH  12  13
ATOM     13  C   UNL     1       4.747   4.815  16.884  0.00  0.00    +0.000 C 
BRANCH  13  14
ATOM     14  C   UNL     1       5.936   5.544  17.432  0.00  0.00    +0.000 A 
ATOM     15  C   UNL     1       6.326   6.834  17.130  0.00  0.00    +0.000 A 
ATOM     16  S   UNL     1       7.751   7.241  17.995  0.00  0.00    +0.000 S 
ATOM     17  C   UNL     1       7.738   5.680  18.705  0.00  0.00    +0.000 A 
ATOM     18  N   UNL     1       6.752   4.891  18.345  0.00  0.00    +0.000 NA
ENDBRANCH  13  14
ENDBRANCH  12  13
ENDBRANCH  11  12
TORSDOF 3
ENDMDL
MODEL 3
REMARK VINA RESULT:      -6.8      2.255      2.517
REMARK  Name = 
REMARK  3 active torsions:
REMARK  status: ('A' for Active; 'I' for Inactive)
REMARK    1  A    between atoms: N_11  and  C_12
REMARK    2  A    between atoms: C_12  and  C_13
REMARK    3  A    between atoms: C_13  and  C_14
REMARK                            x       y       z     vdW  Elec       q    Type
REMARK                         _______ _______ _______ _____ _____    ______ ____
ROOT
ATOM      1  O   UNL     1       2.202   6.529  18.483  0.00  0.00    +0.000 OA
ATOM      2  C   UNL     1       2.767   5.448  18.574  0.00  0.00    +0.000 C 
ATOM      3  C   UNL     1       2.084   4.135  18.916  0.00  0.00    +0.000 C 
ATOM      4  C   UNL     1       1.198   4.099  20.141  0.00  0.00    +0.000 C 
ATOM      5  C   UNL     1       1.799   3.036  21.062  0.00  0.00    +0.000 C 
ATOM      6  F   UNL     1       2.078   3.620  22.259  0.00  0.00    +0.000 F 
ATOM      7  C   UNL     1       3.096   2.553  20.420  0.00  0.00    +0.000 C 
ATOM      8  N   UNL     1       3.227   3.308  19.194  0.00  0.00    +0.000 N 
ATOM      9  C   UNL     1       4.411   3.965  18.882  0.00  0.00    +0.000 C 
ATOM     10  O   UNL     1       5.530   3.561  19.157  0.00  0.00    +0.000 OA
ATOM     11  N   UNL     1       4.097   5.187  18.354  0.00  0.00    +0.000 N 
ENDROOT
BRANCH  11  12
ATOM     12  C   UNL     1       5.091   6.211  18.067  0.00  0.00    +0.000 C 
BRANCH  12  13
ATOM     13  C   UNL     1       5.038   6.698  16.616  0.00  0.00    +0.000 C 
BRANCH  13  14
ATOM     14  C   UNL     1       5.684   5.729  15.673  0.00  0.00    +0.000 A 
ATOM     15  C   UNL     1       5.047   4.776  14.902  0.00  0.00    +0.000 A 
ATOM     16  S   UNL     1       6.196   3.896  13.980  0.00  0.00    +0.000 S 
ATOM     17  C   UNL     1       7.445   4.847  14.669  0.00  0.00    +0.000 A 
ATOM     18  N   UNL     1       7.063   5.766  15.526  0.00  0.00    +0.000 NA
ENDBRANCH  13  14
ENDBRANCH  12  13
ENDBRANCH  11  12
TORSDOF 3
ENDMDL
MODEL 4
REMARK VINA RESULT:      -6.7      1.950      2.375
REMARK  Name = 
REMARK  3 active torsions:
REMARK  status: ('A' for Active; 'I' for Inactive)
REMARK    1  A    between atoms: N_11  and  C_12
REMARK    2  A    between atoms: C_12  and  C_13
REMARK    3  A    between atoms: C_13  and  C_14
REMARK                            x       y       z     vdW  Elec       q    Type
REMARK                         _______ _______ _______ _____ _____    ______ ____
ROOT
ATOM      1  O   UNL     1       3.091   6.192  17.937  0.00  0.00    +0.000 OA
ATOM      2  C   UNL     1       3.420   5.030  18.126  0.00  0.00    +0.000 C 
ATOM      3  C   UNL     1       2.610   3.815  17.706  0.00  0.00    +0.000 C 
ATOM      4  C   UNL     1       1.152   3.769  18.106  0.00  0.00    +0.000 C 
ATOM      5  C   UNL     1       0.992   2.510  18.960  0.00  0.00    +0.000 C 
ATOM      6  F   UNL     1       0.489   2.879  20.170  0.00  0.00    +0.000 F 
ATOM      7  C   UNL     1       2.379   1.905  19.150  0.00  0.00    +0.000 C 
ATOM      8  N   UNL     1       3.286   2.781  18.441  0.00  0.00    +0.000 N 
ATOM      9  C   UNL     1       4.436   3.266  19.052  0.00  0.00    +0.000 C 
ATOM     10  O   UNL     1       5.115   2.649  19.857  0.00  0.00    +0.000 OA
ATOM     11  N   UNL     1       4.581   4.582  18.707  0.00  0.00    +0.000 N 
ENDROOT
BRANCH  11  12
ATOM     12  C   UNL     1       5.586   5.454  19.298  0.00  0.00    +0.000 C 
BRANCH  12  13
ATOM     13  C   UNL     1       6.880   5.505  18.480  0.00  0.00    +0.000 C 
BRANCH  13  14
ATOM     14  C   UNL     1       6.630   5.304  17.017  0.00  0.00    +0.000 A 
ATOM     15  C   UNL     1       6.913   4.172  16.277  0.00  0.00    +0.000 A 
ATOM     16  S   UNL     1       6.455   4.404  14.640  0.00  0.00    +0.000 S 
ATOM     17  C   UNL     1       5.914   5.982  15.038  0.00  0.00    +0.000 A 
ATOM     18  N   UNL     1       6.049   6.337  16.295  0.00  0.00    +0.000 NA
ENDBRANCH  13  14
ENDBRANCH  12  13
ENDBRANCH  11  12
TORSDOF 3
ENDMDL
MODEL 5
REMARK VINA RESULT:      -6.7      1.707      1.853
REMARK  Name = 
REMARK  3 active torsions:
REMARK  status: ('A' for Active; 'I' for Inactive)
REMARK    1  A    between atoms: N_11  and  C_12
REMARK    2  A    between atoms: C_12  and  C_13
REMARK    3  A    between atoms: C_13  and  C_14
REMARK                            x       y       z     vdW  Elec       q    Type
REMARK                         _______ _______ _______ _____ _____    ______ ____
ROOT
ATOM      1  O   UNL     1       3.093   6.122  18.270  0.00  0.00    +0.000 OA
ATOM      2  C   UNL     1       2.794   4.939  18.204  0.00  0.00    +0.000 C 
ATOM      3  C   UNL     1       1.554   4.318  18.824  0.00  0.00    +0.000 C 
ATOM      4  C   UNL     1       1.277   4.603  20.283  0.00  0.00    +0.000 C 
ATOM      5  C   UNL     1       1.258   3.241  20.979  0.00  0.00    +0.000 C 
ATOM      6  F   UNL     1       2.187   3.260  21.974  0.00  0.00    +0.000 F 
ATOM      7  C   UNL     1       1.645   2.191  19.943  0.00  0.00    +0.000 C 
ATOM      8  N   UNL     1       1.877   2.922  18.717  0.00  0.00    +0.000 N 
ATOM      9  C   UNL     1       3.037   2.728  17.978  0.00  0.00    +0.000 C 
ATOM     10  O   UNL     1       3.622   1.663  17.858  0.00  0.00    +0.000 OA
ATOM     11  N   UNL     1       3.475   3.948  17.540  0.00  0.00    +0.000 N 
ENDROOT
BRANCH  11  12
ATOM     12  C   UNL     1       4.754   4.144  16.875  0.00  0.00    +0.000 C 
BRANCH  12  13
ATOM     13  C   UNL     1       5.936   4.140  17.851  0.00  0.00    +0.000 C 
BRANCH  13  14
ATOM     14  C   UNL     1       6.649   5.457  17.876  0.00  0.00    +0.000 A 
ATOM     15  C   UNL     1       6.442   6.526  17.027  0.00  0.00    +0.000 A 
ATOM     16  S   UNL     1       7.493   7.820  17.435  0.00  0.00    +0.000 S 
ATOM     17  C   UNL     1       8.137   6.867  18.707  0.00  0.00    +0.000 A 
ATOM     18  N   UNL     1       7.621   5.666  18.844  0.00  0.00    +0.000 NA
ENDBRANCH  13  14
ENDBRANCH  12  13
ENDBRANCH  11  12
TORSDOF 3
ENDMDL
MODEL 6
REMARK VINA RESULT:      -6.7      2.535      2.728
REMARK  Name = 
REMARK  3 active torsions:
REMARK  status: ('A' for Active; 'I' for Inactive)
REMARK    1  A    between atoms: N_11  and  C_12
REMARK    2  A    between atoms: C_12  and  C_13
REMARK    3  A    between atoms: C_13  and  C_14
REMARK                            x       y       z     vdW  Elec       q    Type
REMARK                         _______ _______ _______ _____ _____    ______ ____
ROOT
ATOM      1  O   UNL     1       2.335   3.096  16.667  0.00  0.00    +0.000 OA
ATOM      2  C   UNL     1       2.963   3.335  17.688  0.00  0.00    +0.000 C 
ATOM      3  C   UNL     1       2.602   2.825  19.073  0.00  0.00    +0.000 C 
ATOM      4  C   UNL     1       1.183   3.033  19.553  0.00  0.00    +0.000 C 
ATOM      5  C   UNL     1       1.290   3.870  20.828  0.00  0.00    +0.000 C 
ATOM      6  F   UNL     1       0.553   5.002  20.657  0.00  0.00    +0.000 F 
ATOM      7  C   UNL     1       2.758   4.244  21.010  0.00  0.00    +0.000 C 
ATOM      8  N   UNL     1       3.451   3.650  19.887  0.00  0.00    +0.000 N 
ATOM      9  C   UNL     1       4.323   4.400  19.107  0.00  0.00    +0.000 C 
ATOM     10  O   UNL     1       5.045   5.292  19.524  0.00  0.00    +0.000 OA
ATOM     11  N   UNL     1       4.121   4.066  17.797  0.00  0.00    +0.000 N 
ENDROOT
BRANCH  11  12
ATOM     12  C   UNL     1       4.744   4.774  16.689  0.00  0.00    +0.000 C 
BRANCH  12  13
ATOM     13  C   UNL     1       6.190   4.332  16.442  0.00  0.00    +0.000 C 
BRANCH  13  14
ATOM     14  C   UNL     1       6.562   4.408  14.993  0.00  0.00    +0.000 A 
ATOM     15  C   UNL     1       5.993   3.697  13.954  0.00  0.00    +0.000 A 
ATOM     16  S   UNL     1       6.746   4.110  12.469  0.00  0.00    +0.000 S 
ATOM     17  C   UNL     1       7.764   5.201  13.315  0.00  0.00    +0.000 A 
ATOM     18  N   UNL     1       7.576   5.276  14.613  0.00  0.00    +0.000 NA
ENDBRANCH  13  14
ENDBRANCH  12  13
ENDBRANCH  11  12
TORSDOF 3
ENDMDL
MODEL 7
REMARK VINA RESULT:      -6.6      2.610      3.048
REMARK  Name = 
REMARK  3 active torsions:
REMARK  status: ('A' for Active; 'I' for Inactive)
REMARK    1  A    between atoms: N_11  and  C_12
REMARK    2  A    between atoms: C_12  and  C_13
REMARK    3  A    between atoms: C_13  and  C_14
REMARK                            x       y       z     vdW  Elec       q    Type
REMARK                         _______ _______ _______ _____ _____    ______ ____
ROOT
ATOM      1  O   UNL     1       4.173   5.888  19.525  0.00  0.00    +0.000 OA
ATOM      2  C   UNL     1       3.462   5.018  19.043  0.00  0.00    +0.000 C 
ATOM      3  C   UNL     1       2.057   4.683  19.513  0.00  0.00    +0.000 C 
ATOM      4  C   UNL     1       1.847   4.439  20.991  0.00  0.00    +0.000 C 
ATOM      5  C   UNL     1       1.300   3.015  21.107  0.00  0.00    +0.000 C 
ATOM      6  F   UNL     1       2.131   2.306  21.919  0.00  0.00    +0.000 F 
ATOM      7  C   UNL     1       1.313   2.404  19.710  0.00  0.00    +0.000 C 
ATOM      8  N   UNL     1       1.846   3.430  18.841  0.00  0.00    +0.000 N 
ATOM      9  C   UNL     1       2.882   3.152  17.958  0.00  0.00    +0.000 C 
ATOM     10  O   UNL     1       3.037   2.093  17.372  0.00  0.00    +0.000 OA
ATOM     11  N   UNL     1       3.755   4.205  17.976  0.00  0.00    +0.000 N 
ENDROOT
BRANCH  11  12
ATOM     12  C   UNL     1       5.042   4.185  17.297  0.00  0.00    +0.000 C 
BRANCH  12  13
ATOM     13  C   UNL     1       5.208   5.344  16.309  0.00  0.00    +0.000 C 
BRANCH  13  14
ATOM     14  C   UNL     1       5.885   4.913  15.044  0.00  0.00    +0.000 A 
ATOM     15  C   UNL     1       5.395   4.029  14.103  0.00  0.00    +0.000 A 
ATOM     16  S   UNL     1       6.521   3.839  12.824  0.00  0.00    +0.000 S 
ATOM     17  C   UNL     1       7.570   4.943  13.612  0.00  0.00    +0.000 A 
ATOM     18  N   UNL     1       7.135   5.438  14.749  0.00  0.00    +0.000 NA
ENDBRANCH  13  14
ENDBRANCH  12  13
ENDBRANCH  11  12
TORSDOF 3
ENDMDL
MODEL 8
REMARK VINA RESULT:      -6.6      2.889      3.188
REMARK  Name = 
REMARK  3 active torsions:
REMARK  status: ('A' for Active; 'I' for Inactive)
REMARK    1  A    between atoms: N_11  and  C_12
REMARK    2  A    between atoms: C_12  and  C_13
REMARK    3  A    between atoms: C_13  and  C_14
REMARK                            x       y       z     vdW  Elec       q    Type
REMARK                         _______ _______ _______ _____ _____    ______ ____
ROOT
ATOM      1  O   UNL     1       3.928   2.033  17.777  0.00  0.00    +0.000 OA
ATOM      2  C   UNL     1       3.943   3.104  18.366  0.00  0.00    +0.000 C 
ATOM      3  C   UNL     1       3.551   3.304  19.820  0.00  0.00    +0.000 C 
ATOM      4  C   UNL     1       2.221   2.746  20.275  0.00  0.00    +0.000 C 
ATOM      5  C   UNL     1       1.418   3.943  20.787  0.00  0.00    +0.000 C 
ATOM      6  F   UNL     1       0.252   4.003  20.088  0.00  0.00    +0.000 F 
ATOM      7  C   UNL     1       2.240   5.198  20.514  0.00  0.00    +0.000 C 
ATOM      8  N   UNL     1       3.451   4.737  19.871  0.00  0.00    +0.000 N 
ATOM      9  C   UNL     1       3.898   5.316  18.690  0.00  0.00    +0.000 C 
ATOM     10  O   UNL     1       3.786   6.497  18.402  0.00  0.00    +0.000 OA
ATOM     11  N   UNL     1       4.345   4.319  17.867  0.00  0.00    +0.000 N 
ENDROOT
BRANCH  11  12
ATOM     12  C   UNL     1       4.733   4.542  16.482  0.00  0.00    +0.000 C 
BRANCH  12  13
ATOM     13  C   UNL     1       6.248   4.472  16.272  0.00  0.00    +0.000 C 
BRANCH  13  14
ATOM     14  C   UNL     1       6.615   4.461  14.820  0.00  0.00    +0.000 A 
ATOM     15  C   UNL     1       6.070   3.661  13.834  0.00  0.00    +0.000 A 
ATOM     16  S   UNL     1       6.806   3.998  12.322  0.00  0.00    +0.000 S 
ATOM     17  C   UNL     1       7.786   5.179  13.087  0.00  0.00    +0.000 A 
ATOM     18  N   UNL     1       7.598   5.335  14.377  0.00  0.00    +0.000 NA
ENDBRANCH  13  14
ENDBRANCH  12  13
ENDBRANCH  11  12
TORSDOF 3
ENDMDL
MODEL 9
REMARK VINA RESULT:      -6.6      2.105      2.452
REMARK  Name = 
REMARK  3 active torsions:
REMARK  status: ('A' for Active; 'I' for Inactive)
REMARK    1  A    between atoms: N_11  and  C_12
REMARK    2  A    between atoms: C_12  and  C_13
REMARK    3  A    between atoms: C_13  and  C_14
REMARK                            x       y       z     vdW  Elec       q    Type
REMARK                         _______ _______ _______ _____ _____    ______ ____
ROOT
ATOM      1  O   UNL     1       3.271   6.596  19.576  0.00  0.00    +0.000 OA
ATOM      2  C   UNL     1       3.399   5.404  19.335  0.00  0.00    +0.000 C 
ATOM      3  C   UNL     1       2.253   4.434  19.104  0.00  0.00    +0.000 C 
ATOM      4  C   UNL     1       1.140   4.401  20.128  0.00  0.00    +0.000 C 
ATOM      5  C   UNL     1       1.109   2.970  20.666  0.00  0.00    +0.000 C 
ATOM      6  F   UNL     1       1.272   3.020  22.017  0.00  0.00    +0.000 F 
ATOM      7  C   UNL     1       2.280   2.218  20.042  0.00  0.00    +0.000 C 
ATOM      8  N   UNL     1       2.948   3.179  19.191  0.00  0.00    +0.000 N 
ATOM      9  C   UNL     1       4.323   3.369  19.270  0.00  0.00    +0.000 C 
ATOM     10  O   UNL     1       5.139   2.492  19.504  0.00  0.00    +0.000 OA
ATOM     11  N   UNL     1       4.575   4.711  19.185  0.00  0.00    +0.000 N 
ENDROOT
BRANCH  11  12
ATOM     12  C   UNL     1       5.894   5.288  19.397  0.00  0.00    +0.000 C 
BRANCH  12  13
ATOM     13  C   UNL     1       6.331   6.205  18.250  0.00  0.00    +0.000 C 
BRANCH  13  14
ATOM     14  C   UNL     1       6.209   5.534  16.916  0.00  0.00    +0.000 A 
ATOM     15  C   UNL     1       6.952   4.464  16.457  0.00  0.00    +0.000 A 
ATOM     16  S   UNL     1       6.462   4.040  14.869  0.00  0.00    +0.000 S 
ATOM     17  C   UNL     1       5.302   5.302  14.913  0.00  0.00    +0.000 A 
ATOM     18  N   UNL     1       5.258   6.005  16.022  0.00  0.00    +0.000 NA
ENDBRANCH  13  14
ENDBRANCH  12  13
ENDBRANCH  11  12
TORSDOF 3
ENDMDL
