MODEL 1
REMARK VINA RESULT:      -6.8      0.000      0.000
REMARK  Name = 
REMARK  9 active torsions:
REMARK  status: ('A' for Active; 'I' for Inactive)
REMARK    1  A    between atoms: C_1  and  C_2
REMARK    2  A    between atoms: C_2  and  C_3
REMARK    3  A    between atoms: C_2  and  C_4
REMARK    4  A    between atoms: C_2  and  C_5
REMARK    5  A    between atoms: C_5  and  C_6
REMARK    6  A    between atoms: N_8  and  C_9
REMARK    7  A    between atoms: C_15  and  O_16
REMARK    8  A    between atoms: O_16  and  C_17
REMARK    9  A    between atoms: C_17  and  C_18
REMARK                            x       y       z     vdW  Elec       q    Type
REMARK                         _______ _______ _______ _____ _____    ______ ____
ROOT
ATOM      1  C   UNL     1       2.570   6.451  19.048  0.00  0.00    +0.000 A 
ATOM      2  C   UNL     1       2.011   6.189  20.296  0.00  0.00    +0.000 A 
ATOM      3  C   UNL     1       1.267   7.153  20.978  0.00  0.00    +0.000 A 
ATOM      4  C   UNL     1       1.063   8.419  20.425  0.00  0.00    +0.000 A 
ATOM      5  C   UNL     1       0.240   9.434  21.081  0.00  0.00    +0.000 A 
ATOM      6 CL   UNL     1      -0.433   9.128  22.648  0.00  0.00    +0.000 Cl
ATOM      7  C   UNL     1       0.009  10.595  20.450  0.00  0.00    +0.000 A 
ATOM      8  O   UNL     1       0.571  10.877  19.180  0.00  0.00    +0.000 OA
ATOM      9  C   UNL     1       1.419  10.015  18.540  0.00  0.00    +0.000 A 
ATOM     10  O   UNL     1       1.933  10.290  17.465  0.00  0.00    +0.000 OA
ATOM     11  C   UNL     1       1.662   8.704  19.192  0.00  0.00    +0.000 A 
ATOM     12  C   UNL     1       2.445   7.738  18.520  0.00  0.00    +0.000 A 
ENDROOT
BRANCH   1  15
ATOM     13  C   UNL     1       4.533   5.031  18.539  0.00  0.00    +0.000 C 
ATOM     14  O   UNL     1       5.245   5.420  19.460  0.00  0.00    +0.000 OA
ATOM     15  N   UNL     1       3.223   5.446  18.299  0.00  0.00    +0.000 N 
ATOM     16  H   UNL     1       2.657   4.870  17.691  0.00  0.00    +0.000 HD
BRANCH  13  17
ATOM     17  C   UNL     1       5.074   4.015  17.557  0.00  0.00    +0.000 C 
BRANCH  17  19
ATOM     18  C   UNL     1       5.644   6.065  16.142  0.00  0.00    +0.000 C 
ATOM     19  C   UNL     1       6.023   4.613  16.492  0.00  0.00    +0.000 C 
ATOM     20  C   UNL     1       6.008   3.769  15.209  0.00  0.00    +0.000 C 
ATOM     21  C   UNL     1       7.451   4.626  17.072  0.00  0.00    +0.000 C 
ENDBRANCH  17  19
ENDBRANCH  13  17
ENDBRANCH   1  15
BRANCH   7  22
ATOM     22  O   UNL     1      -0.753  11.565  21.076  0.00  0.00    +0.000 OA
BRANCH  22  23
ATOM     23  C   UNL     1      -0.046  12.761  21.398  0.00  0.00    +0.000 C 
BRANCH  23  24
ATOM     24  C   UNL     1      -0.705  13.341  22.636  0.00  0.00    +0.000 C 
ATOM     25 BR   UNL     1      -2.334  12.378  23.064  0.00  0.00    +0.000 Br
ENDBRANCH  23  24
ENDBRANCH  22  23
ENDBRANCH   7  22
TORSDOF 6
ENDMDL
MODEL 2
REMARK VINA RESULT:      -6.7      1.151      1.488
REMARK  Name = 
REMARK  9 active torsions:
REMARK  status: ('A' for Active; 'I' for Inactive)
REMARK    1  A    between atoms: C_1  and  C_2
REMARK    2  A    between atoms: C_2  and  C_3
REMARK    3  A    between atoms: C_2  and  C_4
REMARK    4  A    between atoms: C_2  and  C_5
REMARK    5  A    between atoms: C_5  and  C_6
REMARK    6  A    between atoms: N_8  and  C_9
REMARK    7  A    between atoms: C_15  and  O_16
REMARK    8  A    between atoms: O_16  and  C_17
REMARK    9  A    between atoms: C_17  and  C_18
REMARK                            x       y       z     vdW  Elec       q    Type
REMARK                         _______ _______ _______ _____ _____    ______ ____
ROOT
ATOM      1  C   UNL     1       2.578   6.462  18.886  0.00  0.00    +0.000 A 
ATOM      2  C   UNL     1       2.059   6.178  20.147  0.00  0.00    +0.000 A 
ATOM      3  C   UNL     1       1.368   7.140  20.885  0.00  0.00    +0.000 A 
ATOM      4  C   UNL     1       1.179   8.426  20.378  0.00  0.00    +0.000 A 
ATOM      5  C   UNL     1       0.410   9.443  21.094  0.00  0.00    +0.000 A 
ATOM      6 CL   UNL     1      -0.211   9.108  22.676  0.00  0.00    +0.000 Cl
ATOM      7  C   UNL     1       0.187  10.629  20.506  0.00  0.00    +0.000 A 
ATOM      8  O   UNL     1       0.708  10.933  19.225  0.00  0.00    +0.000 OA
ATOM      9  C   UNL     1       1.507  10.069  18.527  0.00  0.00    +0.000 A 
ATOM     10  O   UNL     1       1.988  10.363  17.441  0.00  0.00    +0.000 OA
ATOM     11  C   UNL     1       1.738   8.733  19.131  0.00  0.00    +0.000 A 
ATOM     12  C   UNL     1       2.469   7.767  18.401  0.00  0.00    +0.000 A 
ENDROOT
BRANCH   1  15
ATOM     13  C   UNL     1       4.466   4.977  18.287  0.00  0.00    +0.000 C 
ATOM     14  O   UNL     1       5.206   5.290  19.214  0.00  0.00    +0.000 OA
ATOM     15  N   UNL     1       3.174   5.463  18.084  0.00  0.00    +0.000 N 
ATOM     16  H   UNL     1       2.574   4.942  17.459  0.00  0.00    +0.000 HD
BRANCH  13  17
ATOM     17  C   UNL     1       4.947   3.982  17.253  0.00  0.00    +0.000 C 
BRANCH  17  19
ATOM     18  C   UNL     1       5.971   3.758  14.922  0.00  0.00    +0.000 C 
ATOM     19  C   UNL     1       5.945   4.573  16.229  0.00  0.00    +0.000 C 
ATOM     20  C   UNL     1       7.363   4.624  16.814  0.00  0.00    +0.000 C 
ATOM     21  C   UNL     1       5.489   6.004  15.882  0.00  0.00    +0.000 C 
ENDBRANCH  17  19
ENDBRANCH  13  17
ENDBRANCH   1  15
BRANCH   7  22
ATOM     22  O   UNL     1      -0.524  11.599  21.189  0.00  0.00    +0.000 OA
BRANCH  22  23
ATOM     23  C   UNL     1      -0.972  12.686  20.382  0.00  0.00    +0.000 C 
BRANCH  23  24
ATOM     24  C   UNL     1      -2.468  12.509  20.198  0.00  0.00    +0.000 C 
ATOM     25 BR   UNL     1      -2.856  11.635  18.511  0.00  0.00    +0.000 Br
ENDBRANCH  23  24
ENDBRANCH  22  23
ENDBRANCH   7  22
TORSDOF 6
ENDMDL
MODEL 3
REMARK VINA RESULT:      -6.7      0.661      1.115
REMARK  Name = 
REMARK  9 active torsions:
REMARK  status: ('A' for Active; 'I' for Inactive)
REMARK    1  A    between atoms: C_1  and  C_2
REMARK    2  A    between atoms: C_2  and  C_3
REMARK    3  A    between atoms: C_2  and  C_4
REMARK    4  A    between atoms: C_2  and  C_5
REMARK    5  A    between atoms: C_5  and  C_6
REMARK    6  A    between atoms: N_8  and  C_9
REMARK    7  A    between atoms: C_15  and  O_16
REMARK    8  A    between atoms: O_16  and  C_17
REMARK    9  A    between atoms: C_17  and  C_18
REMARK                            x       y       z     vdW  Elec       q    Type
REMARK                         _______ _______ _______ _____ _____    ______ ____
ROOT
ATOM      1  C   UNL     1       2.539   6.564  18.942  0.00  0.00    +0.000 A 
ATOM      2  C   UNL     1       2.045   6.275  20.211  0.00  0.00    +0.000 A 
ATOM      3  C   UNL     1       1.377   7.237  20.969  0.00  0.00    +0.000 A 
ATOM      4  C   UNL     1       1.186   8.529  20.475  0.00  0.00    +0.000 A 
ATOM      5  C   UNL     1       0.440   9.547  21.213  0.00  0.00    +0.000 A 
ATOM      6 CL   UNL     1      -0.151   9.206  22.805  0.00  0.00    +0.000 Cl
ATOM      7  C   UNL     1       0.215  10.738  20.638  0.00  0.00    +0.000 A 
ATOM      8  O   UNL     1       0.712  11.047  19.348  0.00  0.00    +0.000 OA
ATOM      9  C   UNL     1       1.490  10.181  18.628  0.00  0.00    +0.000 A 
ATOM     10  O   UNL     1       1.950  10.479  17.535  0.00  0.00    +0.000 OA
ATOM     11  C   UNL     1       1.723   8.840  19.219  0.00  0.00    +0.000 A 
ATOM     12  C   UNL     1       2.431   7.873  18.468  0.00  0.00    +0.000 A 
ENDROOT
BRANCH   1  15
ATOM     13  C   UNL     1       4.390   5.043  18.316  0.00  0.00    +0.000 C 
ATOM     14  O   UNL     1       5.136   5.318  19.250  0.00  0.00    +0.000 OA
ATOM     15  N   UNL     1       3.112   5.566  18.121  0.00  0.00    +0.000 N 
ATOM     16  H   UNL     1       2.500   5.073  17.484  0.00  0.00    +0.000 HD
BRANCH  13  17
ATOM     17  C   UNL     1       4.847   4.057  17.263  0.00  0.00    +0.000 C 
BRANCH  17  19
ATOM     18  C   UNL     1       7.313   4.613  16.891  0.00  0.00    +0.000 C 
ATOM     19  C   UNL     1       5.898   4.627  16.282  0.00  0.00    +0.000 C 
ATOM     20  C   UNL     1       5.544   6.064  15.874  0.00  0.00    +0.000 C 
ATOM     21  C   UNL     1       5.918   3.735  15.024  0.00  0.00    +0.000 C 
ENDBRANCH  17  19
ENDBRANCH  13  17
ENDBRANCH   1  15
BRANCH   7  22
ATOM     22  O   UNL     1      -0.474  11.709  21.341  0.00  0.00    +0.000 OA
BRANCH  22  23
ATOM     23  C   UNL     1      -1.040  12.740  20.534  0.00  0.00    +0.000 C 
BRANCH  23  24
ATOM     24  C   UNL     1      -2.545  12.662  20.714  0.00  0.00    +0.000 C 
ATOM     25 BR   UNL     1      -3.010  12.592  22.595  0.00  0.00    +0.000 Br
ENDBRANCH  23  24
ENDBRANCH  22  23
ENDBRANCH   7  22
TORSDOF 6
ENDMDL
MODEL 4
REMARK VINA RESULT:      -6.6      1.182      1.183
REMARK  Name = 
REMARK  9 active torsions:
REMARK  status: ('A' for Active; 'I' for Inactive)
REMARK    1  A    between atoms: C_1  and  C_2
REMARK    2  A    between atoms: C_2  and  C_3
REMARK    3  A    between atoms: C_2  and  C_4
REMARK    4  A    between atoms: C_2  and  C_5
REMARK    5  A    between atoms: C_5  and  C_6
REMARK    6  A    between atoms: N_8  and  C_9
REMARK    7  A    between atoms: C_15  and  O_16
REMARK    8  A    between atoms: O_16  and  C_17
REMARK    9  A    between atoms: C_17  and  C_18
REMARK                            x       y       z     vdW  Elec       q    Type
REMARK                         _______ _______ _______ _____ _____    ______ ____
ROOT
ATOM      1  C   UNL     1       2.568   6.471  18.875  0.00  0.00    +0.000 A 
ATOM      2  C   UNL     1       2.045   6.190  20.135  0.00  0.00    +0.000 A 
ATOM      3  C   UNL     1       1.362   7.157  20.873  0.00  0.00    +0.000 A 
ATOM      4  C   UNL     1       1.185   8.446  20.368  0.00  0.00    +0.000 A 
ATOM      5  C   UNL     1       0.424   9.469  21.084  0.00  0.00    +0.000 A 
ATOM      6 CL   UNL     1      -0.202   9.137  22.666  0.00  0.00    +0.000 Cl
ATOM      7  C   UNL     1       0.212  10.657  20.498  0.00  0.00    +0.000 A 
ATOM      8  O   UNL     1       0.738  10.958  19.217  0.00  0.00    +0.000 OA
ATOM      9  C   UNL     1       1.530  10.088  18.519  0.00  0.00    +0.000 A 
ATOM     10  O   UNL     1       2.014  10.379  17.434  0.00  0.00    +0.000 OA
ATOM     11  C   UNL     1       1.748   8.749  19.122  0.00  0.00    +0.000 A 
ATOM     12  C   UNL     1       2.471   7.778  18.392  0.00  0.00    +0.000 A 
ENDROOT
BRANCH   1  15
ATOM     13  C   UNL     1       4.457   4.998  18.252  0.00  0.00    +0.000 C 
ATOM     14  O   UNL     1       5.215   5.330  19.158  0.00  0.00    +0.000 OA
ATOM     15  N   UNL     1       3.156   5.467  18.073  0.00  0.00    +0.000 N 
ATOM     16  H   UNL     1       2.548   4.932  17.468  0.00  0.00    +0.000 HD
BRANCH  13  17
ATOM     17  C   UNL     1       4.924   3.994  17.219  0.00  0.00    +0.000 C 
BRANCH  17  19
ATOM     18  C   UNL     1       5.501   6.033  15.790  0.00  0.00    +0.000 C 
ATOM     19  C   UNL     1       5.881   4.585  16.157  0.00  0.00    +0.000 C 
ATOM     20  C   UNL     1       5.879   3.730  14.882  0.00  0.00    +0.000 C 
ATOM     21  C   UNL     1       7.304   4.609  16.749  0.00  0.00    +0.000 C 
ENDBRANCH  17  19
ENDBRANCH  13  17
ENDBRANCH   1  15
BRANCH   7  22
ATOM     22  O   UNL     1      -0.490  11.633  21.181  0.00  0.00    +0.000 OA
BRANCH  22  23
ATOM     23  C   UNL     1      -1.542  12.242  20.434  0.00  0.00    +0.000 C 
BRANCH  23  24
ATOM     24  C   UNL     1      -1.365  13.743  20.571  0.00  0.00    +0.000 C 
ATOM     25 BR   UNL     1      -0.259  14.440  19.139  0.00  0.00    +0.000 Br
ENDBRANCH  23  24
ENDBRANCH  22  23
ENDBRANCH   7  22
TORSDOF 6
ENDMDL
MODEL 5
REMARK VINA RESULT:      -6.5      0.618      1.085
REMARK  Name = 
REMARK  9 active torsions:
REMARK  status: ('A' for Active; 'I' for Inactive)
REMARK    1  A    between atoms: C_1  and  C_2
REMARK    2  A    between atoms: C_2  and  C_3
REMARK    3  A    between atoms: C_2  and  C_4
REMARK    4  A    between atoms: C_2  and  C_5
REMARK    5  A    between atoms: C_5  and  C_6
REMARK    6  A    between atoms: N_8  and  C_9
REMARK    7  A    between atoms: C_15  and  O_16
REMARK    8  A    between atoms: O_16  and  C_17
REMARK    9  A    between atoms: C_17  and  C_18
REMARK                            x       y       z     vdW  Elec       q    Type
REMARK                         _______ _______ _______ _____ _____    ______ ____
ROOT
ATOM      1  C   UNL     1       2.582   6.496  18.802  0.00  0.00    +0.000 A 
ATOM      2  C   UNL     1       2.094   6.197  20.071  0.00  0.00    +0.000 A 
ATOM      3  C   UNL     1       1.441   7.156  20.846  0.00  0.00    +0.000 A 
ATOM      4  C   UNL     1       1.259   8.455  20.368  0.00  0.00    +0.000 A 
ATOM      5  C   UNL     1       0.528   9.471  21.124  0.00  0.00    +0.000 A 
ATOM      6 CL   UNL     1      -0.055   9.116  22.717  0.00  0.00    +0.000 Cl
ATOM      7  C   UNL     1       0.309  10.671  20.565  0.00  0.00    +0.000 A 
ATOM      8  O   UNL     1       0.800  10.991  19.275  0.00  0.00    +0.000 OA
ATOM      9  C   UNL     1       1.564  10.127  18.539  0.00  0.00    +0.000 A 
ATOM     10  O   UNL     1       2.019  10.433  17.446  0.00  0.00    +0.000 OA
ATOM     11  C   UNL     1       1.789   8.776  19.112  0.00  0.00    +0.000 A 
ATOM     12  C   UNL     1       2.482   7.812  18.344  0.00  0.00    +0.000 A 
ENDROOT
BRANCH   1  15
ATOM     13  C   UNL     1       4.424   4.984  18.130  0.00  0.00    +0.000 C 
ATOM     14  O   UNL     1       5.190   5.259  19.048  0.00  0.00    +0.000 OA
ATOM     15  N   UNL     1       3.139   5.503  17.965  0.00  0.00    +0.000 N 
ATOM     16  H   UNL     1       2.515   5.010  17.341  0.00  0.00    +0.000 HD
BRANCH  13  17
ATOM     17  C   UNL     1       4.860   4.003  17.063  0.00  0.00    +0.000 C 
BRANCH  17  19
ATOM     18  C   UNL     1       5.944   3.753  14.762  0.00  0.00    +0.000 C 
ATOM     19  C   UNL     1       5.888   4.579  16.062  0.00  0.00    +0.000 C 
ATOM     20  C   UNL     1       7.291   4.628  16.684  0.00  0.00    +0.000 C 
ATOM     21  C   UNL     1       5.449   6.010  15.690  0.00  0.00    +0.000 C 
ENDBRANCH  17  19
ENDBRANCH  13  17
ENDBRANCH   1  15
BRANCH   7  22
ATOM     22  O   UNL     1      -0.366  11.640  21.285  0.00  0.00    +0.000 OA
BRANCH  22  23
ATOM     23  C   UNL     1      -0.489  12.896  20.621  0.00  0.00    +0.000 C 
BRANCH  23  24
ATOM     24  C   UNL     1      -1.618  13.645  21.305  0.00  0.00    +0.000 C 
ATOM     25 BR   UNL     1      -1.296  13.784  23.212  0.00  0.00    +0.000 Br
ENDBRANCH  23  24
ENDBRANCH  22  23
ENDBRANCH   7  22
TORSDOF 6
ENDMDL
MODEL 6
REMARK VINA RESULT:      -6.5      3.664      8.525
REMARK  Name = 
REMARK  9 active torsions:
REMARK  status: ('A' for Active; 'I' for Inactive)
REMARK    1  A    between atoms: C_1  and  C_2
REMARK    2  A    between atoms: C_2  and  C_3
REMARK    3  A    between atoms: C_2  and  C_4
REMARK    4  A    between atoms: C_2  and  C_5
REMARK    5  A    between atoms: C_5  and  C_6
REMARK    6  A    between atoms: N_8  and  C_9
REMARK    7  A    between atoms: C_15  and  O_16
REMARK    8  A    between atoms: O_16  and  C_17
REMARK    9  A    between atoms: C_17  and  C_18
REMARK                            x       y       z     vdW  Elec       q    Type
REMARK                         _______ _______ _______ _____ _____    ______ ____
ROOT
ATOM      1  C   UNL     1       0.825   9.350  19.267  0.00  0.00    +0.000 A 
ATOM      2  C   UNL     1       1.526   9.640  18.100  0.00  0.00    +0.000 A 
ATOM      3  C   UNL     1       2.497   8.774  17.599  0.00  0.00    +0.000 A 
ATOM      4  C   UNL     1       2.800   7.582  18.260  0.00  0.00    +0.000 A 
ATOM      5  C   UNL     1       3.767   6.620  17.735  0.00  0.00    +0.000 A 
ATOM      6 CL   UNL     1       4.667   6.988  16.301  0.00  0.00    +0.000 Cl
ATOM      7  C   UNL     1       3.940   5.452  18.373  0.00  0.00    +0.000 A 
ATOM      8  O   UNL     1       3.235   5.142  19.562  0.00  0.00    +0.000 OA
ATOM      9  C   UNL     1       2.377   6.022  20.163  0.00  0.00    +0.000 A 
ATOM     10  O   UNL     1       1.809   5.759  21.214  0.00  0.00    +0.000 OA
ATOM     11  C   UNL     1       2.132   7.306  19.460  0.00  0.00    +0.000 A 
ATOM     12  C   UNL     1       1.173   8.204  19.985  0.00  0.00    +0.000 A 
ENDROOT
BRANCH   1  15
ATOM     13  C   UNL     1      -0.061  11.382  20.370  0.00  0.00    +0.000 C 
ATOM     14  O   UNL     1       1.018  11.933  20.564  0.00  0.00    +0.000 OA
ATOM     15  N   UNL     1      -0.241  10.163  19.718  0.00  0.00    +0.000 N 
ATOM     16  H   UNL     1      -1.170   9.946  19.384  0.00  0.00    +0.000 HD
BRANCH  13  17
ATOM     17  C   UNL     1      -1.333  12.042  20.858  0.00  0.00    +0.000 C 
BRANCH  17  19
ATOM     18  C   UNL     1      -0.755  13.303  23.004  0.00  0.00    +0.000 C 
ATOM     19  C   UNL     1      -1.470  12.081  22.398  0.00  0.00    +0.000 C 
ATOM     20  C   UNL     1      -0.900  10.803  23.031  0.00  0.00    +0.000 C 
ATOM     21  C   UNL     1      -2.968  12.193  22.746  0.00  0.00    +0.000 C 
ENDBRANCH  17  19
ENDBRANCH  13  17
ENDBRANCH   1  15
BRANCH   7  22
ATOM     22  O   UNL     1       4.869   4.549  17.890  0.00  0.00    +0.000 OA
BRANCH  22  23
ATOM     23  C   UNL     1       6.045   4.421  18.686  0.00  0.00    +0.000 C 
BRANCH  23  24
ATOM     24  C   UNL     1       7.213   4.854  17.819  0.00  0.00    +0.000 C 
ATOM     25 BR   UNL     1       7.720   6.684  18.211  0.00  0.00    +0.000 Br
ENDBRANCH  23  24
ENDBRANCH  22  23
ENDBRANCH   7  22
TORSDOF 6
ENDMDL
MODEL 7
REMARK VINA RESULT:      -6.4      2.820      3.918
REMARK  Name = 
REMARK  9 active torsions:
REMARK  status: ('A' for Active; 'I' for Inactive)
REMARK    1  A    between atoms: C_1  and  C_2
REMARK    2  A    between atoms: C_2  and  C_3
REMARK    3  A    between atoms: C_2  and  C_4
REMARK    4  A    between atoms: C_2  and  C_5
REMARK    5  A    between atoms: C_5  and  C_6
REMARK    6  A    between atoms: N_8  and  C_9
REMARK    7  A    between atoms: C_15  and  O_16
REMARK    8  A    between atoms: O_16  and  C_17
REMARK    9  A    between atoms: C_17  and  C_18
REMARK                            x       y       z     vdW  Elec       q    Type
REMARK                         _______ _______ _______ _____ _____    ______ ____
ROOT
ATOM      1  C   UNL     1       1.772   7.786  20.295  0.00  0.00    +0.000 A 
ATOM      2  C   UNL     1       1.729   8.576  19.150  0.00  0.00    +0.000 A 
ATOM      3  C   UNL     1       1.168   9.853  19.166  0.00  0.00    +0.000 A 
ATOM      4  C   UNL     1       0.627  10.380  20.341  0.00  0.00    +0.000 A 
ATOM      5  C   UNL     1       0.085  11.736  20.413  0.00  0.00    +0.000 A 
ATOM      6 CL   UNL     1      -0.001  12.713  18.985  0.00  0.00    +0.000 Cl
ATOM      7  C   UNL     1      -0.333  12.211  21.596  0.00  0.00    +0.000 A 
ATOM      8  O   UNL     1      -0.296  11.419  22.770  0.00  0.00    +0.000 OA
ATOM      9  C   UNL     1       0.116  10.114  22.770  0.00  0.00    +0.000 A 
ATOM     10  O   UNL     1       0.100   9.429  23.782  0.00  0.00    +0.000 OA
ATOM     11  C   UNL     1       0.624   9.572  21.485  0.00  0.00    +0.000 A 
ATOM     12  C   UNL     1       1.160   8.264  21.456  0.00  0.00    +0.000 A 
ENDROOT
BRANCH   1  15
ATOM     13  C   UNL     1       2.483   5.667  19.230  0.00  0.00    +0.000 C 
ATOM     14  O   UNL     1       2.022   5.894  18.116  0.00  0.00    +0.000 OA
ATOM     15  N   UNL     1       2.441   6.541  20.316  0.00  0.00    +0.000 N 
ATOM     16  H   UNL     1       3.076   6.362  21.083  0.00  0.00    +0.000 HD
BRANCH  13  17
ATOM     17  C   UNL     1       3.167   4.343  19.499  0.00  0.00    +0.000 C 
BRANCH  17  19
ATOM     18  C   UNL     1       2.652   2.796  21.466  0.00  0.00    +0.000 C 
ATOM     19  C   UNL     1       2.224   3.251  20.058  0.00  0.00    +0.000 C 
ATOM     20  C   UNL     1       2.187   2.031  19.128  0.00  0.00    +0.000 C 
ATOM     21  C   UNL     1       0.807   3.848  20.167  0.00  0.00    +0.000 C 
ENDBRANCH  17  19
ENDBRANCH  13  17
ENDBRANCH   1  15
BRANCH   7  22
ATOM     22  O   UNL     1      -0.863  13.486  21.663  0.00  0.00    +0.000 OA
BRANCH  22  23
ATOM     23  C   UNL     1      -1.193  13.924  22.980  0.00  0.00    +0.000 C 
BRANCH  23  24
ATOM     24  C   UNL     1      -2.697  14.127  23.012  0.00  0.00    +0.000 C 
ATOM     25 BR   UNL     1      -3.583  12.583  23.781  0.00  0.00    +0.000 Br
ENDBRANCH  23  24
ENDBRANCH  22  23
ENDBRANCH   7  22
TORSDOF 6
ENDMDL
MODEL 8
REMARK VINA RESULT:      -6.4      2.577      3.503
REMARK  Name = 
REMARK  9 active torsions:
REMARK  status: ('A' for Active; 'I' for Inactive)
REMARK    1  A    between atoms: C_1  and  C_2
REMARK    2  A    between atoms: C_2  and  C_3
REMARK    3  A    between atoms: C_2  and  C_4
REMARK    4  A    between atoms: C_2  and  C_5
REMARK    5  A    between atoms: C_5  and  C_6
REMARK    6  A    between atoms: N_8  and  C_9
REMARK    7  A    between atoms: C_15  and  O_16
REMARK    8  A    between atoms: O_16  and  C_17
REMARK    9  A    between atoms: C_17  and  C_18
REMARK                            x       y       z     vdW  Elec       q    Type
REMARK                         _______ _______ _______ _____ _____    ______ ____
ROOT
ATOM      1  C   UNL     1       1.747   7.904  20.185  0.00  0.00    +0.000 A 
ATOM      2  C   UNL     1       1.510   8.694  19.063  0.00  0.00    +0.000 A 
ATOM      3  C   UNL     1       0.820   9.903  19.156  0.00  0.00    +0.000 A 
ATOM      4  C   UNL     1       0.341  10.358  20.385  0.00  0.00    +0.000 A 
ATOM      5  C   UNL     1      -0.333  11.647  20.533  0.00  0.00    +0.000 A 
ATOM      6 CL   UNL     1      -0.660  12.621  19.138  0.00  0.00    +0.000 Cl
ATOM      7  C   UNL     1      -0.685  12.064  21.758  0.00  0.00    +0.000 A 
ATOM      8  O   UNL     1      -0.452  11.272  22.910  0.00  0.00    +0.000 OA
ATOM      9  C   UNL     1       0.096  10.019  22.846  0.00  0.00    +0.000 A 
ATOM     10  O   UNL     1       0.250   9.328  23.843  0.00  0.00    +0.000 OA
ATOM     11  C   UNL     1       0.534   9.546  21.510  0.00  0.00    +0.000 A 
ATOM     12  C   UNL     1       1.202   8.304  21.407  0.00  0.00    +0.000 A 
ENDROOT
BRANCH   1  15
ATOM     13  C   UNL     1       2.047   5.449  20.311  0.00  0.00    +0.000 C 
ATOM     14  O   UNL     1       0.867   5.159  20.477  0.00  0.00    +0.000 OA
ATOM     15  N   UNL     1       2.544   6.738  20.120  0.00  0.00    +0.000 N 
ATOM     16  H   UNL     1       3.473   6.826  19.730  0.00  0.00    +0.000 HD
BRANCH  13  17
ATOM     17  C   UNL     1       3.090   4.352  20.299  0.00  0.00    +0.000 C 
BRANCH  17  19
ATOM     18  C   UNL     1       4.788   4.500  18.396  0.00  0.00    +0.000 C 
ATOM     19  C   UNL     1       3.472   3.863  18.883  0.00  0.00    +0.000 C 
ATOM     20  C   UNL     1       2.360   4.182  17.874  0.00  0.00    +0.000 C 
ATOM     21  C   UNL     1       3.682   2.337  18.939  0.00  0.00    +0.000 C 
ENDBRANCH  17  19
ENDBRANCH  13  17
ENDBRANCH   1  15
BRANCH   7  22
ATOM     22  O   UNL     1      -1.340  13.274  21.899  0.00  0.00    +0.000 OA
BRANCH  22  23
ATOM     23  C   UNL     1      -2.735  13.167  22.174  0.00  0.00    +0.000 C 
BRANCH  23  24
ATOM     24  C   UNL     1      -2.939  13.634  23.604  0.00  0.00    +0.000 C 
ATOM     25 BR   UNL     1      -4.290  12.564  24.492  0.00  0.00    +0.000 Br
ENDBRANCH  23  24
ENDBRANCH  22  23
ENDBRANCH   7  22
TORSDOF 6
ENDMDL
MODEL 9
REMARK VINA RESULT:      -6.4      3.831      8.742
REMARK  Name = 
REMARK  9 active torsions:
REMARK  status: ('A' for Active; 'I' for Inactive)
REMARK    1  A    between atoms: C_1  and  C_2
REMARK    2  A    between atoms: C_2  and  C_3
REMARK    3  A    between atoms: C_2  and  C_4
REMARK    4  A    between atoms: C_2  and  C_5
REMARK    5  A    between atoms: C_5  and  C_6
REMARK    6  A    between atoms: N_8  and  C_9
REMARK    7  A    between atoms: C_15  and  O_16
REMARK    8  A    between atoms: O_16  and  C_17
REMARK    9  A    between atoms: C_17  and  C_18
REMARK                            x       y       z     vdW  Elec       q    Type
REMARK                         _______ _______ _______ _____ _____    ______ ____
ROOT
ATOM      1  C   UNL     1       0.889   8.544  20.478  0.00  0.00    +0.000 A 
ATOM      2  C   UNL     1       1.380   9.164  19.332  0.00  0.00    +0.000 A 
ATOM      3  C   UNL     1       2.260   8.510  18.469  0.00  0.00    +0.000 A 
ATOM      4  C   UNL     1       2.681   7.205  18.734  0.00  0.00    +0.000 A 
ATOM      5  C   UNL     1       3.554   6.466  17.824  0.00  0.00    +0.000 A 
ATOM      6 CL   UNL     1       4.194   7.240  16.413  0.00  0.00    +0.000 Cl
ATOM      7  C   UNL     1       3.843   5.183  18.094  0.00  0.00    +0.000 A 
ATOM      8  O   UNL     1       3.353   4.539  19.256  0.00  0.00    +0.000 OA
ATOM      9  C   UNL     1       2.600   5.185  20.199  0.00  0.00    +0.000 A 
ATOM     10  O   UNL     1       2.221   4.629  21.220  0.00  0.00    +0.000 OA
ATOM     11  C   UNL     1       2.229   6.593  19.910  0.00  0.00    +0.000 A 
ATOM     12  C   UNL     1       1.365   7.271  20.801  0.00  0.00    +0.000 A 
ENDROOT
BRANCH   1  15
ATOM     13  C   UNL     1       0.096  10.370  21.949  0.00  0.00    +0.000 C 
ATOM     14  O   UNL     1       1.083  11.091  21.844  0.00  0.00    +0.000 OA
ATOM     15  N   UNL     1      -0.091   9.154  21.293  0.00  0.00    +0.000 N 
ATOM     16  H   UNL     1      -1.034   8.792  21.244  0.00  0.00    +0.000 HD
BRANCH  13  17
ATOM     17  C   UNL     1      -1.043  10.794  22.851  0.00  0.00    +0.000 C 
BRANCH  17  19
ATOM     18  C   UNL     1      -1.932  12.245  20.945  0.00  0.00    +0.000 C 
ATOM     19  C   UNL     1      -1.683  12.147  22.462  0.00  0.00    +0.000 C 
ATOM     20  C   UNL     1      -0.794  13.319  22.900  0.00  0.00    +0.000 C 
ATOM     21  C   UNL     1      -3.049  12.256  23.171  0.00  0.00    +0.000 C 
ENDBRANCH  17  19
ENDBRANCH  13  17
ENDBRANCH   1  15
BRANCH   7  22
ATOM     22  O   UNL     1       4.684   4.487  17.245  0.00  0.00    +0.000 OA
BRANCH  22  23
ATOM     23  C   UNL     1       6.073   4.743  17.443  0.00  0.00    +0.000 C 
BRANCH  23  24
ATOM     24  C   UNL     1       6.785   4.305  16.176  0.00  0.00    +0.000 C 
ATOM     25 BR   UNL     1       5.587   4.380  14.652  0.00  0.00    +0.000 Br
ENDBRANCH  23  24
ENDBRANCH  22  23
ENDBRANCH   7  22
TORSDOF 6
ENDMDL
