MODEL 1
REMARK VINA RESULT:      -7.0      0.000      0.000
REMARK  Name = 
REMARK  2 active torsions:
REMARK  status: ('A' for Active; 'I' for Inactive)
REMARK    1  A    between atoms: N_1  and  N_2
REMARK    2  A    between atoms: C_3  and  C_4
REMARK                            x       y       z     vdW  Elec       q    Type
REMARK                         _______ _______ _______ _____ _____    ______ ____
ROOT
ATOM      1  N   UNL     1       2.895   3.416  19.024  0.00  0.00    +0.000 N 
ATOM      2  C   UNL     1       2.613   4.717  19.431  0.00  0.00    +0.000 A 
ATOM      3  N   UNL     1       3.067   5.755  18.780  0.00  0.00    +0.000 NA
ATOM      4  C   UNL     1       3.886   5.562  17.661  0.00  0.00    +0.000 A 
ATOM      5  C   UNL     1       4.428   6.681  17.025  0.00  0.00    +0.000 A 
ATOM      6  C   UNL     1       5.265   6.535  15.916  0.00  0.00    +0.000 A 
ATOM      7  C   UNL     1       5.562   5.264  15.426  0.00  0.00    +0.000 A 
ATOM      8  C   UNL     1       5.021   4.139  16.047  0.00  0.00    +0.000 A 
ATOM      9  C   UNL     1       4.190   4.298  17.161  0.00  0.00    +0.000 A 
ATOM     10  C   UNL     1       3.630   3.133  17.866  0.00  0.00    +0.000 A 
ATOM     11  O   UNL     1       3.809   1.996  17.437  0.00  0.00    +0.000 OA
ENDROOT
BRANCH   2  12
ATOM     12  C   UNL     1       1.724   4.959  20.661  0.00  0.00    +0.000 C 
ATOM     13  F   UNL     1       0.482   4.398  20.606  0.00  0.00    +0.000 F 
ATOM     14  F   UNL     1       2.298   4.506  21.810  0.00  0.00    +0.000 F 
ATOM     15  F   UNL     1       1.498   6.293  20.851  0.00  0.00    +0.000 F 
ENDBRANCH   2  12
BRANCH   1  16
ATOM     16  N   UNL     1       2.520   2.284  19.801  0.00  0.00    +0.000 N 
ATOM     17  H   UNL     1       1.833   1.721  19.290  0.00  0.00    +0.000 HD
ATOM     18  H   UNL     1       3.356   1.689  19.877  0.00  0.00    +0.000 HD
ENDBRANCH   1  16
TORSDOF 2
ENDMDL
MODEL 2
REMARK VINA RESULT:      -6.8      3.852      5.437
REMARK  Name = 
REMARK  2 active torsions:
REMARK  status: ('A' for Active; 'I' for Inactive)
REMARK    1  A    between atoms: N_1  and  N_2
REMARK    2  A    between atoms: C_3  and  C_4
REMARK                            x       y       z     vdW  Elec       q    Type
REMARK                         _______ _______ _______ _____ _____    ______ ____
ROOT
ATOM      1  N   UNL     1       4.403   5.731  17.268  0.00  0.00    +0.000 N 
ATOM      2  C   UNL     1       4.778   4.539  16.655  0.00  0.00    +0.000 A 
ATOM      3  N   UNL     1       4.142   3.419  16.880  0.00  0.00    +0.000 NA
ATOM      4  C   UNL     1       3.074   3.406  17.785  0.00  0.00    +0.000 A 
ATOM      5  C   UNL     1       2.456   2.187  18.074  0.00  0.00    +0.000 A 
ATOM      6  C   UNL     1       1.399   2.122  18.985  0.00  0.00    +0.000 A 
ATOM      7  C   UNL     1       0.941   3.282  19.610  0.00  0.00    +0.000 A 
ATOM      8  C   UNL     1       1.543   4.506  19.324  0.00  0.00    +0.000 A 
ATOM      9  C   UNL     1       2.606   4.556  18.416  0.00  0.00    +0.000 A 
ATOM     10  C   UNL     1       3.292   5.824  18.116  0.00  0.00    +0.000 A 
ATOM     11  O   UNL     1       2.888   6.883  18.591  0.00  0.00    +0.000 OA
ENDROOT
BRANCH   2  12
ATOM     12  C   UNL     1       5.952   4.523  15.664  0.00  0.00    +0.000 C 
ATOM     13  F   UNL     1       5.857   5.405  14.628  0.00  0.00    +0.000 F 
ATOM     14  F   UNL     1       7.144   4.776  16.272  0.00  0.00    +0.000 F 
ATOM     15  F   UNL     1       6.082   3.299  15.071  0.00  0.00    +0.000 F 
ENDBRANCH   2  12
BRANCH   1  16
ATOM     16  N   UNL     1       5.171   6.922  17.135  0.00  0.00    +0.000 N 
ATOM     17  H   UNL     1       5.529   7.211  18.050  0.00  0.00    +0.000 HD
ATOM     18  H   UNL     1       6.003   6.676  16.583  0.00  0.00    +0.000 HD
ENDBRANCH   1  16
TORSDOF 2
ENDMDL
MODEL 3
REMARK VINA RESULT:      -6.8      3.719      4.845
REMARK  Name = 
REMARK  2 active torsions:
REMARK  status: ('A' for Active; 'I' for Inactive)
REMARK    1  A    between atoms: N_1  and  N_2
REMARK    2  A    between atoms: C_3  and  C_4
REMARK                            x       y       z     vdW  Elec       q    Type
REMARK                         _______ _______ _______ _____ _____    ______ ____
ROOT
ATOM      1  N   UNL     1       6.234   4.891  17.347  0.00  0.00    +0.000 N 
ATOM      2  C   UNL     1       6.411   5.236  18.685  0.00  0.00    +0.000 A 
ATOM      3  N   UNL     1       5.425   5.202  19.541  0.00  0.00    +0.000 NA
ATOM      4  C   UNL     1       4.146   4.839  19.102  0.00  0.00    +0.000 A 
ATOM      5  C   UNL     1       3.087   4.884  20.012  0.00  0.00    +0.000 A 
ATOM      6  C   UNL     1       1.791   4.548  19.614  0.00  0.00    +0.000 A 
ATOM      7  C   UNL     1       1.542   4.153  18.300  0.00  0.00    +0.000 A 
ATOM      8  C   UNL     1       2.591   4.096  17.384  0.00  0.00    +0.000 A 
ATOM      9  C   UNL     1       3.883   4.442  17.793  0.00  0.00    +0.000 A 
ATOM     10  C   UNL     1       5.010   4.430  16.845  0.00  0.00    +0.000 A 
ATOM     11  O   UNL     1       4.857   4.030  15.694  0.00  0.00    +0.000 OA
ENDROOT
BRANCH   2  12
ATOM     12  C   UNL     1       7.803   5.647  19.191  0.00  0.00    +0.000 C 
ATOM     13  F   UNL     1       8.263   6.846  18.733  0.00  0.00    +0.000 F 
ATOM     14  F   UNL     1       7.859   5.710  20.551  0.00  0.00    +0.000 F 
ATOM     15  F   UNL     1       8.752   4.740  18.814  0.00  0.00    +0.000 F 
ENDBRANCH   2  12
BRANCH   1  16
ATOM     16  N   UNL     1       7.267   5.055  16.382  0.00  0.00    +0.000 N 
ATOM     17  H   UNL     1       6.875   5.423  15.510  0.00  0.00    +0.000 HD
ATOM     18  H   UNL     1       7.886   5.797  16.736  0.00  0.00    +0.000 HD
ENDBRANCH   1  16
TORSDOF 2
ENDMDL
MODEL 4
REMARK VINA RESULT:      -6.8      4.227      5.411
REMARK  Name = 
REMARK  2 active torsions:
REMARK  status: ('A' for Active; 'I' for Inactive)
REMARK    1  A    between atoms: N_1  and  N_2
REMARK    2  A    between atoms: C_3  and  C_4
REMARK                            x       y       z     vdW  Elec       q    Type
REMARK                         _______ _______ _______ _____ _____    ______ ____
ROOT
ATOM      1  N   UNL     1       6.130   4.513  17.383  0.00  0.00    +0.000 N 
ATOM      2  C   UNL     1       5.303   4.373  16.271  0.00  0.00    +0.000 A 
ATOM      3  N   UNL     1       4.005   4.285  16.387  0.00  0.00    +0.000 NA
ATOM      4  C   UNL     1       3.425   4.302  17.661  0.00  0.00    +0.000 A 
ATOM      5  C   UNL     1       2.043   4.128  17.771  0.00  0.00    +0.000 A 
ATOM      6  C   UNL     1       1.424   4.119  19.023  0.00  0.00    +0.000 A 
ATOM      7  C   UNL     1       2.181   4.294  20.181  0.00  0.00    +0.000 A 
ATOM      8  C   UNL     1       3.560   4.477  20.084  0.00  0.00    +0.000 A 
ATOM      9  C   UNL     1       4.170   4.476  18.825  0.00  0.00    +0.000 A 
ATOM     10  C   UNL     1       5.628   4.629  18.685  0.00  0.00    +0.000 A 
ATOM     11  O   UNL     1       6.332   4.849  19.667  0.00  0.00    +0.000 OA
ENDROOT
BRANCH   2  12
ATOM     12  C   UNL     1       5.914   4.343  14.861  0.00  0.00    +0.000 C 
ATOM     13  F   UNL     1       6.721   5.397  14.550  0.00  0.00    +0.000 F 
ATOM     14  F   UNL     1       6.651   3.218  14.642  0.00  0.00    +0.000 F 
ATOM     15  F   UNL     1       4.941   4.351  13.903  0.00  0.00    +0.000 F 
ENDBRANCH   2  12
BRANCH   1  16
ATOM     16  N   UNL     1       7.549   4.472  17.278  0.00  0.00    +0.000 N 
ATOM     17  H   UNL     1       7.917   3.679  17.812  0.00  0.00    +0.000 HD
ATOM     18  H   UNL     1       7.766   4.260  16.295  0.00  0.00    +0.000 HD
ENDBRANCH   1  16
TORSDOF 2
ENDMDL
MODEL 5
REMARK VINA RESULT:      -6.8      3.490      4.772
REMARK  Name = 
REMARK  2 active torsions:
REMARK  status: ('A' for Active; 'I' for Inactive)
REMARK    1  A    between atoms: N_1  and  N_2
REMARK    2  A    between atoms: C_3  and  C_4
REMARK                            x       y       z     vdW  Elec       q    Type
REMARK                         _______ _______ _______ _____ _____    ______ ____
ROOT
ATOM      1  N   UNL     1       5.478   4.334  18.348  0.00  0.00    +0.000 N 
ATOM      2  C   UNL     1       4.834   5.178  17.447  0.00  0.00    +0.000 A 
ATOM      3  N   UNL     1       3.537   5.157  17.291  0.00  0.00    +0.000 NA
ATOM      4  C   UNL     1       2.771   4.244  18.025  0.00  0.00    +0.000 A 
ATOM      5  C   UNL     1       1.395   4.180  17.789  0.00  0.00    +0.000 A 
ATOM      6  C   UNL     1       0.595   3.271  18.484  0.00  0.00    +0.000 A 
ATOM      7  C   UNL     1       1.162   2.420  19.432  0.00  0.00    +0.000 A 
ATOM      8  C   UNL     1       2.532   2.478  19.683  0.00  0.00    +0.000 A 
ATOM      9  C   UNL     1       3.325   3.388  18.975  0.00  0.00    +0.000 A 
ATOM     10  C   UNL     1       4.781   3.454  19.185  0.00  0.00    +0.000 A 
ATOM     11  O   UNL     1       5.320   2.772  20.052  0.00  0.00    +0.000 OA
ENDROOT
BRANCH   2  12
ATOM     12  C   UNL     1       5.652   6.185  16.622  0.00  0.00    +0.000 C 
ATOM     13  F   UNL     1       6.337   7.116  17.346  0.00  0.00    +0.000 F 
ATOM     14  F   UNL     1       6.567   5.573  15.821  0.00  0.00    +0.000 F 
ATOM     15  F   UNL     1       4.846   6.911  15.791  0.00  0.00    +0.000 F 
ENDBRANCH   2  12
BRANCH   1  16
ATOM     16  N   UNL     1       6.897   4.254  18.425  0.00  0.00    +0.000 N 
ATOM     17  H   UNL     1       7.264   5.048  18.958  0.00  0.00    +0.000 HD
ATOM     18  H   UNL     1       7.115   3.423  18.991  0.00  0.00    +0.000 HD
ENDBRANCH   1  16
TORSDOF 2
ENDMDL
MODEL 6
REMARK VINA RESULT:      -6.7      2.280      3.047
REMARK  Name = 
REMARK  2 active torsions:
REMARK  status: ('A' for Active; 'I' for Inactive)
REMARK    1  A    between atoms: N_1  and  N_2
REMARK    2  A    between atoms: C_3  and  C_4
REMARK                            x       y       z     vdW  Elec       q    Type
REMARK                         _______ _______ _______ _____ _____    ______ ____
ROOT
ATOM      1  N   UNL     1       2.089   4.792  19.428  0.00  0.00    +0.000 N 
ATOM      2  C   UNL     1       2.336   3.543  18.863  0.00  0.00    +0.000 A 
ATOM      3  N   UNL     1       3.190   3.387  17.887  0.00  0.00    +0.000 NA
ATOM      4  C   UNL     1       3.856   4.504  17.369  0.00  0.00    +0.000 A 
ATOM      5  C   UNL     1       4.706   4.331  16.274  0.00  0.00    +0.000 A 
ATOM      6  C   UNL     1       5.377   5.420  15.714  0.00  0.00    +0.000 A 
ATOM      7  C   UNL     1       5.211   6.697  16.250  0.00  0.00    +0.000 A 
ATOM      8  C   UNL     1       4.372   6.882  17.348  0.00  0.00    +0.000 A 
ATOM      9  C   UNL     1       3.700   5.784  17.896  0.00  0.00    +0.000 A 
ATOM     10  C   UNL     1       2.777   5.946  19.032  0.00  0.00    +0.000 A 
ATOM     11  O   UNL     1       2.645   7.037  19.581  0.00  0.00    +0.000 OA
ENDROOT
BRANCH   2  12
ATOM     12  C   UNL     1       1.612   2.301  19.406  0.00  0.00    +0.000 C 
ATOM     13  F   UNL     1       1.613   2.168  20.763  0.00  0.00    +0.000 F 
ATOM     14  F   UNL     1       0.308   2.253  19.017  0.00  0.00    +0.000 F 
ATOM     15  F   UNL     1       2.189   1.153  18.941  0.00  0.00    +0.000 F 
ENDBRANCH   2  12
BRANCH   1  16
ATOM     16  N   UNL     1       1.065   4.994  20.395  0.00  0.00    +0.000 N 
ATOM     17  H   UNL     1       0.218   4.489  20.118  0.00  0.00    +0.000 HD
ATOM     18  H   UNL     1       1.382   4.537  21.261  0.00  0.00    +0.000 HD
ENDBRANCH   1  16
TORSDOF 2
ENDMDL
MODEL 7
REMARK VINA RESULT:      -6.6      3.190      4.710
REMARK  Name = 
REMARK  2 active torsions:
REMARK  status: ('A' for Active; 'I' for Inactive)
REMARK    1  A    between atoms: N_1  and  N_2
REMARK    2  A    between atoms: C_3  and  C_4
REMARK                            x       y       z     vdW  Elec       q    Type
REMARK                         _______ _______ _______ _____ _____    ______ ____
ROOT
ATOM      1  N   UNL     1       4.784   3.885  17.271  0.00  0.00    +0.000 N 
ATOM      2  C   UNL     1       4.883   5.244  17.558  0.00  0.00    +0.000 A 
ATOM      3  N   UNL     1       4.112   5.819  18.442  0.00  0.00    +0.000 NA
ATOM      4  C   UNL     1       3.136   5.060  19.100  0.00  0.00    +0.000 A 
ATOM      5  C   UNL     1       2.268   5.706  19.984  0.00  0.00    +0.000 A 
ATOM      6  C   UNL     1       1.269   4.993  20.649  0.00  0.00    +0.000 A 
ATOM      7  C   UNL     1       1.132   3.620  20.444  0.00  0.00    +0.000 A 
ATOM      8  C   UNL     1       1.997   2.962  19.571  0.00  0.00    +0.000 A 
ATOM      9  C   UNL     1       2.990   3.689  18.905  0.00  0.00    +0.000 A 
ATOM     10  C   UNL     1       3.899   3.036  17.947  0.00  0.00    +0.000 A 
ATOM     11  O   UNL     1       3.862   1.820  17.779  0.00  0.00    +0.000 OA
ENDROOT
BRANCH   2  12
ATOM     12  C   UNL     1       5.939   6.102  16.843  0.00  0.00    +0.000 C 
ATOM     13  F   UNL     1       7.224   5.656  16.945  0.00  0.00    +0.000 F 
ATOM     14  F   UNL     1       5.683   6.232  15.511  0.00  0.00    +0.000 F 
ATOM     15  F   UNL     1       5.968   7.371  17.348  0.00  0.00    +0.000 F 
ENDBRANCH   2  12
BRANCH   1  16
ATOM     16  N   UNL     1       5.523   3.280  16.216  0.00  0.00    +0.000 N 
ATOM     17  H   UNL     1       5.792   2.327  16.478  0.00  0.00    +0.000 HD
ATOM     18  H   UNL     1       4.873   3.171  15.425  0.00  0.00    +0.000 HD
ENDBRANCH   1  16
TORSDOF 2
ENDMDL
MODEL 8
REMARK VINA RESULT:      -6.6      3.887      5.387
REMARK  Name = 
REMARK  2 active torsions:
REMARK  status: ('A' for Active; 'I' for Inactive)
REMARK    1  A    between atoms: N_1  and  N_2
REMARK    2  A    between atoms: C_3  and  C_4
REMARK                            x       y       z     vdW  Elec       q    Type
REMARK                         _______ _______ _______ _____ _____    ______ ____
ROOT
ATOM      1  N   UNL     1       4.840   6.007  17.859  0.00  0.00    +0.000 N 
ATOM      2  C   UNL     1       5.808   5.050  18.151  0.00  0.00    +0.000 A 
ATOM      3  N   UNL     1       5.543   4.006  18.891  0.00  0.00    +0.000 NA
ATOM      4  C   UNL     1       4.261   3.856  19.434  0.00  0.00    +0.000 A 
ATOM      5  C   UNL     1       4.017   2.777  20.287  0.00  0.00    +0.000 A 
ATOM      6  C   UNL     1       2.758   2.597  20.866  0.00  0.00    +0.000 A 
ATOM      7  C   UNL     1       1.726   3.493  20.589  0.00  0.00    +0.000 A 
ATOM      8  C   UNL     1       1.954   4.570  19.733  0.00  0.00    +0.000 A 
ATOM      9  C   UNL     1       3.221   4.743  19.165  0.00  0.00    +0.000 A 
ATOM     10  C   UNL     1       3.511   5.888  18.286  0.00  0.00    +0.000 A 
ATOM     11  O   UNL     1       2.621   6.669  17.961  0.00  0.00    +0.000 OA
ENDROOT
BRANCH   2  12
ATOM     12  C   UNL     1       7.226   5.195  17.575  0.00  0.00    +0.000 C 
ATOM     13  F   UNL     1       7.299   5.298  16.217  0.00  0.00    +0.000 F 
ATOM     14  F   UNL     1       7.878   6.280  18.077  0.00  0.00    +0.000 F 
ATOM     15  F   UNL     1       7.997   4.111  17.887  0.00  0.00    +0.000 F 
ENDBRANCH   2  12
BRANCH   1  16
ATOM     16  N   UNL     1       5.153   7.213  17.171  0.00  0.00    +0.000 N 
ATOM     17  H   UNL     1       6.062   7.125  16.708  0.00  0.00    +0.000 HD
ATOM     18  H   UNL     1       4.468   7.304  16.409  0.00  0.00    +0.000 HD
ENDBRANCH   1  16
TORSDOF 2
ENDMDL
MODEL 9
REMARK VINA RESULT:      -6.6      1.634      1.854
REMARK  Name = 
REMARK  2 active torsions:
REMARK  status: ('A' for Active; 'I' for Inactive)
REMARK    1  A    between atoms: N_1  and  N_2
REMARK    2  A    between atoms: C_3  and  C_4
REMARK                            x       y       z     vdW  Elec       q    Type
REMARK                         _______ _______ _______ _____ _____    ______ ____
ROOT
ATOM      1  N   UNL     1       2.256   2.969  18.658  0.00  0.00    +0.000 N 
ATOM      2  C   UNL     1       2.715   3.504  19.859  0.00  0.00    +0.000 A 
ATOM      3  N   UNL     1       3.851   4.145  19.937  0.00  0.00    +0.000 NA
ATOM      4  C   UNL     1       4.647   4.275  18.793  0.00  0.00    +0.000 A 
ATOM      5  C   UNL     1       5.894   4.894  18.911  0.00  0.00    +0.000 A 
ATOM      6  C   UNL     1       6.730   5.029  17.801  0.00  0.00    +0.000 A 
ATOM      7  C   UNL     1       6.322   4.553  16.555  0.00  0.00    +0.000 A 
ATOM      8  C   UNL     1       5.077   3.941  16.422  0.00  0.00    +0.000 A 
ATOM      9  C   UNL     1       4.251   3.805  17.543  0.00  0.00    +0.000 A 
ATOM     10  C   UNL     1       2.945   3.132  17.450  0.00  0.00    +0.000 A 
ATOM     11  O   UNL     1       2.512   2.752  16.365  0.00  0.00    +0.000 OA
ENDROOT
BRANCH   2  12
ATOM     12  C   UNL     1       1.865   3.368  21.133  0.00  0.00    +0.000 C 
ATOM     13  F   UNL     1       1.631   2.090  21.548  0.00  0.00    +0.000 F 
ATOM     14  F   UNL     1       2.416   4.021  22.193  0.00  0.00    +0.000 F 
ATOM     15  F   UNL     1       0.624   3.912  20.957  0.00  0.00    +0.000 F 
ENDBRANCH   2  12
BRANCH   1  16
ATOM     16  N   UNL     1       1.091   2.155  18.591  0.00  0.00    +0.000 N 
ATOM     17  H   UNL     1       0.595   2.179  19.487  0.00  0.00    +0.000 HD
ATOM     18  H   UNL     1       0.456   2.602  17.917  0.00  0.00    +0.000 HD
ENDBRANCH   1  16
TORSDOF 2
ENDMDL
