MODEL 1
REMARK VINA RESULT:      -9.4      0.000      0.000
REMARK  Name = 
REMARK  9 active torsions:
REMARK  status: ('A' for Active; 'I' for Inactive)
REMARK    1  A    between atoms: C_1  and  C_2
REMARK    2  A    between atoms: C_6  and  C_7
REMARK    3  A    between atoms: C_7  and  N_8
REMARK    4  A    between atoms: C_9  and  S_10
REMARK    5  A    between atoms: S_10  and  C_11
REMARK    6  A    between atoms: C_11  and  C_12
REMARK    7  A    between atoms: C_15  and  C_16
REMARK    8  A    between atoms: N_18  and  C_19
REMARK    9  A    between atoms: C_19  and  C_20
REMARK                            x       y       z     vdW  Elec       q    Type
REMARK                         _______ _______ _______ _____ _____    ______ ____
ROOT
ATOM      1  C   UNL     1       8.416   9.292  17.832  0.00  0.00    +0.000 C 
ENDROOT
BRANCH   1   2
ATOM      2  C   UNL     1       7.645   7.985  17.932  0.00  0.00    +0.000 A 
ATOM      3  C   UNL     1       6.475   7.820  17.172  0.00  0.00    +0.000 A 
ATOM      4  C   UNL     1       5.782   6.599  17.165  0.00  0.00    +0.000 A 
ATOM      5  C   UNL     1       6.249   5.522  17.924  0.00  0.00    +0.000 A 
ATOM      6  C   UNL     1       7.425   5.661  18.653  0.00  0.00    +0.000 A 
ATOM      7  C   UNL     1       8.107   6.876  18.651  0.00  0.00    +0.000 A 
BRANCH   5   8
ATOM      8  C   UNL     1       5.515   4.227  17.903  0.00  0.00    +0.000 C 
ATOM      9  O   UNL     1       5.094   3.773  16.845  0.00  0.00    +0.000 OA
ATOM     10  N   UNL     1       5.339   3.619  19.127  0.00  0.00    +0.000 N 
ATOM     11  H   UNL     1       5.538   4.130  19.975  0.00  0.00    +0.000 HD
BRANCH  10  12
ATOM     12  C   UNL     1       4.638   2.366  19.270  0.00  0.00    +0.000 C 
BRANCH  12  13
ATOM     13  C   UNL     1       3.176   2.565  19.551  0.00  0.00    +0.000 A 
ATOM     14  C   UNL     1       2.746   3.021  20.806  0.00  0.00    +0.000 A 
ATOM     15  C   UNL     1       1.386   3.217  21.061  0.00  0.00    +0.000 A 
ATOM     16  C   UNL     1       0.441   2.953  20.071  0.00  0.00    +0.000 A 
ATOM     17  C   UNL     1       0.856   2.481  18.826  0.00  0.00    +0.000 A 
ATOM     18  C   UNL     1       2.213   2.288  18.578  0.00  0.00    +0.000 A 
ATOM     19  F   UNL     1       2.591   1.827  17.377  0.00  0.00    +0.000 F 
ENDBRANCH  12  13
ENDBRANCH  10  12
ENDBRANCH   5   8
ENDBRANCH   1   2
BRANCH   1  20
ATOM     20  S   UNL     1       9.212   9.908  19.342  0.00  0.00    +0.000 S 
BRANCH  20  22
ATOM     21  N   UNL     1      10.419  12.324  19.722  0.00  0.00    +0.000 N 
ATOM     22  C   UNL     1       9.903  11.414  18.832  0.00  0.00    +0.000 A 
ATOM     23  N   UNL     1      10.120  11.777  17.587  0.00  0.00    +0.000 NA
ATOM     24  C   UNL     1      10.799  12.971  17.664  0.00  0.00    +0.000 A 
ATOM     25  C   UNL     1      11.302  13.784  16.647  0.00  0.00    +0.000 A 
ATOM     26  C   UNL     1      11.919  14.955  17.059  0.00  0.00    +0.000 A 
ATOM     27  N   UNL     1      12.071  15.338  18.349  0.00  0.00    +0.000 NA
ATOM     28  C   UNL     1      11.609  14.538  19.335  0.00  0.00    +0.000 A 
ATOM     29  C   UNL     1      10.981  13.349  18.989  0.00  0.00    +0.000 A 
BRANCH  21  30
ATOM     30  C   UNL     1      10.480  12.207  21.173  0.00  0.00    +0.000 C 
BRANCH  30  36
ATOM     31  C   UNL     1       7.816  16.045  23.079  0.00  0.00    +0.000 C 
ATOM     32  C   UNL     1       7.967  14.572  22.842  0.00  0.00    +0.000 A 
ATOM     33  C   UNL     1       7.054  13.649  23.354  0.00  0.00    +0.000 A 
ATOM     34  C   UNL     1       7.234  12.284  23.140  0.00  0.00    +0.000 A 
ATOM     35  C   UNL     1       8.330  11.830  22.411  0.00  0.00    +0.000 A 
ATOM     36  C   UNL     1       9.251  12.740  21.871  0.00  0.00    +0.000 A 
ATOM     37  C   UNL     1       9.059  14.109  22.102  0.00  0.00    +0.000 A 
ENDBRANCH  30  36
ENDBRANCH  21  30
ENDBRANCH  20  22
ENDBRANCH   1  20
TORSDOF 8
ENDMDL
MODEL 2
REMARK VINA RESULT:      -8.7      7.369     11.119
REMARK  Name = 
REMARK  9 active torsions:
REMARK  status: ('A' for Active; 'I' for Inactive)
REMARK    1  A    between atoms: C_1  and  C_2
REMARK    2  A    between atoms: C_6  and  C_7
REMARK    3  A    between atoms: C_7  and  N_8
REMARK    4  A    between atoms: C_9  and  S_10
REMARK    5  A    between atoms: S_10  and  C_11
REMARK    6  A    between atoms: C_11  and  C_12
REMARK    7  A    between atoms: C_15  and  C_16
REMARK    8  A    between atoms: N_18  and  C_19
REMARK    9  A    between atoms: C_19  and  C_20
REMARK                            x       y       z     vdW  Elec       q    Type
REMARK                         _______ _______ _______ _____ _____    ______ ____
ROOT
ATOM      1  C   UNL     1       2.139   9.220  18.120  0.00  0.00    +0.000 C 
ENDROOT
BRANCH   1   2
ATOM      2  C   UNL     1       0.862  10.017  18.332  0.00  0.00    +0.000 A 
ATOM      3  C   UNL     1      -0.344   9.537  17.792  0.00  0.00    +0.000 A 
ATOM      4  C   UNL     1      -1.559  10.194  18.039  0.00  0.00    +0.000 A 
ATOM      5  C   UNL     1      -1.588  11.347  18.829  0.00  0.00    +0.000 A 
ATOM      6  C   UNL     1      -0.407  11.812  19.398  0.00  0.00    +0.000 A 
ATOM      7  C   UNL     1       0.795  11.152  19.150  0.00  0.00    +0.000 A 
BRANCH   5   8
ATOM      8  C   UNL     1      -2.883  12.031  19.095  0.00  0.00    +0.000 C 
ATOM      9  O   UNL     1      -3.031  12.698  20.112  0.00  0.00    +0.000 OA
ATOM     10  N   UNL     1      -3.865  11.840  18.148  0.00  0.00    +0.000 N 
ATOM     11  H   UNL     1      -3.747  11.132  17.437  0.00  0.00    +0.000 HD
BRANCH  10  12
ATOM     12  C   UNL     1      -5.177  12.429  18.271  0.00  0.00    +0.000 C 
BRANCH  12  13
ATOM     13  C   UNL     1      -6.089  11.604  19.133  0.00  0.00    +0.000 A 
ATOM     14  C   UNL     1      -6.410  10.286  18.777  0.00  0.00    +0.000 A 
ATOM     15  C   UNL     1      -7.248   9.516  19.587  0.00  0.00    +0.000 A 
ATOM     16  C   UNL     1      -7.781  10.055  20.757  0.00  0.00    +0.000 A 
ATOM     17  C   UNL     1      -7.485  11.371  21.112  0.00  0.00    +0.000 A 
ATOM     18  C   UNL     1      -6.648  12.132  20.299  0.00  0.00    +0.000 A 
ATOM     19  F   UNL     1      -6.378  13.397  20.655  0.00  0.00    +0.000 F 
ENDBRANCH  12  13
ENDBRANCH  10  12
ENDBRANCH   5   8
ENDBRANCH   1   2
BRANCH   1  20
ATOM     20  S   UNL     1       2.266   7.611  18.951  0.00  0.00    +0.000 S 
BRANCH  20  22
ATOM     21  N   UNL     1       3.312   5.464  17.632  0.00  0.00    +0.000 N 
ATOM     22  C   UNL     1       3.458   6.778  18.006  0.00  0.00    +0.000 A 
ATOM     23  N   UNL     1       4.522   7.323  17.457  0.00  0.00    +0.000 NA
ATOM     24  C   UNL     1       5.095   6.328  16.699  0.00  0.00    +0.000 A 
ATOM     25  C   UNL     1       6.227   6.362  15.884  0.00  0.00    +0.000 A 
ATOM     26  C   UNL     1       6.565   5.167  15.269  0.00  0.00    +0.000 A 
ATOM     27  N   UNL     1       5.878   4.008  15.397  0.00  0.00    +0.000 NA
ATOM     28  C   UNL     1       4.766   3.981  16.164  0.00  0.00    +0.000 A 
ATOM     29  C   UNL     1       4.371   5.146  16.807  0.00  0.00    +0.000 A 
BRANCH  21  30
ATOM     30  C   UNL     1       2.199   4.576  17.939  0.00  0.00    +0.000 C 
BRANCH  30  36
ATOM     31  C   UNL     1       4.712   1.489  21.040  0.00  0.00    +0.000 C 
ATOM     32  C   UNL     1       3.513   2.346  20.767  0.00  0.00    +0.000 A 
ATOM     33  C   UNL     1       2.447   2.425  21.666  0.00  0.00    +0.000 A 
ATOM     34  C   UNL     1       1.333   3.209  21.374  0.00  0.00    +0.000 A 
ATOM     35  C   UNL     1       1.275   3.921  20.178  0.00  0.00    +0.000 A 
ATOM     36  C   UNL     1       2.341   3.871  19.268  0.00  0.00    +0.000 A 
ATOM     37  C   UNL     1       3.451   3.072  19.575  0.00  0.00    +0.000 A 
ENDBRANCH  30  36
ENDBRANCH  21  30
ENDBRANCH  20  22
ENDBRANCH   1  20
TORSDOF 8
ENDMDL
MODEL 3
REMARK VINA RESULT:      -8.7      8.679     11.047
REMARK  Name = 
REMARK  9 active torsions:
REMARK  status: ('A' for Active; 'I' for Inactive)
REMARK    1  A    between atoms: C_1  and  C_2
REMARK    2  A    between atoms: C_6  and  C_7
REMARK    3  A    between atoms: C_7  and  N_8
REMARK    4  A    between atoms: C_9  and  S_10
REMARK    5  A    between atoms: S_10  and  C_11
REMARK    6  A    between atoms: C_11  and  C_12
REMARK    7  A    between atoms: C_15  and  C_16
REMARK    8  A    between atoms: N_18  and  C_19
REMARK    9  A    between atoms: C_19  and  C_20
REMARK                            x       y       z     vdW  Elec       q    Type
REMARK                         _______ _______ _______ _____ _____    ______ ____
ROOT
ATOM      1  C   UNL     1       0.430  11.998  18.836  0.00  0.00    +0.000 C 
ENDROOT
BRANCH   1   2
ATOM      2  C   UNL     1       1.058  10.616  18.917  0.00  0.00    +0.000 A 
ATOM      3  C   UNL     1       0.826   9.822  20.053  0.00  0.00    +0.000 A 
ATOM      4  C   UNL     1       1.312   8.508  20.130  0.00  0.00    +0.000 A 
ATOM      5  C   UNL     1       2.045   7.966  19.070  0.00  0.00    +0.000 A 
ATOM      6  C   UNL     1       2.252   8.729  17.925  0.00  0.00    +0.000 A 
ATOM      7  C   UNL     1       1.763  10.032  17.857  0.00  0.00    +0.000 A 
BRANCH   5   8
ATOM      8  C   UNL     1       2.548   6.568  19.155  0.00  0.00    +0.000 C 
ATOM      9  O   UNL     1       2.704   6.033  20.247  0.00  0.00    +0.000 OA
ATOM     10  N   UNL     1       2.829   5.959  17.951  0.00  0.00    +0.000 N 
ATOM     11  H   UNL     1       2.862   6.510  17.105  0.00  0.00    +0.000 HD
BRANCH  10  12
ATOM     12  C   UNL     1       3.335   4.610  17.871  0.00  0.00    +0.000 C 
BRANCH  12  13
ATOM     13  C   UNL     1       4.757   4.566  17.390  0.00  0.00    +0.000 A 
ATOM     14  C   UNL     1       5.051   4.228  16.061  0.00  0.00    +0.000 A 
ATOM     15  C   UNL     1       6.373   4.200  15.612  0.00  0.00    +0.000 A 
ATOM     16  C   UNL     1       7.417   4.501  16.485  0.00  0.00    +0.000 A 
ATOM     17  C   UNL     1       7.139   4.819  17.814  0.00  0.00    +0.000 A 
ATOM     18  C   UNL     1       5.818   4.846  18.255  0.00  0.00    +0.000 A 
ATOM     19  F   UNL     1       5.570   5.149  19.538  0.00  0.00    +0.000 F 
ENDBRANCH  12  13
ENDBRANCH  10  12
ENDBRANCH   5   8
ENDBRANCH   1   2
BRANCH   1  20
ATOM     20  S   UNL     1      -0.640  12.510  20.210  0.00  0.00    +0.000 S 
BRANCH  20  22
ATOM     21  N   UNL     1      -3.348  12.825  20.111  0.00  0.00    +0.000 N 
ATOM     22  C   UNL     1      -2.234  12.208  19.596  0.00  0.00    +0.000 A 
ATOM     23  N   UNL     1      -2.524  11.492  18.532  0.00  0.00    +0.000 NA
ATOM     24  C   UNL     1      -3.879  11.641  18.347  0.00  0.00    +0.000 A 
ATOM     25  C   UNL     1      -4.710  11.123  17.352  0.00  0.00    +0.000 A 
ATOM     26  C   UNL     1      -6.055  11.437  17.465  0.00  0.00    +0.000 A 
ATOM     27  N   UNL     1      -6.593  12.204  18.442  0.00  0.00    +0.000 NA
ATOM     28  C   UNL     1      -5.785  12.729  19.390  0.00  0.00    +0.000 A 
ATOM     29  C   UNL     1      -4.425  12.453  19.334  0.00  0.00    +0.000 A 
BRANCH  21  30
ATOM     30  C   UNL     1      -3.401  13.786  21.203  0.00  0.00    +0.000 C 
BRANCH  30  36
ATOM     31  C   UNL     1      -7.495  13.401  24.128  0.00  0.00    +0.000 C 
ATOM     32  C   UNL     1      -6.046  13.096  23.891  0.00  0.00    +0.000 A 
ATOM     33  C   UNL     1      -5.271  12.428  24.841  0.00  0.00    +0.000 A 
ATOM     34  C   UNL     1      -3.920  12.181  24.604  0.00  0.00    +0.000 A 
ATOM     35  C   UNL     1      -3.332  12.601  23.414  0.00  0.00    +0.000 A 
ATOM     36  C   UNL     1      -4.094  13.258  22.437  0.00  0.00    +0.000 A 
ATOM     37  C   UNL     1      -5.451  13.504  22.694  0.00  0.00    +0.000 A 
ENDBRANCH  30  36
ENDBRANCH  21  30
ENDBRANCH  20  22
ENDBRANCH   1  20
TORSDOF 8
ENDMDL
MODEL 4
REMARK VINA RESULT:      -8.6      7.632     11.322
REMARK  Name = 
REMARK  9 active torsions:
REMARK  status: ('A' for Active; 'I' for Inactive)
REMARK    1  A    between atoms: C_1  and  C_2
REMARK    2  A    between atoms: C_6  and  C_7
REMARK    3  A    between atoms: C_7  and  N_8
REMARK    4  A    between atoms: C_9  and  S_10
REMARK    5  A    between atoms: S_10  and  C_11
REMARK    6  A    between atoms: C_11  and  C_12
REMARK    7  A    between atoms: C_15  and  C_16
REMARK    8  A    between atoms: N_18  and  C_19
REMARK    9  A    between atoms: C_19  and  C_20
REMARK                            x       y       z     vdW  Elec       q    Type
REMARK                         _______ _______ _______ _____ _____    ______ ____
ROOT
ATOM      1  C   UNL     1       1.271   8.751  17.678  0.00  0.00    +0.000 C 
ENDROOT
BRANCH   1   2
ATOM      2  C   UNL     1       0.575   9.518  18.791  0.00  0.00    +0.000 A 
ATOM      3  C   UNL     1       0.900   9.231  20.128  0.00  0.00    +0.000 A 
ATOM      4  C   UNL     1       0.349   9.975  21.183  0.00  0.00    +0.000 A 
ATOM      5  C   UNL     1      -0.542  11.020  20.916  0.00  0.00    +0.000 A 
ATOM      6  C   UNL     1      -0.844  11.336  19.596  0.00  0.00    +0.000 A 
ATOM      7  C   UNL     1      -0.290  10.594  18.556  0.00  0.00    +0.000 A 
BRANCH   5   8
ATOM      8  C   UNL     1      -1.113  11.811  22.040  0.00  0.00    +0.000 C 
ATOM      9  O   UNL     1      -0.481  11.952  23.080  0.00  0.00    +0.000 OA
ATOM     10  N   UNL     1      -2.370  12.333  21.824  0.00  0.00    +0.000 N 
ATOM     11  H   UNL     1      -2.913  12.026  21.030  0.00  0.00    +0.000 HD
BRANCH  10  12
ATOM     12  C   UNL     1      -3.060  13.113  22.823  0.00  0.00    +0.000 C 
BRANCH  12  13
ATOM     13  C   UNL     1      -4.515  13.293  22.496  0.00  0.00    +0.000 A 
ATOM     14  C   UNL     1      -5.096  12.600  21.424  0.00  0.00    +0.000 A 
ATOM     15  C   UNL     1      -6.452  12.758  21.128  0.00  0.00    +0.000 A 
ATOM     16  C   UNL     1      -7.241  13.616  21.893  0.00  0.00    +0.000 A 
ATOM     17  C   UNL     1      -6.670  14.325  22.949  0.00  0.00    +0.000 A 
ATOM     18  C   UNL     1      -5.318  14.161  23.239  0.00  0.00    +0.000 A 
ATOM     19  F   UNL     1      -4.785  14.857  24.255  0.00  0.00    +0.000 F 
ENDBRANCH  12  13
ENDBRANCH  10  12
ENDBRANCH   5   8
ENDBRANCH   1   2
BRANCH   1  20
ATOM     20  S   UNL     1       2.926   8.093  18.025  0.00  0.00    +0.000 S 
BRANCH  20  22
ATOM     21  N   UNL     1       3.449   5.461  17.539  0.00  0.00    +0.000 N 
ATOM     22  C   UNL     1       2.647   6.387  18.161  0.00  0.00    +0.000 A 
ATOM     23  N   UNL     1       1.760   5.813  18.944  0.00  0.00    +0.000 NA
ATOM     24  C   UNL     1       1.986   4.461  18.827  0.00  0.00    +0.000 A 
ATOM     25  C   UNL     1       1.353   3.389  19.458  0.00  0.00    +0.000 A 
ATOM     26  C   UNL     1       1.799   2.128  19.098  0.00  0.00    +0.000 A 
ATOM     27  N   UNL     1       2.790   1.880  18.209  0.00  0.00    +0.000 NA
ATOM     28  C   UNL     1       3.422   2.919  17.619  0.00  0.00    +0.000 A 
ATOM     29  C   UNL     1       3.023   4.210  17.937  0.00  0.00    +0.000 A 
BRANCH  21  30
ATOM     30  C   UNL     1       4.610   5.717  16.700  0.00  0.00    +0.000 C 
BRANCH  30  36
ATOM     31  C   UNL     1       8.290   8.999  17.772  0.00  0.00    +0.000 C 
ATOM     32  C   UNL     1       7.659   7.656  17.982  0.00  0.00    +0.000 A 
ATOM     33  C   UNL     1       8.245   6.689  18.802  0.00  0.00    +0.000 A 
ATOM     34  C   UNL     1       7.649   5.439  18.958  0.00  0.00    +0.000 A 
ATOM     35  C   UNL     1       6.460   5.144  18.295  0.00  0.00    +0.000 A 
ATOM     36  C   UNL     1       5.844   6.106  17.481  0.00  0.00    +0.000 A 
ATOM     37  C   UNL     1       6.460   7.356  17.329  0.00  0.00    +0.000 A 
ENDBRANCH  30  36
ENDBRANCH  21  30
ENDBRANCH  20  22
ENDBRANCH   1  20
TORSDOF 8
ENDMDL
MODEL 5
REMARK VINA RESULT:      -8.5      3.959     10.445
REMARK  Name = 
REMARK  9 active torsions:
REMARK  status: ('A' for Active; 'I' for Inactive)
REMARK    1  A    between atoms: C_1  and  C_2
REMARK    2  A    between atoms: C_6  and  C_7
REMARK    3  A    between atoms: C_7  and  N_8
REMARK    4  A    between atoms: C_9  and  S_10
REMARK    5  A    between atoms: S_10  and  C_11
REMARK    6  A    between atoms: C_11  and  C_12
REMARK    7  A    between atoms: C_15  and  C_16
REMARK    8  A    between atoms: N_18  and  C_19
REMARK    9  A    between atoms: C_19  and  C_20
REMARK                            x       y       z     vdW  Elec       q    Type
REMARK                         _______ _______ _______ _____ _____    ______ ____
ROOT
ATOM      1  C   UNL     1       6.462   5.201  17.229  0.00  0.00    +0.000 C 
ENDROOT
BRANCH   1   2
ATOM      2  C   UNL     1       7.209   6.454  17.657  0.00  0.00    +0.000 A 
ATOM      3  C   UNL     1       6.947   7.667  16.998  0.00  0.00    +0.000 A 
ATOM      4  C   UNL     1       7.547   8.864  17.418  0.00  0.00    +0.000 A 
ATOM      5  C   UNL     1       8.426   8.866  18.505  0.00  0.00    +0.000 A 
ATOM      6  C   UNL     1       8.668   7.678  19.188  0.00  0.00    +0.000 A 
ATOM      7  C   UNL     1       8.065   6.496  18.765  0.00  0.00    +0.000 A 
BRANCH   5   8
ATOM      8  C   UNL     1       9.051  10.141  18.951  0.00  0.00    +0.000 C 
ATOM      9  O   UNL     1       9.261  10.343  20.142  0.00  0.00    +0.000 OA
ATOM     10  N   UNL     1       9.341  11.046  17.953  0.00  0.00    +0.000 N 
ATOM     11  H   UNL     1       8.973  10.904  17.023  0.00  0.00    +0.000 HD
BRANCH  10  12
ATOM     12  C   UNL     1       9.938  12.331  18.229  0.00  0.00    +0.000 C 
BRANCH  12  13
ATOM     13  C   UNL     1       8.906  13.407  18.407  0.00  0.00    +0.000 A 
ATOM     14  C   UNL     1       9.062  14.389  19.396  0.00  0.00    +0.000 A 
ATOM     15  C   UNL     1       8.108  15.397  19.552  0.00  0.00    +0.000 A 
ATOM     16  C   UNL     1       6.983  15.432  18.729  0.00  0.00    +0.000 A 
ATOM     17  C   UNL     1       6.807  14.449  17.755  0.00  0.00    +0.000 A 
ATOM     18  C   UNL     1       7.763  13.447  17.605  0.00  0.00    +0.000 A 
ATOM     19  F   UNL     1       7.573  12.508  16.666  0.00  0.00    +0.000 F 
ENDBRANCH  12  13
ENDBRANCH  10  12
ENDBRANCH   5   8
ENDBRANCH   1   2
BRANCH   1  20
ATOM     20  S   UNL     1       4.870   5.425  16.387  0.00  0.00    +0.000 S 
BRANCH  20  22
ATOM     21  N   UNL     1       3.388   5.090  18.652  0.00  0.00    +0.000 N 
ATOM     22  C   UNL     1       3.758   4.594  17.426  0.00  0.00    +0.000 A 
ATOM     23  N   UNL     1       3.076   3.514  17.113  0.00  0.00    +0.000 NA
ATOM     24  C   UNL     1       2.231   3.292  18.176  0.00  0.00    +0.000 A 
ATOM     25  C   UNL     1       1.269   2.299  18.363  0.00  0.00    +0.000 A 
ATOM     26  C   UNL     1       0.595   2.332  19.574  0.00  0.00    +0.000 A 
ATOM     27  N   UNL     1       0.799   3.248  20.550  0.00  0.00    +0.000 NA
ATOM     28  C   UNL     1       1.711   4.226  20.358  0.00  0.00    +0.000 A 
ATOM     29  C   UNL     1       2.420   4.251  19.164  0.00  0.00    +0.000 A 
BRANCH  21  30
ATOM     30  C   UNL     1       3.831   6.329  19.276  0.00  0.00    +0.000 C 
BRANCH  30  36
ATOM     31  C   UNL     1       0.082   9.160  21.117  0.00  0.00    +0.000 C 
ATOM     32  C   UNL     1       0.999   8.813  19.983  0.00  0.00    +0.000 A 
ATOM     33  C   UNL     1       0.891   9.434  18.736  0.00  0.00    +0.000 A 
ATOM     34  C   UNL     1       1.740   9.073  17.692  0.00  0.00    +0.000 A 
ATOM     35  C   UNL     1       2.704   8.087  17.884  0.00  0.00    +0.000 A 
ATOM     36  C   UNL     1       2.843   7.462  19.133  0.00  0.00    +0.000 A 
ATOM     37  C   UNL     1       1.976   7.832  20.171  0.00  0.00    +0.000 A 
ENDBRANCH  30  36
ENDBRANCH  21  30
ENDBRANCH  20  22
ENDBRANCH   1  20
TORSDOF 8
ENDMDL
MODEL 6
REMARK VINA RESULT:      -8.5      1.201      1.585
REMARK  Name = 
REMARK  9 active torsions:
REMARK  status: ('A' for Active; 'I' for Inactive)
REMARK    1  A    between atoms: C_1  and  C_2
REMARK    2  A    between atoms: C_6  and  C_7
REMARK    3  A    between atoms: C_7  and  N_8
REMARK    4  A    between atoms: C_9  and  S_10
REMARK    5  A    between atoms: S_10  and  C_11
REMARK    6  A    between atoms: C_11  and  C_12
REMARK    7  A    between atoms: C_15  and  C_16
REMARK    8  A    between atoms: N_18  and  C_19
REMARK    9  A    between atoms: C_19  and  C_20
REMARK                            x       y       z     vdW  Elec       q    Type
REMARK                         _______ _______ _______ _____ _____    ______ ____
ROOT
ATOM      1  C   UNL     1       8.548   9.651  17.796  0.00  0.00    +0.000 C 
ENDROOT
BRANCH   1   2
ATOM      2  C   UNL     1       7.820   8.317  17.843  0.00  0.00    +0.000 A 
ATOM      3  C   UNL     1       8.313   7.295  18.673  0.00  0.00    +0.000 A 
ATOM      4  C   UNL     1       7.623   6.081  18.814  0.00  0.00    +0.000 A 
ATOM      5  C   UNL     1       6.427   5.868  18.123  0.00  0.00    +0.000 A 
ATOM      6  C   UNL     1       5.910   6.884  17.326  0.00  0.00    +0.000 A 
ATOM      7  C   UNL     1       6.601   8.087  17.194  0.00  0.00    +0.000 A 
BRANCH   5   8
ATOM      8  C   UNL     1       5.696   4.582  18.287  0.00  0.00    +0.000 C 
ATOM      9  O   UNL     1       6.136   3.711  19.029  0.00  0.00    +0.000 OA
ATOM     10  N   UNL     1       4.540   4.452  17.548  0.00  0.00    +0.000 N 
ATOM     11  H   UNL     1       4.333   5.119  16.818  0.00  0.00    +0.000 HD
BRANCH  10  12
ATOM     12  C   UNL     1       3.728   3.260  17.592  0.00  0.00    +0.000 C 
BRANCH  12  13
ATOM     13  C   UNL     1       2.840   3.225  18.802  0.00  0.00    +0.000 A 
ATOM     14  C   UNL     1       3.216   2.501  19.943  0.00  0.00    +0.000 A 
ATOM     15  C   UNL     1       2.394   2.479  21.073  0.00  0.00    +0.000 A 
ATOM     16  C   UNL     1       1.185   3.172  21.074  0.00  0.00    +0.000 A 
ATOM     17  C   UNL     1       0.791   3.880  19.938  0.00  0.00    +0.000 A 
ATOM     18  C   UNL     1       1.616   3.897  18.816  0.00  0.00    +0.000 A 
ATOM     19  F   UNL     1       1.217   4.579  17.731  0.00  0.00    +0.000 F 
ENDBRANCH  12  13
ENDBRANCH  10  12
ENDBRANCH   5   8
ENDBRANCH   1   2
BRANCH   1  20
ATOM     20  S   UNL     1       9.281  10.256  19.342  0.00  0.00    +0.000 S 
BRANCH  20  22
ATOM     21  N   UNL     1      10.348  12.732  19.757  0.00  0.00    +0.000 N 
ATOM     22  C   UNL     1      10.041  11.739  18.859  0.00  0.00    +0.000 A 
ATOM     23  N   UNL     1      10.505  12.008  17.659  0.00  0.00    +0.000 NA
ATOM     24  C   UNL     1      11.135  13.226  17.773  0.00  0.00    +0.000 A 
ATOM     25  C   UNL     1      11.825  13.971  16.816  0.00  0.00    +0.000 A 
ATOM     26  C   UNL     1      12.327  15.190  17.246  0.00  0.00    +0.000 A 
ATOM     27  N   UNL     1      12.203  15.679  18.502  0.00  0.00    +0.000 NA
ATOM     28  C   UNL     1      11.559  14.945  19.437  0.00  0.00    +0.000 A 
ATOM     29  C   UNL     1      11.034  13.713  19.071  0.00  0.00    +0.000 A 
BRANCH  21  30
ATOM     30  C   UNL     1      10.108  12.732  21.193  0.00  0.00    +0.000 C 
BRANCH  30  36
ATOM     31  C   UNL     1       9.149  16.650  24.224  0.00  0.00    +0.000 C 
ATOM     32  C   UNL     1       8.699  15.719  23.138  0.00  0.00    +0.000 A 
ATOM     33  C   UNL     1       7.408  15.778  22.608  0.00  0.00    +0.000 A 
ATOM     34  C   UNL     1       7.010  14.883  21.617  0.00  0.00    +0.000 A 
ATOM     35  C   UNL     1       7.898  13.919  21.148  0.00  0.00    +0.000 A 
ATOM     36  C   UNL     1       9.205  13.852  21.653  0.00  0.00    +0.000 A 
ATOM     37  C   UNL     1       9.588  14.756  22.654  0.00  0.00    +0.000 A 
ENDBRANCH  30  36
ENDBRANCH  21  30
ENDBRANCH  20  22
ENDBRANCH   1  20
TORSDOF 8
ENDMDL
MODEL 7
REMARK VINA RESULT:      -8.4      6.573      8.226
REMARK  Name = 
REMARK  9 active torsions:
REMARK  status: ('A' for Active; 'I' for Inactive)
REMARK    1  A    between atoms: C_1  and  C_2
REMARK    2  A    between atoms: C_6  and  C_7
REMARK    3  A    between atoms: C_7  and  N_8
REMARK    4  A    between atoms: C_9  and  S_10
REMARK    5  A    between atoms: S_10  and  C_11
REMARK    6  A    between atoms: C_11  and  C_12
REMARK    7  A    between atoms: C_15  and  C_16
REMARK    8  A    between atoms: N_18  and  C_19
REMARK    9  A    between atoms: C_19  and  C_20
REMARK                            x       y       z     vdW  Elec       q    Type
REMARK                         _______ _______ _______ _____ _____    ______ ____
ROOT
ATOM      1  C   UNL     1       1.221   8.894  19.402  0.00  0.00    +0.000 C 
ENDROOT
BRANCH   1   2
ATOM      2  C   UNL     1       2.245   7.908  18.863  0.00  0.00    +0.000 A 
ATOM      3  C   UNL     1       2.995   8.251  17.725  0.00  0.00    +0.000 A 
ATOM      4  C   UNL     1       4.012   7.410  17.248  0.00  0.00    +0.000 A 
ATOM      5  C   UNL     1       4.294   6.206  17.901  0.00  0.00    +0.000 A 
ATOM      6  C   UNL     1       3.582   5.872  19.049  0.00  0.00    +0.000 A 
ATOM      7  C   UNL     1       2.577   6.715  19.517  0.00  0.00    +0.000 A 
BRANCH   5   8
ATOM      8  C   UNL     1       5.381   5.325  17.395  0.00  0.00    +0.000 C 
ATOM      9  O   UNL     1       5.637   4.270  17.965  0.00  0.00    +0.000 OA
ATOM     10  N   UNL     1       6.059   5.787  16.288  0.00  0.00    +0.000 N 
ATOM     11  H   UNL     1       5.930   6.741  15.983  0.00  0.00    +0.000 HD
BRANCH  10  12
ATOM     12  C   UNL     1       7.145   5.051  15.688  0.00  0.00    +0.000 C 
BRANCH  12  13
ATOM     13  C   UNL     1       6.810   4.576  14.303  0.00  0.00    +0.000 A 
ATOM     14  C   UNL     1       5.701   3.745  14.082  0.00  0.00    +0.000 A 
ATOM     15  C   UNL     1       5.384   3.314  12.792  0.00  0.00    +0.000 A 
ATOM     16  C   UNL     1       6.172   3.700  11.709  0.00  0.00    +0.000 A 
ATOM     17  C   UNL     1       7.288   4.510  11.919  0.00  0.00    +0.000 A 
ATOM     18  C   UNL     1       7.599   4.936  13.208  0.00  0.00    +0.000 A 
ATOM     19  F   UNL     1       8.679   5.710  13.390  0.00  0.00    +0.000 F 
ENDBRANCH  12  13
ENDBRANCH  10  12
ENDBRANCH   5   8
ENDBRANCH   1   2
BRANCH   1  20
ATOM     20  S   UNL     1       0.296   9.880  18.191  0.00  0.00    +0.000 S 
BRANCH  20  22
ATOM     21  N   UNL     1       0.224  12.530  18.836  0.00  0.00    +0.000 N 
ATOM     22  C   UNL     1       0.968  11.467  18.384  0.00  0.00    +0.000 A 
ATOM     23  N   UNL     1       2.238  11.784  18.254  0.00  0.00    +0.000 NA
ATOM     24  C   UNL     1       2.327  13.105  18.628  0.00  0.00    +0.000 A 
ATOM     25  C   UNL     1       3.442  13.941  18.707  0.00  0.00    +0.000 A 
ATOM     26  C   UNL     1       3.192  15.247  19.096  0.00  0.00    +0.000 A 
ATOM     27  N   UNL     1       1.971  15.742  19.408  0.00  0.00    +0.000 NA
ATOM     28  C   UNL     1       0.895  14.926  19.359  0.00  0.00    +0.000 A 
ATOM     29  C   UNL     1       1.078  13.604  18.977  0.00  0.00    +0.000 A 
BRANCH  21  30
ATOM     30  C   UNL     1      -1.183  12.528  19.212  0.00  0.00    +0.000 C 
BRANCH  30  36
ATOM     31  C   UNL     1      -0.323   9.769  23.349  0.00  0.00    +0.000 C 
ATOM     32  C   UNL     1      -1.050  10.896  22.678  0.00  0.00    +0.000 A 
ATOM     33  C   UNL     1      -2.036  11.631  23.341  0.00  0.00    +0.000 A 
ATOM     34  C   UNL     1      -2.714  12.656  22.684  0.00  0.00    +0.000 A 
ATOM     35  C   UNL     1      -2.412  12.955  21.358  0.00  0.00    +0.000 A 
ATOM     36  C   UNL     1      -1.413  12.243  20.678  0.00  0.00    +0.000 A 
ATOM     37  C   UNL     1      -0.746  11.210  21.351  0.00  0.00    +0.000 A 
ENDBRANCH  30  36
ENDBRANCH  21  30
ENDBRANCH  20  22
ENDBRANCH   1  20
TORSDOF 8
ENDMDL
MODEL 8
REMARK VINA RESULT:      -8.3      6.976      9.451
REMARK  Name = 
REMARK  9 active torsions:
REMARK  status: ('A' for Active; 'I' for Inactive)
REMARK    1  A    between atoms: C_1  and  C_2
REMARK    2  A    between atoms: C_6  and  C_7
REMARK    3  A    between atoms: C_7  and  N_8
REMARK    4  A    between atoms: C_9  and  S_10
REMARK    5  A    between atoms: S_10  and  C_11
REMARK    6  A    between atoms: C_11  and  C_12
REMARK    7  A    between atoms: C_15  and  C_16
REMARK    8  A    between atoms: N_18  and  C_19
REMARK    9  A    between atoms: C_19  and  C_20
REMARK                            x       y       z     vdW  Elec       q    Type
REMARK                         _______ _______ _______ _____ _____    ______ ____
ROOT
ATOM      1  C   UNL     1       1.303   9.039  19.517  0.00  0.00    +0.000 C 
ENDROOT
BRANCH   1   2
ATOM      2  C   UNL     1       2.137   7.855  19.055  0.00  0.00    +0.000 A 
ATOM      3  C   UNL     1       2.897   7.969  17.878  0.00  0.00    +0.000 A 
ATOM      4  C   UNL     1       3.750   6.935  17.463  0.00  0.00    +0.000 A 
ATOM      5  C   UNL     1       3.853   5.763  18.219  0.00  0.00    +0.000 A 
ATOM      6  C   UNL     1       3.132   5.651  19.404  0.00  0.00    +0.000 A 
ATOM      7  C   UNL     1       2.291   6.685  19.809  0.00  0.00    +0.000 A 
BRANCH   5   8
ATOM      8  C   UNL     1       4.767   4.674  17.777  0.00  0.00    +0.000 C 
ATOM      9  O   UNL     1       5.382   4.011  18.604  0.00  0.00    +0.000 OA
ATOM     10  N   UNL     1       4.872   4.498  16.415  0.00  0.00    +0.000 N 
ATOM     11  H   UNL     1       4.493   5.193  15.787  0.00  0.00    +0.000 HD
BRANCH  10  12
ATOM     12  C   UNL     1       5.727   3.491  15.833  0.00  0.00    +0.000 C 
BRANCH  12  13
ATOM     13  C   UNL     1       6.294   3.924  14.512  0.00  0.00    +0.000 A 
ATOM     14  C   UNL     1       5.918   3.276  13.326  0.00  0.00    +0.000 A 
ATOM     15  C   UNL     1       6.437   3.690  12.097  0.00  0.00    +0.000 A 
ATOM     16  C   UNL     1       7.343   4.747  12.037  0.00  0.00    +0.000 A 
ATOM     17  C   UNL     1       7.740   5.386  13.212  0.00  0.00    +0.000 A 
ATOM     18  C   UNL     1       7.217   4.970  14.434  0.00  0.00    +0.000 A 
ATOM     19  F   UNL     1       7.615   5.593  15.553  0.00  0.00    +0.000 F 
ENDBRANCH  12  13
ENDBRANCH  10  12
ENDBRANCH   5   8
ENDBRANCH   1   2
BRANCH   1  20
ATOM     20  S   UNL     1       1.043  10.389  18.333  0.00  0.00    +0.000 S 
BRANCH  20  22
ATOM     21  N   UNL     1      -1.122  11.678  19.380  0.00  0.00    +0.000 N 
ATOM     22  C   UNL     1      -0.649  10.734  18.501  0.00  0.00    +0.000 A 
ATOM     23  N   UNL     1      -1.610  10.249  17.746  0.00  0.00    +0.000 NA
ATOM     24  C   UNL     1      -2.756  10.895  18.149  0.00  0.00    +0.000 A 
ATOM     25  C   UNL     1      -4.062  10.786  17.670  0.00  0.00    +0.000 A 
ATOM     26  C   UNL     1      -5.010  11.562  18.318  0.00  0.00    +0.000 A 
ATOM     27  N   UNL     1      -4.751  12.402  19.347  0.00  0.00    +0.000 NA
ATOM     28  C   UNL     1      -3.483  12.529  19.794  0.00  0.00    +0.000 A 
ATOM     29  C   UNL     1      -2.484  11.780  19.186  0.00  0.00    +0.000 A 
BRANCH  21  30
ATOM     30  C   UNL     1      -0.344  12.514  20.283  0.00  0.00    +0.000 C 
BRANCH  30  36
ATOM     31  C   UNL     1       3.277  15.297  18.136  0.00  0.00    +0.000 C 
ATOM     32  C   UNL     1       1.875  15.183  18.656  0.00  0.00    +0.000 A 
ATOM     33  C   UNL     1       1.012  16.281  18.685  0.00  0.00    +0.000 A 
ATOM     34  C   UNL     1      -0.278  16.152  19.198  0.00  0.00    +0.000 A 
ATOM     35  C   UNL     1      -0.715  14.924  19.687  0.00  0.00    +0.000 A 
ATOM     36  C   UNL     1       0.129  13.803  19.652  0.00  0.00    +0.000 A 
ATOM     37  C   UNL     1       1.425  13.952  19.139  0.00  0.00    +0.000 A 
ENDBRANCH  30  36
ENDBRANCH  21  30
ENDBRANCH  20  22
ENDBRANCH   1  20
TORSDOF 8
ENDMDL
MODEL 9
REMARK VINA RESULT:      -8.3      7.416     11.247
REMARK  Name = 
REMARK  9 active torsions:
REMARK  status: ('A' for Active; 'I' for Inactive)
REMARK    1  A    between atoms: C_1  and  C_2
REMARK    2  A    between atoms: C_6  and  C_7
REMARK    3  A    between atoms: C_7  and  N_8
REMARK    4  A    between atoms: C_9  and  S_10
REMARK    5  A    between atoms: S_10  and  C_11
REMARK    6  A    between atoms: C_11  and  C_12
REMARK    7  A    between atoms: C_15  and  C_16
REMARK    8  A    between atoms: N_18  and  C_19
REMARK    9  A    between atoms: C_19  and  C_20
REMARK                            x       y       z     vdW  Elec       q    Type
REMARK                         _______ _______ _______ _____ _____    ______ ____
ROOT
ATOM      1  C   UNL     1       1.600   8.741  17.683  0.00  0.00    +0.000 C 
ENDROOT
BRANCH   1   2
ATOM      2  C   UNL     1       0.454   9.587  18.216  0.00  0.00    +0.000 A 
ATOM      3  C   UNL     1       0.663  10.387  19.353  0.00  0.00    +0.000 A 
ATOM      4  C   UNL     1      -0.338  11.249  19.826  0.00  0.00    +0.000 A 
ATOM      5  C   UNL     1      -1.570  11.322  19.170  0.00  0.00    +0.000 A 
ATOM      6  C   UNL     1      -1.778  10.561  18.024  0.00  0.00    +0.000 A 
ATOM      7  C   UNL     1      -0.777   9.710  17.560  0.00  0.00    +0.000 A 
BRANCH   5   8
ATOM      8  C   UNL     1      -2.623  12.247  19.672  0.00  0.00    +0.000 C 
ATOM      9  O   UNL     1      -3.764  12.184  19.227  0.00  0.00    +0.000 OA
ATOM     10  N   UNL     1      -2.216  13.155  20.625  0.00  0.00    +0.000 N 
ATOM     11  H   UNL     1      -1.231  13.284  20.808  0.00  0.00    +0.000 HD
BRANCH  10  12
ATOM     12  C   UNL     1      -3.118  14.124  21.199  0.00  0.00    +0.000 C 
BRANCH  12  13
ATOM     13  C   UNL     1      -3.932  13.544  22.321  0.00  0.00    +0.000 A 
ATOM     14  C   UNL     1      -5.326  13.444  22.213  0.00  0.00    +0.000 A 
ATOM     15  C   UNL     1      -6.080  12.892  23.253  0.00  0.00    +0.000 A 
ATOM     16  C   UNL     1      -5.452  12.444  24.413  0.00  0.00    +0.000 A 
ATOM     17  C   UNL     1      -4.068  12.557  24.540  0.00  0.00    +0.000 A 
ATOM     18  C   UNL     1      -3.322  13.107  23.499  0.00  0.00    +0.000 A 
ATOM     19  F   UNL     1      -1.993  13.212  23.642  0.00  0.00    +0.000 F 
ENDBRANCH  12  13
ENDBRANCH  10  12
ENDBRANCH   5   8
ENDBRANCH   1   2
BRANCH   1  20
ATOM     20  S   UNL     1       2.749   8.033  18.895  0.00  0.00    +0.000 S 
BRANCH  20  22
ATOM     21  N   UNL     1       3.154   5.535  17.876  0.00  0.00    +0.000 N 
ATOM     22  C   UNL     1       2.460   6.328  18.757  0.00  0.00    +0.000 A 
ATOM     23  N   UNL     1       1.675   5.617  19.536  0.00  0.00    +0.000 NA
ATOM     24  C   UNL     1       1.859   4.310  19.148  0.00  0.00    +0.000 A 
ATOM     25  C   UNL     1       1.297   3.137  19.655  0.00  0.00    +0.000 A 
ATOM     26  C   UNL     1       1.668   1.965  19.016  0.00  0.00    +0.000 A 
ATOM     27  N   UNL     1       2.526   1.889  17.971  0.00  0.00    +0.000 NA
ATOM     28  C   UNL     1       3.091   3.021  17.498  0.00  0.00    +0.000 A 
ATOM     29  C   UNL     1       2.763   4.230  18.096  0.00  0.00    +0.000 A 
BRANCH  21  30
ATOM     30  C   UNL     1       4.197   5.947  16.947  0.00  0.00    +0.000 C 
BRANCH  30  36
ATOM     31  C   UNL     1       8.256   8.864  17.636  0.00  0.00    +0.000 C 
ATOM     32  C   UNL     1       7.516   7.594  17.930  0.00  0.00    +0.000 A 
ATOM     33  C   UNL     1       8.071   6.587  18.723  0.00  0.00    +0.000 A 
ATOM     34  C   UNL     1       7.371   5.406  18.958  0.00  0.00    +0.000 A 
ATOM     35  C   UNL     1       6.108   5.220  18.401  0.00  0.00    +0.000 A 
ATOM     36  C   UNL     1       5.523   6.224  17.616  0.00  0.00    +0.000 A 
ATOM     37  C   UNL     1       6.244   7.404  17.384  0.00  0.00    +0.000 A 
ENDBRANCH  30  36
ENDBRANCH  21  30
ENDBRANCH  20  22
ENDBRANCH   1  20
TORSDOF 8
ENDMDL
