MODEL 1
REMARK VINA RESULT:      -7.1      0.000      0.000
REMARK  Name = 
REMARK  4 active torsions:
REMARK  status: ('A' for Active; 'I' for Inactive)
REMARK    1  A    between atoms: C_1  and  C_2
REMARK    2  A    between atoms: N_4  and  C_5
REMARK    3  A    between atoms: N_4  and  C_23
REMARK    4  A    between atoms: C_6  and  N_7
REMARK                            x       y       z     vdW  Elec       q    Type
REMARK                         _______ _______ _______ _____ _____    ______ ____
ROOT
ATOM      1  C   UNL     1      -0.919  11.333  19.564  0.00  0.00    +0.000 C 
ATOM      2  C   UNL     1      -2.012  12.041  19.929  0.00  0.00    +0.000 C 
ATOM      3  C   UNL     1      -3.255  11.965  19.063  0.00  0.00    +0.000 C 
ATOM      4  O   UNL     1      -4.308  12.502  19.394  0.00  0.00    +0.000 OA
ATOM      5  C   UNL     1      -3.189  11.231  17.783  0.00  0.00    +0.000 A 
ATOM      6  C   UNL     1      -4.295  11.223  16.919  0.00  0.00    +0.000 A 
ATOM      7  C   UNL     1      -4.231  10.551  15.694  0.00  0.00    +0.000 A 
ATOM      8  C   UNL     1      -3.066   9.883  15.325  0.00  0.00    +0.000 A 
ATOM      9  C   UNL     1      -1.970   9.877  16.188  0.00  0.00    +0.000 A 
ATOM     10  C   UNL     1      -2.037  10.548  17.419  0.00  0.00    +0.000 A 
ATOM     11  C   UNL     1      -0.884  10.502  18.323  0.00  0.00    +0.000 C 
ATOM     12  O   UNL     1       0.074   9.783  18.054  0.00  0.00    +0.000 OA
ENDROOT
BRANCH   2  13
ATOM     13  N   UNL     1      -2.061  12.910  21.034  0.00  0.00    +0.000 N 
ATOM     14  C   UNL     1      -2.107  14.368  20.876  0.00  0.00    +0.000 C 
ATOM     15  C   UNL     1      -1.008  14.956  21.763  0.00  0.00    +0.000 C 
ATOM     16  C   UNL     1      -1.128  14.504  23.221  0.00  0.00    +0.000 C 
ATOM     17  C   UNL     1      -1.439  13.013  23.384  0.00  0.00    +0.000 C 
ATOM     18  C   UNL     1      -2.468  12.499  22.380  0.00  0.00    +0.000 C 
ENDBRANCH   2  13
BRANCH   1  22
ATOM     19  C   UNL     1      -0.431   9.168  21.286  0.00  0.00    +0.000 C 
ATOM     20  C   UNL     1       0.539  10.335  21.238  0.00  0.00    +0.000 C 
ATOM     21  O   UNL     1       1.472  10.336  22.047  0.00  0.00    +0.000 OA
ATOM     22  N   UNL     1       0.285  11.350  20.289  0.00  0.00    +0.000 N 
BRANCH  22  23
ATOM     23  C   UNL     1       1.328  12.306  19.940  0.00  0.00    +0.000 A 
ATOM     24  C   UNL     1       1.831  13.232  20.871  0.00  0.00    +0.000 A 
ATOM     25  C   UNL     1       2.820  14.163  20.522  0.00  0.00    +0.000 A 
ATOM     26  C   UNL     1       3.320  14.174  19.232  0.00  0.00    +0.000 A 
ATOM     27  F   UNL     1       4.250  15.075  18.890  0.00  0.00    +0.000 F 
ATOM     28  C   UNL     1       2.871  13.258  18.293  0.00  0.00    +0.000 A 
ATOM     29  C   UNL     1       1.895  12.316  18.650  0.00  0.00    +0.000 A 
ENDBRANCH  22  23
ENDBRANCH   1  22
TORSDOF 3
ENDMDL
MODEL 2
REMARK VINA RESULT:      -7.0      0.581      1.430
REMARK  Name = 
REMARK  4 active torsions:
REMARK  status: ('A' for Active; 'I' for Inactive)
REMARK    1  A    between atoms: C_1  and  C_2
REMARK    2  A    between atoms: N_4  and  C_5
REMARK    3  A    between atoms: N_4  and  C_23
REMARK    4  A    between atoms: C_6  and  N_7
REMARK                            x       y       z     vdW  Elec       q    Type
REMARK                         _______ _______ _______ _____ _____    ______ ____
ROOT
ATOM      1  C   UNL     1      -0.908  11.395  19.722  0.00  0.00    +0.000 C 
ATOM      2  C   UNL     1      -1.984  12.082  20.169  0.00  0.00    +0.000 C 
ATOM      3  C   UNL     1      -3.267  12.038  19.362  0.00  0.00    +0.000 C 
ATOM      4  O   UNL     1      -4.304  12.557  19.766  0.00  0.00    +0.000 OA
ATOM      5  C   UNL     1      -3.261  11.359  18.050  0.00  0.00    +0.000 A 
ATOM      6  C   UNL     1      -4.408  11.383  17.241  0.00  0.00    +0.000 A 
ATOM      7  C   UNL     1      -4.402  10.764  15.987  0.00  0.00    +0.000 A 
ATOM      8  C   UNL     1      -3.256  10.117  15.534  0.00  0.00    +0.000 A 
ATOM      9  C   UNL     1      -2.119  10.079  16.341  0.00  0.00    +0.000 A 
ATOM     10  C   UNL     1      -2.127  10.697  17.602  0.00  0.00    +0.000 A 
ATOM     11  C   UNL     1      -0.932  10.617  18.447  0.00  0.00    +0.000 C 
ATOM     12  O   UNL     1       0.014   9.914  18.101  0.00  0.00    +0.000 OA
ENDROOT
BRANCH   2  13
ATOM     13  N   UNL     1      -1.981  12.904  21.311  0.00  0.00    +0.000 N 
ATOM     14  C   UNL     1      -1.957  12.350  22.670  0.00  0.00    +0.000 C 
ATOM     15  C   UNL     1      -3.090  13.014  23.452  0.00  0.00    +0.000 C 
ATOM     16  C   UNL     1      -3.003  14.543  23.424  0.00  0.00    +0.000 C 
ATOM     17  C   UNL     1      -2.671  15.119  22.043  0.00  0.00    +0.000 C 
ATOM     18  C   UNL     1      -1.605  14.320  21.298  0.00  0.00    +0.000 C 
ENDBRANCH   2  13
BRANCH   1  22
ATOM     19  C   UNL     1      -0.329   9.157  21.318  0.00  0.00    +0.000 C 
ATOM     20  C   UNL     1       0.633  10.331  21.277  0.00  0.00    +0.000 C 
ATOM     21  O   UNL     1       1.604  10.300  22.038  0.00  0.00    +0.000 OA
ATOM     22  N   UNL     1       0.330  11.386  20.388  0.00  0.00    +0.000 N 
BRANCH  22  23
ATOM     23  C   UNL     1       1.351  12.362  20.032  0.00  0.00    +0.000 A 
ATOM     24  C   UNL     1       1.946  12.386  18.758  0.00  0.00    +0.000 A 
ATOM     25  C   UNL     1       2.944  13.316  18.430  0.00  0.00    +0.000 A 
ATOM     26  C   UNL     1       3.354  14.237  19.376  0.00  0.00    +0.000 A 
ATOM     27  F   UNL     1       4.321  15.113  19.072  0.00  0.00    +0.000 F 
ATOM     28  C   UNL     1       2.771  14.265  20.634  0.00  0.00    +0.000 A 
ATOM     29  C   UNL     1       1.761  13.347  20.953  0.00  0.00    +0.000 A 
ENDBRANCH  22  23
ENDBRANCH   1  22
TORSDOF 3
ENDMDL
MODEL 3
REMARK VINA RESULT:      -6.6      2.895      5.414
REMARK  Name = 
REMARK  4 active torsions:
REMARK  status: ('A' for Active; 'I' for Inactive)
REMARK    1  A    between atoms: C_1  and  C_2
REMARK    2  A    between atoms: N_4  and  C_5
REMARK    3  A    between atoms: N_4  and  C_23
REMARK    4  A    between atoms: C_6  and  N_7
REMARK                            x       y       z     vdW  Elec       q    Type
REMARK                         _______ _______ _______ _____ _____    ______ ____
ROOT
ATOM      1  C   UNL     1       0.102  11.029  19.685  0.00  0.00    +0.000 C 
ATOM      2  C   UNL     1       0.165  10.859  21.025  0.00  0.00    +0.000 C 
ATOM      3  C   UNL     1       0.904   9.654  21.575  0.00  0.00    +0.000 C 
ATOM      4  O   UNL     1       1.082   9.498  22.780  0.00  0.00    +0.000 OA
ATOM      5  C   UNL     1       1.415   8.639  20.632  0.00  0.00    +0.000 A 
ATOM      6  C   UNL     1       2.020   7.469  21.117  0.00  0.00    +0.000 A 
ATOM      7  C   UNL     1       2.483   6.492  20.231  0.00  0.00    +0.000 A 
ATOM      8  C   UNL     1       2.347   6.675  18.857  0.00  0.00    +0.000 A 
ATOM      9  C   UNL     1       1.759   7.842  18.371  0.00  0.00    +0.000 A 
ATOM     10  C   UNL     1       1.298   8.825  19.261  0.00  0.00    +0.000 A 
ATOM     11  C   UNL     1       0.712  10.058  18.727  0.00  0.00    +0.000 C 
ATOM     12  O   UNL     1       0.740  10.273  17.519  0.00  0.00    +0.000 OA
ENDROOT
BRANCH   2  13
ATOM     13  N   UNL     1      -0.473  11.693  21.961  0.00  0.00    +0.000 N 
ATOM     14  C   UNL     1      -1.323  11.157  23.030  0.00  0.00    +0.000 C 
ATOM     15  C   UNL     1      -2.648  11.918  22.983  0.00  0.00    +0.000 C 
ATOM     16  C   UNL     1      -2.456  13.434  23.070  0.00  0.00    +0.000 C 
ATOM     17  C   UNL     1      -1.310  13.965  22.203  0.00  0.00    +0.000 C 
ATOM     18  C   UNL     1      -0.070  13.075  22.233  0.00  0.00    +0.000 C 
ENDBRANCH   2  13
BRANCH   1  22
ATOM     19  C   UNL     1       1.650  13.243  18.914  0.00  0.00    +0.000 C 
ATOM     20  C   UNL     1       0.141  13.278  18.755  0.00  0.00    +0.000 C 
ATOM     21  O   UNL     1      -0.369  14.338  18.378  0.00  0.00    +0.000 OA
ATOM     22  N   UNL     1      -0.572  12.102  19.078  0.00  0.00    +0.000 N 
BRANCH  22  23
ATOM     23  C   UNL     1      -1.949  11.934  18.632  0.00  0.00    +0.000 A 
ATOM     24  C   UNL     1      -3.042  12.229  19.467  0.00  0.00    +0.000 A 
ATOM     25  C   UNL     1      -4.365  12.044  19.038  0.00  0.00    +0.000 A 
ATOM     26  C   UNL     1      -4.608  11.563  17.764  0.00  0.00    +0.000 A 
ATOM     27  F   UNL     1      -5.869  11.367  17.359  0.00  0.00    +0.000 F 
ATOM     28  C   UNL     1      -3.558  11.290  16.901  0.00  0.00    +0.000 A 
ATOM     29  C   UNL     1      -2.236  11.493  17.325  0.00  0.00    +0.000 A 
ENDBRANCH  22  23
ENDBRANCH   1  22
TORSDOF 3
ENDMDL
MODEL 4
REMARK VINA RESULT:      -6.6      6.059      9.602
REMARK  Name = 
REMARK  4 active torsions:
REMARK  status: ('A' for Active; 'I' for Inactive)
REMARK    1  A    between atoms: C_1  and  C_2
REMARK    2  A    between atoms: N_4  and  C_5
REMARK    3  A    between atoms: N_4  and  C_23
REMARK    4  A    between atoms: C_6  and  N_7
REMARK                            x       y       z     vdW  Elec       q    Type
REMARK                         _______ _______ _______ _____ _____    ______ ____
ROOT
ATOM      1  C   UNL     1       7.333  14.878  19.976  0.00  0.00    +0.000 C 
ATOM      2  C   UNL     1       7.729  14.505  21.214  0.00  0.00    +0.000 C 
ATOM      3  C   UNL     1       8.864  13.507  21.349  0.00  0.00    +0.000 C 
ATOM      4  O   UNL     1       9.334  13.206  22.442  0.00  0.00    +0.000 OA
ATOM      5  C   UNL     1       9.408  12.877  20.129  0.00  0.00    +0.000 A 
ATOM      6  C   UNL     1      10.394  11.883  20.232  0.00  0.00    +0.000 A 
ATOM      7  C   UNL     1      10.896  11.264  19.083  0.00  0.00    +0.000 A 
ATOM      8  C   UNL     1      10.421  11.633  17.828  0.00  0.00    +0.000 A 
ATOM      9  C   UNL     1       9.452  12.630  17.721  0.00  0.00    +0.000 A 
ATOM     10  C   UNL     1       8.951  13.254  18.874  0.00  0.00    +0.000 A 
ATOM     11  C   UNL     1       7.956  14.322  18.737  0.00  0.00    +0.000 C 
ATOM     12  O   UNL     1       7.663  14.742  17.621  0.00  0.00    +0.000 OA
ENDROOT
BRANCH   2  13
ATOM     13  N   UNL     1       7.111  14.927  22.405  0.00  0.00    +0.000 N 
ATOM     14  C   UNL     1       6.260  14.035  23.200  0.00  0.00    +0.000 C 
ATOM     15  C   UNL     1       4.947  14.773  23.463  0.00  0.00    +0.000 C 
ATOM     16  C   UNL     1       5.165  16.139  24.119  0.00  0.00    +0.000 C 
ATOM     17  C   UNL     1       6.313  16.946  23.504  0.00  0.00    +0.000 C 
ATOM     18  C   UNL     1       7.539  16.096  23.178  0.00  0.00    +0.000 C 
ENDBRANCH   2  13
BRANCH   1  22
ATOM     19  C   UNL     1       8.005  17.598  19.772  0.00  0.00    +0.000 C 
ATOM     20  C   UNL     1       6.549  17.169  19.727  0.00  0.00    +0.000 C 
ATOM     21  O   UNL     1       5.692  18.057  19.702  0.00  0.00    +0.000 OA
ATOM     22  N   UNL     1       6.282  15.782  19.745  0.00  0.00    +0.000 N 
BRANCH  22  23
ATOM     23  C   UNL     1       4.969  15.282  19.360  0.00  0.00    +0.000 A 
ATOM     24  C   UNL     1       4.142  14.588  20.261  0.00  0.00    +0.000 A 
ATOM     25  C   UNL     1       2.888  14.092  19.877  0.00  0.00    +0.000 A 
ATOM     26  C   UNL     1       2.445  14.290  18.582  0.00  0.00    +0.000 A 
ATOM     27  F   UNL     1       1.256  13.800  18.206  0.00  0.00    +0.000 F 
ATOM     28  C   UNL     1       3.217  14.996  17.671  0.00  0.00    +0.000 A 
ATOM     29  C   UNL     1       4.463  15.507  18.064  0.00  0.00    +0.000 A 
ENDBRANCH  22  23
ENDBRANCH   1  22
TORSDOF 3
ENDMDL
MODEL 5
REMARK VINA RESULT:      -6.5      3.135      4.158
REMARK  Name = 
REMARK  4 active torsions:
REMARK  status: ('A' for Active; 'I' for Inactive)
REMARK    1  A    between atoms: C_1  and  C_2
REMARK    2  A    between atoms: N_4  and  C_5
REMARK    3  A    between atoms: N_4  and  C_23
REMARK    4  A    between atoms: C_6  and  N_7
REMARK                            x       y       z     vdW  Elec       q    Type
REMARK                         _______ _______ _______ _____ _____    ______ ____
ROOT
ATOM      1  C   UNL     1      -3.090  13.565  21.388  0.00  0.00    +0.000 C 
ATOM      2  C   UNL     1      -3.995  13.845  22.354  0.00  0.00    +0.000 C 
ATOM      3  C   UNL     1      -5.382  13.242  22.251  0.00  0.00    +0.000 C 
ATOM      4  O   UNL     1      -6.214  13.377  23.144  0.00  0.00    +0.000 OA
ATOM      5  C   UNL     1      -5.742  12.481  21.038  0.00  0.00    +0.000 A 
ATOM      6  C   UNL     1      -7.048  11.991  20.876  0.00  0.00    +0.000 A 
ATOM      7  C   UNL     1      -7.402  11.291  19.719  0.00  0.00    +0.000 A 
ATOM      8  C   UNL     1      -6.458  11.074  18.719  0.00  0.00    +0.000 A 
ATOM      9  C   UNL     1      -5.156  11.546  18.883  0.00  0.00    +0.000 A 
ATOM     10  C   UNL     1      -4.800  12.245  20.047  0.00  0.00    +0.000 A 
ATOM     11  C   UNL     1      -3.418  12.705  20.212  0.00  0.00    +0.000 C 
ATOM     12  O   UNL     1      -2.563  12.372  19.396  0.00  0.00    +0.000 OA
ENDROOT
BRANCH   2  13
ATOM     13  N   UNL     1      -3.762  14.724  23.428  0.00  0.00    +0.000 N 
ATOM     14  C   UNL     1      -4.273  16.099  23.433  0.00  0.00    +0.000 C 
ATOM     15  C   UNL     1      -3.097  17.020  23.763  0.00  0.00    +0.000 C 
ATOM     16  C   UNL     1      -2.399  16.631  25.070  0.00  0.00    +0.000 C 
ATOM     17  C   UNL     1      -2.177  15.124  25.230  0.00  0.00    +0.000 C 
ATOM     18  C   UNL     1      -3.369  14.288  24.770  0.00  0.00    +0.000 C 
ENDBRANCH   2  13
BRANCH   1  22
ATOM     19  C   UNL     1      -1.144  12.161  22.849  0.00  0.00    +0.000 C 
ATOM     20  C   UNL     1      -0.788  13.475  22.176  0.00  0.00    +0.000 C 
ATOM     21  O   UNL     1       0.338  13.936  22.383  0.00  0.00    +0.000 OA
ATOM     22  N   UNL     1      -1.785  14.087  21.384  0.00  0.00    +0.000 N 
BRANCH  22  23
ATOM     23  C   UNL     1      -1.429  15.139  20.441  0.00  0.00    +0.000 A 
ATOM     24  C   UNL     1      -2.071  16.390  20.445  0.00  0.00    +0.000 A 
ATOM     25  C   UNL     1      -1.737  17.391  19.521  0.00  0.00    +0.000 A 
ATOM     26  C   UNL     1      -0.751  17.149  18.581  0.00  0.00    +0.000 A 
ATOM     27  F   UNL     1      -0.444  18.096  17.684  0.00  0.00    +0.000 F 
ATOM     28  C   UNL     1      -0.074  15.940  18.563  0.00  0.00    +0.000 A 
ATOM     29  C   UNL     1      -0.397  14.947  19.501  0.00  0.00    +0.000 A 
ENDBRANCH  22  23
ENDBRANCH   1  22
TORSDOF 3
ENDMDL
MODEL 6
REMARK VINA RESULT:      -6.5      7.455     10.458
REMARK  Name = 
REMARK  4 active torsions:
REMARK  status: ('A' for Active; 'I' for Inactive)
REMARK    1  A    between atoms: C_1  and  C_2
REMARK    2  A    between atoms: N_4  and  C_5
REMARK    3  A    between atoms: N_4  and  C_23
REMARK    4  A    between atoms: C_6  and  N_7
REMARK                            x       y       z     vdW  Elec       q    Type
REMARK                         _______ _______ _______ _____ _____    ______ ____
ROOT
ATOM      1  C   UNL     1       8.001  14.956  20.766  0.00  0.00    +0.000 C 
ATOM      2  C   UNL     1       8.267  14.305  19.611  0.00  0.00    +0.000 C 
ATOM      3  C   UNL     1       7.246  14.358  18.491  0.00  0.00    +0.000 C 
ATOM      4  O   UNL     1       7.471  13.872  17.386  0.00  0.00    +0.000 OA
ATOM      5  C   UNL     1       5.942  15.004  18.743  0.00  0.00    +0.000 A 
ATOM      6  C   UNL     1       4.944  14.986  17.756  0.00  0.00    +0.000 A 
ATOM      7  C   UNL     1       3.699  15.573  17.997  0.00  0.00    +0.000 A 
ATOM      8  C   UNL     1       3.441  16.183  19.222  0.00  0.00    +0.000 A 
ATOM      9  C   UNL     1       4.435  16.215  20.200  0.00  0.00    +0.000 A 
ATOM     10  C   UNL     1       5.686  15.629  19.956  0.00  0.00    +0.000 A 
ATOM     11  C   UNL     1       6.726  15.703  20.986  0.00  0.00    +0.000 C 
ATOM     12  O   UNL     1       6.538  16.376  21.996  0.00  0.00    +0.000 OA
ENDROOT
BRANCH   2  13
ATOM     13  N   UNL     1       9.408  13.511  19.392  0.00  0.00    +0.000 N 
ATOM     14  C   UNL     1       9.348  12.046  19.390  0.00  0.00    +0.000 C 
ATOM     15  C   UNL     1      10.440  11.544  20.336  0.00  0.00    +0.000 C 
ATOM     16  C   UNL     1      11.824  12.091  19.974  0.00  0.00    +0.000 C 
ATOM     17  C   UNL     1      11.829  13.583  19.624  0.00  0.00    +0.000 C 
ATOM     18  C   UNL     1      10.638  14.004  18.766  0.00  0.00    +0.000 C 
ENDBRANCH   2  13
BRANCH   1  22
ATOM     19  C   UNL     1       9.956  16.972  20.855  0.00  0.00    +0.000 C 
ATOM     20  C   UNL     1       9.934  15.887  21.917  0.00  0.00    +0.000 C 
ATOM     21  O   UNL     1      10.855  15.873  22.739  0.00  0.00    +0.000 OA
ATOM     22  N   UNL     1       8.874  14.954  21.867  0.00  0.00    +0.000 N 
BRANCH  22  23
ATOM     23  C   UNL     1       8.582  14.113  23.021  0.00  0.00    +0.000 A 
ATOM     24  C   UNL     1       8.502  12.713  22.920  0.00  0.00    +0.000 A 
ATOM     25  C   UNL     1       8.200  11.911  24.031  0.00  0.00    +0.000 A 
ATOM     26  C   UNL     1       7.978  12.506  25.260  0.00  0.00    +0.000 A 
ATOM     27  F   UNL     1       7.670  11.745  26.318  0.00  0.00    +0.000 F 
ATOM     28  C   UNL     1       8.078  13.881  25.407  0.00  0.00    +0.000 A 
ATOM     29  C   UNL     1       8.398  14.679  24.298  0.00  0.00    +0.000 A 
ENDBRANCH  22  23
ENDBRANCH   1  22
TORSDOF 3
ENDMDL
MODEL 7
REMARK VINA RESULT:      -6.5      3.538      6.557
REMARK  Name = 
REMARK  4 active torsions:
REMARK  status: ('A' for Active; 'I' for Inactive)
REMARK    1  A    between atoms: C_1  and  C_2
REMARK    2  A    between atoms: N_4  and  C_5
REMARK    3  A    between atoms: N_4  and  C_23
REMARK    4  A    between atoms: C_6  and  N_7
REMARK                            x       y       z     vdW  Elec       q    Type
REMARK                         _______ _______ _______ _____ _____    ______ ____
ROOT
ATOM      1  C   UNL     1      -1.782  14.074  20.586  0.00  0.00    +0.000 C 
ATOM      2  C   UNL     1      -0.645  13.700  19.958  0.00  0.00    +0.000 C 
ATOM      3  C   UNL     1       0.127  14.736  19.164  0.00  0.00    +0.000 C 
ATOM      4  O   UNL     1       1.215  14.484  18.655  0.00  0.00    +0.000 OA
ATOM      5  C   UNL     1      -0.455  16.083  18.993  0.00  0.00    +0.000 A 
ATOM      6  C   UNL     1       0.192  17.032  18.186  0.00  0.00    +0.000 A 
ATOM      7  C   UNL     1      -0.366  18.300  18.000  0.00  0.00    +0.000 A 
ATOM      8  C   UNL     1      -1.570  18.630  18.616  0.00  0.00    +0.000 A 
ATOM      9  C   UNL     1      -2.209  17.694  19.429  0.00  0.00    +0.000 A 
ATOM     10  C   UNL     1      -1.646  16.423  19.620  0.00  0.00    +0.000 A 
ATOM     11  C   UNL     1      -2.318  15.466  20.504  0.00  0.00    +0.000 C 
ATOM     12  O   UNL     1      -3.293  15.823  21.160  0.00  0.00    +0.000 OA
ENDROOT
BRANCH   2  13
ATOM     13  N   UNL     1      -0.152  12.382  19.927  0.00  0.00    +0.000 N 
ATOM     14  C   UNL     1      -0.355  11.501  18.772  0.00  0.00    +0.000 C 
ATOM     15  C   UNL     1      -0.927  10.185  19.298  0.00  0.00    +0.000 C 
ATOM     16  C   UNL     1      -0.051   9.559  20.386  0.00  0.00    +0.000 C 
ATOM     17  C   UNL     1       0.465  10.564  21.422  0.00  0.00    +0.000 C 
ATOM     18  C   UNL     1       0.912  11.887  20.805  0.00  0.00    +0.000 C 
ENDBRANCH   2  13
BRANCH   1  22
ATOM     19  C   UNL     1      -1.095  13.699  23.284  0.00  0.00    +0.000 C 
ATOM     20  C   UNL     1      -2.221  12.888  22.666  0.00  0.00    +0.000 C 
ATOM     21  O   UNL     1      -2.736  12.006  23.359  0.00  0.00    +0.000 OA
ATOM     22  N   UNL     1      -2.576  13.186  21.332  0.00  0.00    +0.000 N 
BRANCH  22  23
ATOM     23  C   UNL     1      -3.843  12.716  20.788  0.00  0.00    +0.000 A 
ATOM     24  C   UNL     1      -3.949  12.211  19.479  0.00  0.00    +0.000 A 
ATOM     25  C   UNL     1      -5.176  11.779  18.955  0.00  0.00    +0.000 A 
ATOM     26  C   UNL     1      -6.313  11.846  19.740  0.00  0.00    +0.000 A 
ATOM     27  F   UNL     1      -7.490  11.453  19.235  0.00  0.00    +0.000 F 
ATOM     28  C   UNL     1      -6.245  12.309  21.044  0.00  0.00    +0.000 A 
ATOM     29  C   UNL     1      -5.013  12.723  21.572  0.00  0.00    +0.000 A 
ENDBRANCH  22  23
ENDBRANCH   1  22
TORSDOF 3
ENDMDL
MODEL 8
REMARK VINA RESULT:      -6.5      2.715      5.478
REMARK  Name = 
REMARK  4 active torsions:
REMARK  status: ('A' for Active; 'I' for Inactive)
REMARK    1  A    between atoms: C_1  and  C_2
REMARK    2  A    between atoms: N_4  and  C_5
REMARK    3  A    between atoms: N_4  and  C_23
REMARK    4  A    between atoms: C_6  and  N_7
REMARK                            x       y       z     vdW  Elec       q    Type
REMARK                         _______ _______ _______ _____ _____    ______ ____
ROOT
ATOM      1  C   UNL     1       0.719  12.095  19.437  0.00  0.00    +0.000 C 
ATOM      2  C   UNL     1       0.155  12.729  20.489  0.00  0.00    +0.000 C 
ATOM      3  C   UNL     1       0.783  14.015  20.990  0.00  0.00    +0.000 C 
ATOM      4  O   UNL     1       0.263  14.689  21.874  0.00  0.00    +0.000 OA
ATOM      5  C   UNL     1       2.062  14.461  20.400  0.00  0.00    +0.000 A 
ATOM      6  C   UNL     1       2.712  15.597  20.908  0.00  0.00    +0.000 A 
ATOM      7  C   UNL     1       3.935  16.011  20.371  0.00  0.00    +0.000 A 
ATOM      8  C   UNL     1       4.516  15.296  19.326  0.00  0.00    +0.000 A 
ATOM      9  C   UNL     1       3.866  14.176  18.810  0.00  0.00    +0.000 A 
ATOM     10  C   UNL     1       2.636  13.764  19.346  0.00  0.00    +0.000 A 
ATOM     11  C   UNL     1       1.955  12.602  18.767  0.00  0.00    +0.000 C 
ATOM     12  O   UNL     1       2.400  12.079  17.750  0.00  0.00    +0.000 OA
ENDROOT
BRANCH   2  13
ATOM     13  N   UNL     1      -0.950  12.240  21.211  0.00  0.00    +0.000 N 
ATOM     14  C   UNL     1      -2.331  12.557  20.830  0.00  0.00    +0.000 C 
ATOM     15  C   UNL     1      -3.042  13.072  22.081  0.00  0.00    +0.000 C 
ATOM     16  C   UNL     1      -2.950  12.090  23.252  0.00  0.00    +0.000 C 
ATOM     17  C   UNL     1      -1.560  11.474  23.438  0.00  0.00    +0.000 C 
ATOM     18  C   UNL     1      -0.889  11.093  22.120  0.00  0.00    +0.000 C 
ENDBRANCH   2  13
BRANCH   1  22
ATOM     19  C   UNL     1      -1.346  12.280  17.541  0.00  0.00    +0.000 C 
ATOM     20  C   UNL     1      -0.877  10.919  18.024  0.00  0.00    +0.000 C 
ATOM     21  O   UNL     1      -1.501   9.928  17.633  0.00  0.00    +0.000 OA
ATOM     22  N   UNL     1       0.223  10.890  18.910  0.00  0.00    +0.000 N 
BRANCH  22  23
ATOM     23  C   UNL     1       0.945   9.646  19.142  0.00  0.00    +0.000 A 
ATOM     24  C   UNL     1       0.970   9.023  20.403  0.00  0.00    +0.000 A 
ATOM     25  C   UNL     1       1.685   7.837  20.624  0.00  0.00    +0.000 A 
ATOM     26  C   UNL     1       2.382   7.258  19.579  0.00  0.00    +0.000 A 
ATOM     27  F   UNL     1       3.082   6.136  19.792  0.00  0.00    +0.000 F 
ATOM     28  C   UNL     1       2.358   7.824  18.314  0.00  0.00    +0.000 A 
ATOM     29  C   UNL     1       1.627   9.000  18.091  0.00  0.00    +0.000 A 
ENDBRANCH  22  23
ENDBRANCH   1  22
TORSDOF 3
ENDMDL
MODEL 9
REMARK VINA RESULT:      -6.5      6.068      9.646
REMARK  Name = 
REMARK  4 active torsions:
REMARK  status: ('A' for Active; 'I' for Inactive)
REMARK    1  A    between atoms: C_1  and  C_2
REMARK    2  A    between atoms: N_4  and  C_5
REMARK    3  A    between atoms: N_4  and  C_23
REMARK    4  A    between atoms: C_6  and  N_7
REMARK                            x       y       z     vdW  Elec       q    Type
REMARK                         _______ _______ _______ _____ _____    ______ ____
ROOT
ATOM      1  C   UNL     1       7.339  14.869  19.998  0.00  0.00    +0.000 C 
ATOM      2  C   UNL     1       7.660  14.404  21.227  0.00  0.00    +0.000 C 
ATOM      3  C   UNL     1       8.797  13.410  21.358  0.00  0.00    +0.000 C 
ATOM      4  O   UNL     1       9.201  13.028  22.453  0.00  0.00    +0.000 OA
ATOM      5  C   UNL     1       9.427  12.880  20.132  0.00  0.00    +0.000 A 
ATOM      6  C   UNL     1      10.417  11.889  20.221  0.00  0.00    +0.000 A 
ATOM      7  C   UNL     1      11.000  11.365  19.063  0.00  0.00    +0.000 A 
ATOM      8  C   UNL     1      10.600  11.826  17.812  0.00  0.00    +0.000 A 
ATOM      9  C   UNL     1       9.627  12.820  17.720  0.00  0.00    +0.000 A 
ATOM     10  C   UNL     1       9.045  13.349  18.882  0.00  0.00    +0.000 A 
ATOM     11  C   UNL     1       8.047  14.416  18.763  0.00  0.00    +0.000 C 
ATOM     12  O   UNL     1       7.819  14.918  17.666  0.00  0.00    +0.000 OA
ENDROOT
BRANCH   2  13
ATOM     13  N   UNL     1       6.962  14.728  22.405  0.00  0.00    +0.000 N 
ATOM     14  C   UNL     1       7.085  16.041  23.048  0.00  0.00    +0.000 C 
ATOM     15  C   UNL     1       7.403  15.798  24.523  0.00  0.00    +0.000 C 
ATOM     16  C   UNL     1       6.374  14.889  25.202  0.00  0.00    +0.000 C 
ATOM     17  C   UNL     1       5.969  13.674  24.361  0.00  0.00    +0.000 C 
ATOM     18  C   UNL     1       5.782  14.002  22.881  0.00  0.00    +0.000 C 
ENDBRANCH   2  13
BRANCH   1  22
ATOM     19  C   UNL     1       8.020  17.588  19.830  0.00  0.00    +0.000 C 
ATOM     20  C   UNL     1       6.564  17.165  19.769  0.00  0.00    +0.000 C 
ATOM     21  O   UNL     1       5.710  18.056  19.748  0.00  0.00    +0.000 OA
ATOM     22  N   UNL     1       6.292  15.779  19.770  0.00  0.00    +0.000 N 
BRANCH  22  23
ATOM     23  C   UNL     1       4.980  15.288  19.370  0.00  0.00    +0.000 A 
ATOM     24  C   UNL     1       4.058  14.781  20.303  0.00  0.00    +0.000 A 
ATOM     25  C   UNL     1       2.805  14.291  19.908  0.00  0.00    +0.000 A 
ATOM     26  C   UNL     1       2.459  14.307  18.569  0.00  0.00    +0.000 A 
ATOM     27  F   UNL     1       1.271  13.822  18.186  0.00  0.00    +0.000 F 
ATOM     28  C   UNL     1       3.328  14.826  17.621  0.00  0.00    +0.000 A 
ATOM     29  C   UNL     1       4.573  15.333  18.022  0.00  0.00    +0.000 A 
ENDBRANCH  22  23
ENDBRANCH   1  22
TORSDOF 3
ENDMDL
