MODEL 1
REMARK VINA RESULT:      -7.0      0.000      0.000
REMARK  Name = 
REMARK  5 active torsions:
REMARK  status: ('A' for Active; 'I' for Inactive)
REMARK    1  A    between atoms: C_1  and  C_2
REMARK    2  A    between atoms: C_6  and  C_7
REMARK    3  A    between atoms: C_10  and  S_11
REMARK    4  A    between atoms: N_12  and  C_13
REMARK    5  A    between atoms: C_14  and  C_15
REMARK                            x       y       z     vdW  Elec       q    Type
REMARK                         _______ _______ _______ _____ _____    ______ ____
ROOT
ATOM      1  C   UNL     1       6.808   4.172  12.483  0.00  0.00    +0.000 C 
ATOM      2  C   UNL     1       6.494   4.326  13.941  0.00  0.00    +0.000 A 
ATOM      3  C   UNL     1       5.158   3.949  14.390  0.00  0.00    +0.000 A 
ATOM      4  C   UNL     1       4.847   4.060  15.691  0.00  0.00    +0.000 A 
ATOM      5  N   UNL     1       5.818   4.477  16.603  0.00  0.00    +0.000 N 
ATOM      6  C   UNL     1       5.803   4.538  17.987  0.00  0.00    +0.000 A 
ATOM      7  C   UNL     1       6.965   5.226  18.319  0.00  0.00    +0.000 A 
ATOM      8  C   UNL     1       7.458   5.707  19.634  0.00  0.00    +0.000 C 
ATOM      9  N   UNL     1       7.756   5.418  17.208  0.00  0.00    +0.000 NA
ATOM     10  C   UNL     1       7.073   4.928  16.200  0.00  0.00    +0.000 A 
ATOM     11  C   UNL     1       7.397   4.818  14.816  0.00  0.00    +0.000 A 
ENDROOT
BRANCH   6  12
ATOM     12  C   UNL     1       4.783   4.037  18.854  0.00  0.00    +0.000 A 
ATOM     13  N   UNL     1       4.916   2.931  19.558  0.00  0.00    +0.000 NA
ATOM     14  N   UNL     1       3.749   2.698  20.245  0.00  0.00    +0.000 NA
ATOM     15  C   UNL     1       2.915   3.665  19.945  0.00  0.00    +0.000 A 
ATOM     16  N   UNL     1       3.501   4.526  19.056  0.00  0.00    +0.000 N 
ATOM     17  C   UNL     1       2.863   5.640  18.401  0.00  0.00    +0.000 C 
BRANCH  15  18
ATOM     18  S   UNL     1       1.318   3.809  20.574  0.00  0.00    +0.000 S 
ATOM     19  H   UNL     1       1.136   5.096  20.245  0.00  0.00    +0.000 HD
ENDBRANCH  15  18
ENDBRANCH   6  12
TORSDOF 2
ENDMDL
MODEL 2
REMARK VINA RESULT:      -6.8      0.872      1.471
REMARK  Name = 
REMARK  5 active torsions:
REMARK  status: ('A' for Active; 'I' for Inactive)
REMARK    1  A    between atoms: C_1  and  C_2
REMARK    2  A    between atoms: C_6  and  C_7
REMARK    3  A    between atoms: C_10  and  S_11
REMARK    4  A    between atoms: N_12  and  C_13
REMARK    5  A    between atoms: C_14  and  C_15
REMARK                            x       y       z     vdW  Elec       q    Type
REMARK                         _______ _______ _______ _____ _____    ______ ____
ROOT
ATOM      1  C   UNL     1       6.509   3.778  12.708  0.00  0.00    +0.000 C 
ATOM      2  C   UNL     1       6.234   4.133  14.138  0.00  0.00    +0.000 A 
ATOM      3  C   UNL     1       4.840   4.219  14.560  0.00  0.00    +0.000 A 
ATOM      4  C   UNL     1       4.557   4.519  15.837  0.00  0.00    +0.000 A 
ATOM      5  N   UNL     1       5.594   4.689  16.755  0.00  0.00    +0.000 N 
ATOM      6  C   UNL     1       5.576   4.858  18.131  0.00  0.00    +0.000 A 
ATOM      7  C   UNL     1       6.888   5.180  18.460  0.00  0.00    +0.000 A 
ATOM      8  C   UNL     1       7.484   5.588  19.757  0.00  0.00    +0.000 C 
ATOM      9  N   UNL     1       7.717   5.035  17.370  0.00  0.00    +0.000 NA
ATOM     10  C   UNL     1       6.934   4.701  16.372  0.00  0.00    +0.000 A 
ATOM     11  C   UNL     1       7.230   4.390  15.013  0.00  0.00    +0.000 A 
ENDROOT
BRANCH   6  12
ATOM     12  C   UNL     1       4.437   4.761  18.989  0.00  0.00    +0.000 A 
ATOM     13  N   UNL     1       3.711   5.803  19.342  0.00  0.00    +0.000 NA
ATOM     14  N   UNL     1       2.727   5.386  20.206  0.00  0.00    +0.000 NA
ATOM     15  C   UNL     1       2.871   4.092  20.374  0.00  0.00    +0.000 A 
ATOM     16  N   UNL     1       3.945   3.646  19.650  0.00  0.00    +0.000 N 
ATOM     17  C   UNL     1       4.493   2.313  19.672  0.00  0.00    +0.000 C 
BRANCH  15  18
ATOM     18  S   UNL     1       1.860   3.117  21.369  0.00  0.00    +0.000 S 
ATOM     19  H   UNL     1       0.801   3.940  21.371  0.00  0.00    +0.000 HD
ENDBRANCH  15  18
ENDBRANCH   6  12
TORSDOF 2
ENDMDL
MODEL 3
REMARK VINA RESULT:      -6.3      2.786      6.043
REMARK  Name = 
REMARK  5 active torsions:
REMARK  status: ('A' for Active; 'I' for Inactive)
REMARK    1  A    between atoms: C_1  and  C_2
REMARK    2  A    between atoms: C_6  and  C_7
REMARK    3  A    between atoms: C_10  and  S_11
REMARK    4  A    between atoms: N_12  and  C_13
REMARK    5  A    between atoms: C_14  and  C_15
REMARK                            x       y       z     vdW  Elec       q    Type
REMARK                         _______ _______ _______ _____ _____    ______ ____
ROOT
ATOM      1  C   UNL     1       1.490   2.445  21.911  0.00  0.00    +0.000 C 
ATOM      2  C   UNL     1       2.147   3.434  20.997  0.00  0.00    +0.000 A 
ATOM      3  C   UNL     1       3.463   3.095  20.465  0.00  0.00    +0.000 A 
ATOM      4  C   UNL     1       4.075   3.951  19.631  0.00  0.00    +0.000 A 
ATOM      5  N   UNL     1       3.423   5.122  19.239  0.00  0.00    +0.000 N 
ATOM      6  C   UNL     1       3.761   6.082  18.299  0.00  0.00    +0.000 A 
ATOM      7  C   UNL     1       2.842   7.106  18.501  0.00  0.00    +0.000 A 
ATOM      8  C   UNL     1       2.751   8.455  17.886  0.00  0.00    +0.000 C 
ATOM      9  N   UNL     1       1.867   6.722  19.394  0.00  0.00    +0.000 NA
ATOM     10  C   UNL     1       2.208   5.519  19.793  0.00  0.00    +0.000 A 
ATOM     11  C   UNL     1       1.566   4.612  20.685  0.00  0.00    +0.000 A 
ENDROOT
BRANCH   6  12
ATOM     12  C   UNL     1       4.847   6.026  17.371  0.00  0.00    +0.000 A 
ATOM     13  N   UNL     1       5.756   6.975  17.267  0.00  0.00    +0.000 NA
ATOM     14  N   UNL     1       6.627   6.647  16.256  0.00  0.00    +0.000 NA
ATOM     15  C   UNL     1       6.232   5.501  15.752  0.00  0.00    +0.000 A 
ATOM     16  N   UNL     1       5.104   5.072  16.398  0.00  0.00    +0.000 N 
ATOM     17  C   UNL     1       4.308   3.921  16.051  0.00  0.00    +0.000 C 
BRANCH  15  18
ATOM     18  S   UNL     1       7.021   4.678  14.460  0.00  0.00    +0.000 S 
ATOM     19  H   UNL     1       5.948   4.001  14.028  0.00  0.00    +0.000 HD
ENDBRANCH  15  18
ENDBRANCH   6  12
TORSDOF 2
ENDMDL
MODEL 4
REMARK VINA RESULT:      -6.1      2.623      4.131
REMARK  Name = 
REMARK  5 active torsions:
REMARK  status: ('A' for Active; 'I' for Inactive)
REMARK    1  A    between atoms: C_1  and  C_2
REMARK    2  A    between atoms: C_6  and  C_7
REMARK    3  A    between atoms: C_10  and  S_11
REMARK    4  A    between atoms: N_12  and  C_13
REMARK    5  A    between atoms: C_14  and  C_15
REMARK                            x       y       z     vdW  Elec       q    Type
REMARK                         _______ _______ _______ _____ _____    ______ ____
ROOT
ATOM      1  C   UNL     1       7.122   4.959  14.899  0.00  0.00    +0.000 C 
ATOM      2  C   UNL     1       6.017   5.067  15.907  0.00  0.00    +0.000 A 
ATOM      3  C   UNL     1       6.027   6.219  16.802  0.00  0.00    +0.000 A 
ATOM      4  C   UNL     1       5.045   6.356  17.708  0.00  0.00    +0.000 A 
ATOM      5  N   UNL     1       4.002   5.430  17.743  0.00  0.00    +0.000 N 
ATOM      6  C   UNL     1       2.818   5.417  18.464  0.00  0.00    +0.000 A 
ATOM      7  C   UNL     1       2.288   4.151  18.241  0.00  0.00    +0.000 A 
ATOM      8  C   UNL     1       1.096   3.488  18.828  0.00  0.00    +0.000 C 
ATOM      9  N   UNL     1       3.010   3.478  17.281  0.00  0.00    +0.000 NA
ATOM     10  C   UNL     1       4.005   4.274  16.965  0.00  0.00    +0.000 A 
ATOM     11  C   UNL     1       5.054   4.127  16.011  0.00  0.00    +0.000 A 
ENDROOT
BRANCH   6  12
ATOM     12  C   UNL     1       2.304   6.469  19.283  0.00  0.00    +0.000 A 
ATOM     13  N   UNL     1       1.955   6.297  20.542  0.00  0.00    +0.000 NA
ATOM     14  N   UNL     1       1.456   7.481  21.031  0.00  0.00    +0.000 NA
ATOM     15  C   UNL     1       1.504   8.360  20.057  0.00  0.00    +0.000 A 
ATOM     16  N   UNL     1       2.007   7.776  18.926  0.00  0.00    +0.000 N 
ATOM     17  C   UNL     1       2.100   8.383  17.622  0.00  0.00    +0.000 C 
BRANCH  15  18
ATOM     18  S   UNL     1       0.992   9.999  20.195  0.00  0.00    +0.000 S 
ATOM     19  H   UNL     1       0.153   9.815  21.225  0.00  0.00    +0.000 HD
ENDBRANCH  15  18
ENDBRANCH   6  12
TORSDOF 2
ENDMDL
MODEL 5
REMARK VINA RESULT:      -6.0      3.119      5.939
REMARK  Name = 
REMARK  5 active torsions:
REMARK  status: ('A' for Active; 'I' for Inactive)
REMARK    1  A    between atoms: C_1  and  C_2
REMARK    2  A    between atoms: C_6  and  C_7
REMARK    3  A    between atoms: C_10  and  S_11
REMARK    4  A    between atoms: N_12  and  C_13
REMARK    5  A    between atoms: C_14  and  C_15
REMARK                            x       y       z     vdW  Elec       q    Type
REMARK                         _______ _______ _______ _____ _____    ______ ____
ROOT
ATOM      1  C   UNL     1      -0.383  10.083  20.860  0.00  0.00    +0.000 C 
ATOM      2  C   UNL     1       0.644   9.160  20.277  0.00  0.00    +0.000 A 
ATOM      3  C   UNL     1       1.038   7.998  21.067  0.00  0.00    +0.000 A 
ATOM      4  C   UNL     1       1.944   7.142  20.569  0.00  0.00    +0.000 A 
ATOM      5  N   UNL     1       2.453   7.340  19.285  0.00  0.00    +0.000 N 
ATOM      6  C   UNL     1       3.271   6.548  18.496  0.00  0.00    +0.000 A 
ATOM      7  C   UNL     1       3.604   7.357  17.415  0.00  0.00    +0.000 A 
ATOM      8  C   UNL     1       4.541   7.122  16.288  0.00  0.00    +0.000 C 
ATOM      9  N   UNL     1       2.879   8.528  17.437  0.00  0.00    +0.000 NA
ATOM     10  C   UNL     1       2.168   8.482  18.539  0.00  0.00    +0.000 A 
ATOM     11  C   UNL     1       1.212   9.394  19.074  0.00  0.00    +0.000 A 
ENDROOT
BRANCH   6  12
ATOM     12  C   UNL     1       3.698   5.213  18.777  0.00  0.00    +0.000 A 
ATOM     13  N   UNL     1       4.858   4.930  19.335  0.00  0.00    +0.000 NA
ATOM     14  N   UNL     1       4.988   3.565  19.424  0.00  0.00    +0.000 NA
ATOM     15  C   UNL     1       3.903   3.032  18.912  0.00  0.00    +0.000 A 
ATOM     16  N   UNL     1       3.065   4.019  18.467  0.00  0.00    +0.000 N 
ATOM     17  C   UNL     1       1.835   3.829  17.739  0.00  0.00    +0.000 C 
BRANCH  15  18
ATOM     18  S   UNL     1       3.601   1.339  18.809  0.00  0.00    +0.000 S 
ATOM     19  H   UNL     1       3.298   1.156  20.102  0.00  0.00    +0.000 HD
ENDBRANCH  15  18
ENDBRANCH   6  12
TORSDOF 2
ENDMDL
MODEL 6
REMARK VINA RESULT:      -5.9      2.718      5.756
REMARK  Name = 
REMARK  5 active torsions:
REMARK  status: ('A' for Active; 'I' for Inactive)
REMARK    1  A    between atoms: C_1  and  C_2
REMARK    2  A    between atoms: C_6  and  C_7
REMARK    3  A    between atoms: C_10  and  S_11
REMARK    4  A    between atoms: N_12  and  C_13
REMARK    5  A    between atoms: C_14  and  C_15
REMARK                            x       y       z     vdW  Elec       q    Type
REMARK                         _______ _______ _______ _____ _____    ______ ____
ROOT
ATOM      1  C   UNL     1       1.753   2.612  21.489  0.00  0.00    +0.000 C 
ATOM      2  C   UNL     1       2.586   3.262  20.425  0.00  0.00    +0.000 A 
ATOM      3  C   UNL     1       2.900   4.678  20.581  0.00  0.00    +0.000 A 
ATOM      4  C   UNL     1       3.656   5.289  19.655  0.00  0.00    +0.000 A 
ATOM      5  N   UNL     1       4.178   4.552  18.590  0.00  0.00    +0.000 N 
ATOM      6  C   UNL     1       5.083   4.897  17.599  0.00  0.00    +0.000 A 
ATOM      7  C   UNL     1       5.054   3.826  16.712  0.00  0.00    +0.000 A 
ATOM      8  C   UNL     1       5.715   3.648  15.395  0.00  0.00    +0.000 C 
ATOM      9  N   UNL     1       4.309   2.786  17.222  0.00  0.00    +0.000 NA
ATOM     10  C   UNL     1       3.828   3.222  18.363  0.00  0.00    +0.000 A 
ATOM     11  C   UNL     1       3.017   2.580  19.343  0.00  0.00    +0.000 A 
ENDROOT
BRANCH   6  12
ATOM     12  C   UNL     1       5.833   6.110  17.511  0.00  0.00    +0.000 A 
ATOM     13  N   UNL     1       5.610   7.029  16.592  0.00  0.00    +0.000 NA
ATOM     14  N   UNL     1       6.526   8.043  16.747  0.00  0.00    +0.000 NA
ATOM     15  C   UNL     1       7.300   7.724  17.757  0.00  0.00    +0.000 A 
ATOM     16  N   UNL     1       6.927   6.508  18.264  0.00  0.00    +0.000 N 
ATOM     17  C   UNL     1       7.609   5.769  19.297  0.00  0.00    +0.000 C 
BRANCH  15  18
ATOM     18  S   UNL     1       8.598   8.696  18.338  0.00  0.00    +0.000 S 
ATOM     19  H   UNL     1       7.865   9.456  19.166  0.00  0.00    +0.000 HD
ENDBRANCH  15  18
ENDBRANCH   6  12
TORSDOF 2
ENDMDL
MODEL 7
REMARK VINA RESULT:      -5.9      1.528      2.132
REMARK  Name = 
REMARK  5 active torsions:
REMARK  status: ('A' for Active; 'I' for Inactive)
REMARK    1  A    between atoms: C_1  and  C_2
REMARK    2  A    between atoms: C_6  and  C_7
REMARK    3  A    between atoms: C_10  and  S_11
REMARK    4  A    between atoms: N_12  and  C_13
REMARK    5  A    between atoms: C_14  and  C_15
REMARK                            x       y       z     vdW  Elec       q    Type
REMARK                         _______ _______ _______ _____ _____    ______ ____
ROOT
ATOM      1  C   UNL     1       6.590   3.037  11.962  0.00  0.00    +0.000 C 
ATOM      2  C   UNL     1       6.306   3.829  13.202  0.00  0.00    +0.000 A 
ATOM      3  C   UNL     1       4.933   3.851  13.693  0.00  0.00    +0.000 A 
ATOM      4  C   UNL     1       4.645   4.538  14.810  0.00  0.00    +0.000 A 
ATOM      5  N   UNL     1       5.668   5.173  15.516  0.00  0.00    +0.000 N 
ATOM      6  C   UNL     1       5.667   5.813  16.745  0.00  0.00    +0.000 A 
ATOM      7  C   UNL     1       6.915   6.421  16.823  0.00  0.00    +0.000 A 
ATOM      8  C   UNL     1       7.475   7.344  17.842  0.00  0.00    +0.000 C 
ATOM      9  N   UNL     1       7.720   6.024  15.779  0.00  0.00    +0.000 NA
ATOM     10  C   UNL     1       6.972   5.247  15.031  0.00  0.00    +0.000 A 
ATOM     11  C   UNL     1       7.272   4.523  13.840  0.00  0.00    +0.000 A 
ENDROOT
BRANCH   6  12
ATOM     12  C   UNL     1       4.591   5.858  17.684  0.00  0.00    +0.000 A 
ATOM     13  N   UNL     1       3.743   6.864  17.760  0.00  0.00    +0.000 NA
ATOM     14  N   UNL     1       2.864   6.629  18.790  0.00  0.00    +0.000 NA
ATOM     15  C   UNL     1       3.194   5.481  19.334  0.00  0.00    +0.000 A 
ATOM     16  N   UNL     1       4.287   4.959  18.696  0.00  0.00    +0.000 N 
ATOM     17  C   UNL     1       5.014   3.776  19.079  0.00  0.00    +0.000 C 
BRANCH  15  18
ATOM     18  S   UNL     1       2.371   4.758  20.663  0.00  0.00    +0.000 S 
ATOM     19  H   UNL     1       1.936   3.672  20.006  0.00  0.00    +0.000 HD
ENDBRANCH  15  18
ENDBRANCH   6  12
TORSDOF 2
ENDMDL
MODEL 8
REMARK VINA RESULT:      -5.9      3.333      6.173
REMARK  Name = 
REMARK  5 active torsions:
REMARK  status: ('A' for Active; 'I' for Inactive)
REMARK    1  A    between atoms: C_1  and  C_2
REMARK    2  A    between atoms: C_6  and  C_7
REMARK    3  A    between atoms: C_10  and  S_11
REMARK    4  A    between atoms: N_12  and  C_13
REMARK    5  A    between atoms: C_14  and  C_15
REMARK                            x       y       z     vdW  Elec       q    Type
REMARK                         _______ _______ _______ _____ _____    ______ ____
ROOT
ATOM      1  C   UNL     1       0.921  11.337  19.255  0.00  0.00    +0.000 C 
ATOM      2  C   UNL     1       1.356   9.909  19.114  0.00  0.00    +0.000 A 
ATOM      3  C   UNL     1       1.842   9.474  17.809  0.00  0.00    +0.000 A 
ATOM      4  C   UNL     1       2.254   8.206  17.650  0.00  0.00    +0.000 A 
ATOM      5  N   UNL     1       2.265   7.340  18.745  0.00  0.00    +0.000 N 
ATOM      6  C   UNL     1       2.764   6.054  18.884  0.00  0.00    +0.000 A 
ATOM      7  C   UNL     1       2.302   5.634  20.127  0.00  0.00    +0.000 A 
ATOM      8  C   UNL     1       2.403   4.313  20.796  0.00  0.00    +0.000 C 
ATOM      9  N   UNL     1       1.703   6.672  20.805  0.00  0.00    +0.000 NA
ATOM     10  C   UNL     1       1.728   7.693  19.980  0.00  0.00    +0.000 A 
ATOM     11  C   UNL     1       1.283   9.038  20.143  0.00  0.00    +0.000 A 
ENDROOT
BRANCH   6  12
ATOM     12  C   UNL     1       3.542   5.330  17.928  0.00  0.00    +0.000 A 
ATOM     13  N   UNL     1       3.172   4.166  17.433  0.00  0.00    +0.000 NA
ATOM     14  N   UNL     1       4.153   3.712  16.585  0.00  0.00    +0.000 NA
ATOM     15  C   UNL     1       5.113   4.607  16.578  0.00  0.00    +0.000 A 
ATOM     16  N   UNL     1       4.796   5.637  17.422  0.00  0.00    +0.000 N 
ATOM     17  C   UNL     1       5.648   6.745  17.774  0.00  0.00    +0.000 C 
BRANCH  15  18
ATOM     18  S   UNL     1       6.559   4.482  15.650  0.00  0.00    +0.000 S 
ATOM     19  H   UNL     1       7.379   4.206  16.675  0.00  0.00    +0.000 HD
ENDBRANCH  15  18
ENDBRANCH   6  12
TORSDOF 2
ENDMDL
MODEL 9
REMARK VINA RESULT:      -5.9      2.962      6.129
REMARK  Name = 
REMARK  5 active torsions:
REMARK  status: ('A' for Active; 'I' for Inactive)
REMARK    1  A    between atoms: C_1  and  C_2
REMARK    2  A    between atoms: C_6  and  C_7
REMARK    3  A    between atoms: C_10  and  S_11
REMARK    4  A    between atoms: N_12  and  C_13
REMARK    5  A    between atoms: C_14  and  C_15
REMARK                            x       y       z     vdW  Elec       q    Type
REMARK                         _______ _______ _______ _____ _____    ______ ____
ROOT
ATOM      1  C   UNL     1       0.780   9.864  20.722  0.00  0.00    +0.000 C 
ATOM      2  C   UNL     1       1.358   8.584  20.199  0.00  0.00    +0.000 A 
ATOM      3  C   UNL     1       1.856   8.575  18.828  0.00  0.00    +0.000 A 
ATOM      4  C   UNL     1       2.394   7.450  18.331  0.00  0.00    +0.000 A 
ATOM      5  N   UNL     1       2.523   6.325  19.147  0.00  0.00    +0.000 N 
ATOM      6  C   UNL     1       3.157   5.111  18.934  0.00  0.00    +0.000 A 
ATOM      7  C   UNL     1       2.771   4.322  20.011  0.00  0.00    +0.000 A 
ATOM      8  C   UNL     1       3.027   2.887  20.295  0.00  0.00    +0.000 C 
ATOM      9  N   UNL     1       2.084   5.066  20.944  0.00  0.00    +0.000 NA
ATOM     10  C   UNL     1       1.981   6.269  20.430  0.00  0.00    +0.000 A 
ATOM     11  C   UNL     1       1.402   7.463  20.950  0.00  0.00    +0.000 A 
ENDROOT
BRANCH   6  12
ATOM     12  C   UNL     1       3.983   4.762  17.820  0.00  0.00    +0.000 A 
ATOM     13  N   UNL     1       3.638   3.861  16.923  0.00  0.00    +0.000 NA
ATOM     14  N   UNL     1       4.662   3.722  16.017  0.00  0.00    +0.000 NA
ATOM     15  C   UNL     1       5.623   4.539  16.379  0.00  0.00    +0.000 A 
ATOM     16  N   UNL     1       5.262   5.204  17.520  0.00  0.00    +0.000 N 
ATOM     17  C   UNL     1       6.097   6.094  18.288  0.00  0.00    +0.000 C 
BRANCH  15  18
ATOM     18  S   UNL     1       7.115   4.725  15.540  0.00  0.00    +0.000 S 
ATOM     19  H   UNL     1       6.587   5.062  14.354  0.00  0.00    +0.000 HD
ENDBRANCH  15  18
ENDBRANCH   6  12
TORSDOF 2
ENDMDL
