MODEL 1
REMARK VINA RESULT:      -7.9      0.000      0.000
REMARK  Name = 
REMARK  7 active torsions:
REMARK  status: ('A' for Active; 'I' for Inactive)
REMARK    1  A    between atoms: C_1  and  C_2
REMARK    2  A    between atoms: C_2  and  C_3
REMARK    3  A    between atoms: N_5  and  C_6
REMARK    4  A    between atoms: C_13  and  C_14
REMARK    5  A    between atoms: C_14  and  C_15
REMARK    6  A    between atoms: C_15  and  N_16
REMARK    7  A    between atoms: N_28  and  C_29
REMARK                            x       y       z     vdW  Elec       q    Type
REMARK                         _______ _______ _______ _____ _____    ______ ____
ROOT
ATOM      1  C   UNL     1       4.913   4.584  16.422  0.00  0.00    +0.000 A 
ATOM      2  C   UNL     1       4.782   3.517  17.331  0.00  0.00    +0.000 A 
ATOM      3  C   UNL     1       4.087   3.637  18.519  0.00  0.00    +0.000 A 
ATOM      4  C   UNL     1       3.556   4.889  18.799  0.00  0.00    +0.000 A 
ATOM      5  C   UNL     1       3.737   5.999  17.990  0.00  0.00    +0.000 A 
ATOM      6  C   UNL     1       4.451   5.866  16.780  0.00  0.00    +0.000 A 
ATOM      7  N   UNL     1       3.108   7.085  18.551  0.00  0.00    +0.000 NA
ATOM      8  C   UNL     1       2.509   6.657  19.653  0.00  0.00    +0.000 A 
ATOM      9  N   UNL     1       2.761   5.315  19.834  0.00  0.00    +0.000 N 
ATOM     10  C   UNL     1       2.331   4.407  20.870  0.00  0.00    +0.000 C 
ENDROOT
BRANCH   1  13
ATOM     11  C   UNL     1       6.690   4.843  14.740  0.00  0.00    +0.000 C 
ATOM     12  O   UNL     1       7.467   5.461  15.466  0.00  0.00    +0.000 OA
ATOM     13  N   UNL     1       5.454   4.345  15.132  0.00  0.00    +0.000 N 
ATOM     14  H   UNL     1       5.033   3.608  14.576  0.00  0.00    +0.000 HD
BRANCH  11  16
ATOM     15  C   UNL     1       6.030   3.596  12.726  0.00  0.00    +0.000 C 
ATOM     16  C   UNL     1       7.070   4.540  13.310  0.00  0.00    +0.000 C 
ENDBRANCH  11  16
ENDBRANCH   1  13
BRANCH   8  17
ATOM     17  C   UNL     1       1.659   7.518  20.538  0.00  0.00    +0.000 C 
BRANCH  17  18
ATOM     18  C   UNL     1       1.515   8.951  19.997  0.00  0.00    +0.000 C 
BRANCH  18  19
ATOM     19  N   UNL     1       0.127   9.430  19.804  0.00  0.00    +0.000 NA
ATOM     20  C   UNL     1      -0.662   9.208  21.049  0.00  0.00    +0.000 C 
ATOM     21  C   UNL     1      -0.211  10.048  22.265  0.00  0.00    +0.000 C 
ATOM     22  N   UNL     1      -0.072  11.472  21.939  0.00  0.00    +0.000 N 
ATOM     23  C   UNL     1      -0.958  12.361  22.524  0.00  0.00    +0.000 A 
ATOM     24  C   UNL     1      -0.607  13.703  22.677  0.00  0.00    +0.000 A 
ATOM     25  C   UNL     1      -1.453  14.577  23.359  0.00  0.00    +0.000 A 
ATOM     26  C   UNL     1      -2.647  14.097  23.871  0.00  0.00    +0.000 A 
ATOM     27  C   UNL     1      -2.938  12.761  23.674  0.00  0.00    +0.000 A 
ATOM     28  N   UNL     1      -2.124  11.897  23.026  0.00  0.00    +0.000 NA
ATOM     29  C   UNL     1       0.559  11.805  20.654  0.00  0.00    +0.000 C 
ATOM     30  C   UNL     1       0.060  10.883  19.513  0.00  0.00    +0.000 C 
ENDBRANCH  18  19
ENDBRANCH  17  18
ENDBRANCH   8  17
TORSDOF 5
ENDMDL
MODEL 2
REMARK VINA RESULT:      -7.7      1.770      2.218
REMARK  Name = 
REMARK  7 active torsions:
REMARK  status: ('A' for Active; 'I' for Inactive)
REMARK    1  A    between atoms: C_1  and  C_2
REMARK    2  A    between atoms: C_2  and  C_3
REMARK    3  A    between atoms: N_5  and  C_6
REMARK    4  A    between atoms: C_13  and  C_14
REMARK    5  A    between atoms: C_14  and  C_15
REMARK    6  A    between atoms: C_15  and  N_16
REMARK    7  A    between atoms: N_28  and  C_29
REMARK                            x       y       z     vdW  Elec       q    Type
REMARK                         _______ _______ _______ _____ _____    ______ ____
ROOT
ATOM      1  C   UNL     1       4.790   5.063  16.513  0.00  0.00    +0.000 A 
ATOM      2  C   UNL     1       4.590   3.990  17.403  0.00  0.00    +0.000 A 
ATOM      3  C   UNL     1       3.849   4.118  18.562  0.00  0.00    +0.000 A 
ATOM      4  C   UNL     1       3.343   5.382  18.835  0.00  0.00    +0.000 A 
ATOM      5  C   UNL     1       3.591   6.495  18.048  0.00  0.00    +0.000 A 
ATOM      6  C   UNL     1       4.351   6.355  16.867  0.00  0.00    +0.000 A 
ATOM      7  N   UNL     1       2.972   7.593  18.596  0.00  0.00    +0.000 NA
ATOM      8  C   UNL     1       2.314   7.171  19.666  0.00  0.00    +0.000 A 
ATOM      9  N   UNL     1       2.519   5.820  19.841  0.00  0.00    +0.000 N 
ATOM     10  C   UNL     1       2.019   4.913  20.847  0.00  0.00    +0.000 C 
ENDROOT
BRANCH   1  13
ATOM     11  C   UNL     1       6.752   4.820  15.049  0.00  0.00    +0.000 C 
ATOM     12  O   UNL     1       7.593   4.944  15.938  0.00  0.00    +0.000 OA
ATOM     13  N   UNL     1       5.377   4.823  15.243  0.00  0.00    +0.000 N 
ATOM     14  H   UNL     1       4.788   4.419  14.523  0.00  0.00    +0.000 HD
BRANCH  11  16
ATOM     15  C   UNL     1       6.194   3.678  12.944  0.00  0.00    +0.000 C 
ATOM     16  C   UNL     1       7.189   4.610  13.618  0.00  0.00    +0.000 C 
ENDBRANCH  11  16
ENDBRANCH   1  13
BRANCH   8  17
ATOM     17  C   UNL     1       1.453   8.046  20.527  0.00  0.00    +0.000 C 
BRANCH  17  18
ATOM     18  C   UNL     1       0.983   9.311  19.786  0.00  0.00    +0.000 C 
BRANCH  18  19
ATOM     19  N   UNL     1      -0.171  10.017  20.390  0.00  0.00    +0.000 NA
ATOM     20  C   UNL     1       0.311  11.001  21.402  0.00  0.00    +0.000 C 
ATOM     21  C   UNL     1       1.130  12.179  20.828  0.00  0.00    +0.000 C 
ATOM     22  N   UNL     1       0.458  12.828  19.696  0.00  0.00    +0.000 N 
ATOM     23  C   UNL     1       0.005  14.124  19.867  0.00  0.00    +0.000 A 
ATOM     24  C   UNL     1      -0.172  14.958  18.762  0.00  0.00    +0.000 A 
ATOM     25  C   UNL     1      -0.526  16.295  18.940  0.00  0.00    +0.000 A 
ATOM     26  C   UNL     1      -0.711  16.778  20.224  0.00  0.00    +0.000 A 
ATOM     27  C   UNL     1      -0.531  15.897  21.273  0.00  0.00    +0.000 A 
ATOM     28  N   UNL     1      -0.176  14.601  21.119  0.00  0.00    +0.000 NA
ATOM     29  C   UNL     1      -0.189  11.949  18.711  0.00  0.00    +0.000 C 
ATOM     30  C   UNL     1      -0.954  10.786  19.391  0.00  0.00    +0.000 C 
ENDBRANCH  18  19
ENDBRANCH  17  18
ENDBRANCH   8  17
TORSDOF 5
ENDMDL
MODEL 3
REMARK VINA RESULT:      -7.7      1.269      1.710
REMARK  Name = 
REMARK  7 active torsions:
REMARK  status: ('A' for Active; 'I' for Inactive)
REMARK    1  A    between atoms: C_1  and  C_2
REMARK    2  A    between atoms: C_2  and  C_3
REMARK    3  A    between atoms: N_5  and  C_6
REMARK    4  A    between atoms: C_13  and  C_14
REMARK    5  A    between atoms: C_14  and  C_15
REMARK    6  A    between atoms: C_15  and  N_16
REMARK    7  A    between atoms: N_28  and  C_29
REMARK                            x       y       z     vdW  Elec       q    Type
REMARK                         _______ _______ _______ _____ _____    ______ ____
ROOT
ATOM      1  C   UNL     1       4.805   4.874  16.446  0.00  0.00    +0.000 A 
ATOM      2  C   UNL     1       4.529   3.877  17.400  0.00  0.00    +0.000 A 
ATOM      3  C   UNL     1       3.769   4.120  18.528  0.00  0.00    +0.000 A 
ATOM      4  C   UNL     1       3.323   5.423  18.701  0.00  0.00    +0.000 A 
ATOM      5  C   UNL     1       3.646   6.467  17.849  0.00  0.00    +0.000 A 
ATOM      6  C   UNL     1       4.426   6.208  16.701  0.00  0.00    +0.000 A 
ATOM      7  N   UNL     1       3.072   7.629  18.305  0.00  0.00    +0.000 NA
ATOM      8  C   UNL     1       2.369   7.314  19.383  0.00  0.00    +0.000 A 
ATOM      9  N   UNL     1       2.500   5.970  19.654  0.00  0.00    +0.000 N 
ATOM     10  C   UNL     1       1.930   5.161  20.705  0.00  0.00    +0.000 C 
ENDROOT
BRANCH   1  13
ATOM     11  C   UNL     1       6.679   4.952  14.853  0.00  0.00    +0.000 C 
ATOM     12  O   UNL     1       7.432   5.608  15.571  0.00  0.00    +0.000 OA
ATOM     13  N   UNL     1       5.409   4.519  15.211  0.00  0.00    +0.000 N 
ATOM     14  H   UNL     1       4.998   3.750  14.693  0.00  0.00    +0.000 HD
BRANCH  11  16
ATOM     15  C   UNL     1       6.054   3.631  12.876  0.00  0.00    +0.000 C 
ATOM     16  C   UNL     1       7.128   4.526  13.476  0.00  0.00    +0.000 C 
ENDBRANCH  11  16
ENDBRANCH   1  13
BRANCH   8  17
ATOM     17  C   UNL     1       1.535   8.288  20.160  0.00  0.00    +0.000 C 
BRANCH  17  18
ATOM     18  C   UNL     1       0.912   9.371  19.260  0.00  0.00    +0.000 C 
BRANCH  18  19
ATOM     19  N   UNL     1       1.162  10.772  19.672  0.00  0.00    +0.000 NA
ATOM     20  C   UNL     1       0.257  11.689  18.922  0.00  0.00    +0.000 C 
ATOM     21  C   UNL     1      -1.245  11.533  19.249  0.00  0.00    +0.000 C 
ATOM     22  N   UNL     1      -1.507  11.548  20.693  0.00  0.00    +0.000 N 
ATOM     23  C   UNL     1      -2.210  12.622  21.213  0.00  0.00    +0.000 A 
ATOM     24  C   UNL     1      -2.915  12.485  22.410  0.00  0.00    +0.000 A 
ATOM     25  C   UNL     1      -3.709  13.531  22.880  0.00  0.00    +0.000 A 
ATOM     26  C   UNL     1      -3.776  14.707  22.152  0.00  0.00    +0.000 A 
ATOM     27  C   UNL     1      -3.044  14.779  20.983  0.00  0.00    +0.000 A 
ATOM     28  N   UNL     1      -2.280  13.771  20.505  0.00  0.00    +0.000 NA
ATOM     29  C   UNL     1      -0.579  10.796  21.548  0.00  0.00    +0.000 C 
ATOM     30  C   UNL     1       0.895  10.998  21.114  0.00  0.00    +0.000 C 
ENDBRANCH  18  19
ENDBRANCH  17  18
ENDBRANCH   8  17
TORSDOF 5
ENDMDL
MODEL 4
REMARK VINA RESULT:      -7.7      3.585      4.248
REMARK  Name = 
REMARK  7 active torsions:
REMARK  status: ('A' for Active; 'I' for Inactive)
REMARK    1  A    between atoms: C_1  and  C_2
REMARK    2  A    between atoms: C_2  and  C_3
REMARK    3  A    between atoms: N_5  and  C_6
REMARK    4  A    between atoms: C_13  and  C_14
REMARK    5  A    between atoms: C_14  and  C_15
REMARK    6  A    between atoms: C_15  and  N_16
REMARK    7  A    between atoms: N_28  and  C_29
REMARK                            x       y       z     vdW  Elec       q    Type
REMARK                         _______ _______ _______ _____ _____    ______ ____
ROOT
ATOM      1  C   UNL     1       4.029   5.753  17.573  0.00  0.00    +0.000 A 
ATOM      2  C   UNL     1       3.773   5.384  18.907  0.00  0.00    +0.000 A 
ATOM      3  C   UNL     1       2.992   6.150  19.751  0.00  0.00    +0.000 A 
ATOM      4  C   UNL     1       2.504   7.341  19.229  0.00  0.00    +0.000 A 
ATOM      5  C   UNL     1       2.805   7.803  17.957  0.00  0.00    +0.000 A 
ATOM      6  C   UNL     1       3.605   7.014  17.104  0.00  0.00    +0.000 A 
ATOM      7  N   UNL     1       2.189   9.015  17.751  0.00  0.00    +0.000 NA
ATOM      8  C   UNL     1       1.484   9.279  18.840  0.00  0.00    +0.000 A 
ATOM      9  N   UNL     1       1.653   8.273  19.766  0.00  0.00    +0.000 N 
ATOM     10  C   UNL     1       1.096   8.106  21.087  0.00  0.00    +0.000 C 
ENDROOT
BRANCH   1  13
ATOM     11  C   UNL     1       6.020   4.871  16.428  0.00  0.00    +0.000 C 
ATOM     12  O   UNL     1       6.824   5.635  16.960  0.00  0.00    +0.000 OA
ATOM     13  N   UNL     1       4.658   4.832  16.696  0.00  0.00    +0.000 N 
ATOM     14  H   UNL     1       4.142   3.994  16.450  0.00  0.00    +0.000 HD
BRANCH  11  16
ATOM     15  C   UNL     1       5.900   4.196  14.067  0.00  0.00    +0.000 C 
ATOM     16  C   UNL     1       6.497   3.851  15.422  0.00  0.00    +0.000 C 
ENDBRANCH  11  16
ENDBRANCH   1  13
BRANCH   8  17
ATOM     17  C   UNL     1       0.610  10.487  19.006  0.00  0.00    +0.000 C 
BRANCH  17  18
ATOM     18  C   UNL     1      -0.758  10.316  18.321  0.00  0.00    +0.000 C 
BRANCH  18  19
ATOM     19  N   UNL     1      -1.287  11.517  17.634  0.00  0.00    +0.000 NA
ATOM     20  C   UNL     1      -2.429  11.136  16.755  0.00  0.00    +0.000 C 
ATOM     21  C   UNL     1      -3.683  10.627  17.500  0.00  0.00    +0.000 C 
ATOM     22  N   UNL     1      -4.091  11.526  18.586  0.00  0.00    +0.000 N 
ATOM     23  C   UNL     1      -5.291  12.204  18.450  0.00  0.00    +0.000 A 
ATOM     24  C   UNL     1      -5.975  12.654  19.581  0.00  0.00    +0.000 A 
ATOM     25  C   UNL     1      -7.232  13.242  19.453  0.00  0.00    +0.000 A 
ATOM     26  C   UNL     1      -7.785  13.385  18.192  0.00  0.00    +0.000 A 
ATOM     27  C   UNL     1      -7.050  12.929  17.115  0.00  0.00    +0.000 A 
ATOM     28  N   UNL     1      -5.834  12.345  17.221  0.00  0.00    +0.000 NA
ATOM     29  C   UNL     1      -3.023  12.086  19.426  0.00  0.00    +0.000 C 
ATOM     30  C   UNL     1      -1.803  12.535  18.583  0.00  0.00    +0.000 C 
ENDBRANCH  18  19
ENDBRANCH  17  18
ENDBRANCH   8  17
TORSDOF 5
ENDMDL
MODEL 5
REMARK VINA RESULT:      -7.6      3.214      5.977
REMARK  Name = 
REMARK  7 active torsions:
REMARK  status: ('A' for Active; 'I' for Inactive)
REMARK    1  A    between atoms: C_1  and  C_2
REMARK    2  A    between atoms: C_2  and  C_3
REMARK    3  A    between atoms: N_5  and  C_6
REMARK    4  A    between atoms: C_13  and  C_14
REMARK    5  A    between atoms: C_14  and  C_15
REMARK    6  A    between atoms: C_15  and  N_16
REMARK    7  A    between atoms: N_28  and  C_29
REMARK                            x       y       z     vdW  Elec       q    Type
REMARK                         _______ _______ _______ _____ _____    ______ ____
ROOT
ATOM      1  C   UNL     1       7.872   6.790  18.416  0.00  0.00    +0.000 A 
ATOM      2  C   UNL     1       7.696   6.729  17.020  0.00  0.00    +0.000 A 
ATOM      3  C   UNL     1       6.805   5.857  16.423  0.00  0.00    +0.000 A 
ATOM      4  C   UNL     1       6.118   5.000  17.272  0.00  0.00    +0.000 A 
ATOM      5  C   UNL     1       6.323   4.946  18.641  0.00  0.00    +0.000 A 
ATOM      6  C   UNL     1       7.237   5.839  19.241  0.00  0.00    +0.000 A 
ATOM      7  N   UNL     1       5.510   3.984  19.191  0.00  0.00    +0.000 NA
ATOM      8  C   UNL     1       4.781   3.485  18.204  0.00  0.00    +0.000 A 
ATOM      9  N   UNL     1       5.127   4.086  17.014  0.00  0.00    +0.000 N 
ATOM     10  C   UNL     1       4.620   3.889  15.677  0.00  0.00    +0.000 C 
ENDROOT
BRANCH   1  13
ATOM     11  C   UNL     1       8.534   9.155  18.548  0.00  0.00    +0.000 C 
ATOM     12  O   UNL     1       7.736   9.561  17.703  0.00  0.00    +0.000 OA
ATOM     13  N   UNL     1       8.639   7.841  18.982  0.00  0.00    +0.000 N 
ATOM     14  H   UNL     1       9.094   7.661  19.871  0.00  0.00    +0.000 HD
BRANCH  11  16
ATOM     15  C   UNL     1       9.293  11.494  18.591  0.00  0.00    +0.000 C 
ATOM     16  C   UNL     1       9.474  10.123  19.226  0.00  0.00    +0.000 C 
ENDBRANCH  11  16
ENDBRANCH   1  13
BRANCH   8  17
ATOM     17  C   UNL     1       3.719   2.443  18.384  0.00  0.00    +0.000 C 
BRANCH  17  18
ATOM     18  C   UNL     1       3.106   2.472  19.796  0.00  0.00    +0.000 C 
BRANCH  18  19
ATOM     19  N   UNL     1       1.754   3.069  19.898  0.00  0.00    +0.000 NA
ATOM     20  C   UNL     1       1.685   3.963  21.090  0.00  0.00    +0.000 C 
ATOM     21  C   UNL     1       2.575   5.224  21.012  0.00  0.00    +0.000 C 
ATOM     22  N   UNL     1       2.397   5.957  19.753  0.00  0.00    +0.000 N 
ATOM     23  C   UNL     1       1.814   7.211  19.811  0.00  0.00    +0.000 A 
ATOM     24  C   UNL     1       2.058   8.145  18.802  0.00  0.00    +0.000 A 
ATOM     25  C   UNL     1       1.558   9.443  18.911  0.00  0.00    +0.000 A 
ATOM     26  C   UNL     1       0.811   9.786  20.024  0.00  0.00    +0.000 A 
ATOM     27  C   UNL     1       0.599   8.811  20.979  0.00  0.00    +0.000 A 
ATOM     28  N   UNL     1       1.085   7.552  20.896  0.00  0.00    +0.000 NA
ATOM     29  C   UNL     1       2.298   5.158  18.523  0.00  0.00    +0.000 C 
ATOM     30  C   UNL     1       1.409   3.904  18.721  0.00  0.00    +0.000 C 
ENDBRANCH  18  19
ENDBRANCH  17  18
ENDBRANCH   8  17
TORSDOF 5
ENDMDL
MODEL 6
REMARK VINA RESULT:      -7.5      1.040      1.650
REMARK  Name = 
REMARK  7 active torsions:
REMARK  status: ('A' for Active; 'I' for Inactive)
REMARK    1  A    between atoms: C_1  and  C_2
REMARK    2  A    between atoms: C_2  and  C_3
REMARK    3  A    between atoms: N_5  and  C_6
REMARK    4  A    between atoms: C_13  and  C_14
REMARK    5  A    between atoms: C_14  and  C_15
REMARK    6  A    between atoms: C_15  and  N_16
REMARK    7  A    between atoms: N_28  and  C_29
REMARK                            x       y       z     vdW  Elec       q    Type
REMARK                         _______ _______ _______ _____ _____    ______ ____
ROOT
ATOM      1  C   UNL     1       4.775   5.478  16.676  0.00  0.00    +0.000 A 
ATOM      2  C   UNL     1       4.772   4.319  17.475  0.00  0.00    +0.000 A 
ATOM      3  C   UNL     1       4.052   4.232  18.651  0.00  0.00    +0.000 A 
ATOM      4  C   UNL     1       3.360   5.373  19.037  0.00  0.00    +0.000 A 
ATOM      5  C   UNL     1       3.407   6.571  18.343  0.00  0.00    +0.000 A 
ATOM      6  C   UNL     1       4.147   6.650  17.144  0.00  0.00    +0.000 A 
ATOM      7  N   UNL     1       2.637   7.508  18.990  0.00  0.00    +0.000 NA
ATOM      8  C   UNL     1       2.084   6.901  20.030  0.00  0.00    +0.000 A 
ATOM      9  N   UNL     1       2.505   5.591  20.088  0.00  0.00    +0.000 N 
ATOM     10  C   UNL     1       2.182   4.538  21.021  0.00  0.00    +0.000 C 
ENDROOT
BRANCH   1  13
ATOM     11  C   UNL     1       6.639   4.950  15.159  0.00  0.00    +0.000 C 
ATOM     12  O   UNL     1       7.362   4.442  16.014  0.00  0.00    +0.000 OA
ATOM     13  N   UNL     1       5.358   5.438  15.383  0.00  0.00    +0.000 N 
ATOM     14  H   UNL     1       4.740   5.552  14.587  0.00  0.00    +0.000 HD
BRANCH  11  16
ATOM     15  C   UNL     1       6.676   3.790  12.992  0.00  0.00    +0.000 C 
ATOM     16  C   UNL     1       7.112   5.047  13.728  0.00  0.00    +0.000 C 
ENDBRANCH  11  16
ENDBRANCH   1  13
BRANCH   8  17
ATOM     17  C   UNL     1       1.119   7.555  20.973  0.00  0.00    +0.000 C 
BRANCH  17  18
ATOM     18  C   UNL     1       0.878   9.036  20.628  0.00  0.00    +0.000 C 
BRANCH  18  19
ATOM     19  N   UNL     1       1.264  10.011  21.673  0.00  0.00    +0.000 NA
ATOM     20  C   UNL     1       0.970  11.397  21.206  0.00  0.00    +0.000 C 
ATOM     21  C   UNL     1      -0.530  11.717  21.022  0.00  0.00    +0.000 C 
ATOM     22  N   UNL     1      -1.330  11.342  22.193  0.00  0.00    +0.000 N 
ATOM     23  C   UNL     1      -1.910  12.357  22.935  0.00  0.00    +0.000 A 
ATOM     24  C   UNL     1      -3.041  12.102  23.711  0.00  0.00    +0.000 A 
ATOM     25  C   UNL     1      -3.688  13.144  24.374  0.00  0.00    +0.000 A 
ATOM     26  C   UNL     1      -3.186  14.429  24.262  0.00  0.00    +0.000 A 
ATOM     27  C   UNL     1      -2.057  14.611  23.487  0.00  0.00    +0.000 A 
ATOM     28  N   UNL     1      -1.424  13.614  22.827  0.00  0.00    +0.000 NA
ATOM     29  C   UNL     1      -1.019  10.055  22.831  0.00  0.00    +0.000 C 
ATOM     30  C   UNL     1       0.509   9.821  22.937  0.00  0.00    +0.000 C 
ENDBRANCH  18  19
ENDBRANCH  17  18
ENDBRANCH   8  17
TORSDOF 5
ENDMDL
MODEL 7
REMARK VINA RESULT:      -7.5      1.079      1.588
REMARK  Name = 
REMARK  7 active torsions:
REMARK  status: ('A' for Active; 'I' for Inactive)
REMARK    1  A    between atoms: C_1  and  C_2
REMARK    2  A    between atoms: C_2  and  C_3
REMARK    3  A    between atoms: N_5  and  C_6
REMARK    4  A    between atoms: C_13  and  C_14
REMARK    5  A    between atoms: C_14  and  C_15
REMARK    6  A    between atoms: C_15  and  N_16
REMARK    7  A    between atoms: N_28  and  C_29
REMARK                            x       y       z     vdW  Elec       q    Type
REMARK                         _______ _______ _______ _____ _____    ______ ____
ROOT
ATOM      1  C   UNL     1       4.581   4.358  16.479  0.00  0.00    +0.000 A 
ATOM      2  C   UNL     1       4.003   3.149  16.911  0.00  0.00    +0.000 A 
ATOM      3  C   UNL     1       3.153   3.081  17.998  0.00  0.00    +0.000 A 
ATOM      4  C   UNL     1       2.931   4.268  18.682  0.00  0.00    +0.000 A 
ATOM      5  C   UNL     1       3.549   5.467  18.364  0.00  0.00    +0.000 A 
ATOM      6  C   UNL     1       4.417   5.525  17.254  0.00  0.00    +0.000 A 
ATOM      7  N   UNL     1       3.137   6.443  19.240  0.00  0.00    +0.000 NA
ATOM      8  C   UNL     1       2.249   5.886  20.050  0.00  0.00    +0.000 A 
ATOM      9  N   UNL     1       2.098   4.553  19.736  0.00  0.00    +0.000 N 
ATOM     10  C   UNL     1       1.254   3.538  20.320  0.00  0.00    +0.000 C 
ENDROOT
BRANCH   1  13
ATOM     11  C   UNL     1       6.642   4.621  15.162  0.00  0.00    +0.000 C 
ATOM     12  O   UNL     1       7.401   4.717  16.125  0.00  0.00    +0.000 OA
ATOM     13  N   UNL     1       5.273   4.405  15.241  0.00  0.00    +0.000 N 
ATOM     14  H   UNL     1       4.793   4.043  14.423  0.00  0.00    +0.000 HD
BRANCH  11  16
ATOM     15  C   UNL     1       6.357   3.795  12.863  0.00  0.00    +0.000 C 
ATOM     16  C   UNL     1       7.190   4.701  13.757  0.00  0.00    +0.000 C 
ENDBRANCH  11  16
ENDBRANCH   1  13
BRANCH   8  17
ATOM     17  C   UNL     1       1.507   6.624  21.123  0.00  0.00    +0.000 C 
BRANCH  17  18
ATOM     18  C   UNL     1       0.880   7.931  20.605  0.00  0.00    +0.000 C 
BRANCH  18  19
ATOM     19  N   UNL     1       1.433   9.180  21.177  0.00  0.00    +0.000 NA
ATOM     20  C   UNL     1       1.003  10.348  20.355  0.00  0.00    +0.000 C 
ATOM     21  C   UNL     1      -0.515  10.640  20.382  0.00  0.00    +0.000 C 
ATOM     22  N   UNL     1      -1.049  10.692  21.748  0.00  0.00    +0.000 N 
ATOM     23  C   UNL     1      -1.504  11.911  22.220  0.00  0.00    +0.000 A 
ATOM     24  C   UNL     1      -2.447  11.958  23.248  0.00  0.00    +0.000 A 
ATOM     25  C   UNL     1      -2.984  13.180  23.653  0.00  0.00    +0.000 A 
ATOM     26  C   UNL     1      -2.561  14.342  23.030  0.00  0.00    +0.000 A 
ATOM     27  C   UNL     1      -1.617  14.225  22.028  0.00  0.00    +0.000 A 
ATOM     28  N   UNL     1      -1.094  13.048  21.615  0.00  0.00    +0.000 NA
ATOM     29  C   UNL     1      -0.571   9.672  22.692  0.00  0.00    +0.000 C 
ATOM     30  C   UNL     1       0.955   9.436  22.559  0.00  0.00    +0.000 C 
ENDBRANCH  18  19
ENDBRANCH  17  18
ENDBRANCH   8  17
TORSDOF 5
ENDMDL
MODEL 8
REMARK VINA RESULT:      -7.2      1.759      3.043
REMARK  Name = 
REMARK  7 active torsions:
REMARK  status: ('A' for Active; 'I' for Inactive)
REMARK    1  A    between atoms: C_1  and  C_2
REMARK    2  A    between atoms: C_2  and  C_3
REMARK    3  A    between atoms: N_5  and  C_6
REMARK    4  A    between atoms: C_13  and  C_14
REMARK    5  A    between atoms: C_14  and  C_15
REMARK    6  A    between atoms: C_15  and  N_16
REMARK    7  A    between atoms: N_28  and  C_29
REMARK                            x       y       z     vdW  Elec       q    Type
REMARK                         _______ _______ _______ _____ _____    ______ ____
ROOT
ATOM      1  C   UNL     1       3.920   6.249  17.632  0.00  0.00    +0.000 A 
ATOM      2  C   UNL     1       3.493   5.855  18.915  0.00  0.00    +0.000 A 
ATOM      3  C   UNL     1       2.632   6.621  19.677  0.00  0.00    +0.000 A 
ATOM      4  C   UNL     1       2.239   7.836  19.130  0.00  0.00    +0.000 A 
ATOM      5  C   UNL     1       2.705   8.320  17.918  0.00  0.00    +0.000 A 
ATOM      6  C   UNL     1       3.586   7.531  17.149  0.00  0.00    +0.000 A 
ATOM      7  N   UNL     1       2.148   9.552  17.669  0.00  0.00    +0.000 NA
ATOM      8  C   UNL     1       1.319   9.809  18.670  0.00  0.00    +0.000 A 
ATOM      9  N   UNL     1       1.349   8.777  19.583  0.00  0.00    +0.000 N 
ATOM     10  C   UNL     1       0.630   8.593  20.821  0.00  0.00    +0.000 C 
ENDROOT
BRANCH   1  13
ATOM     11  C   UNL     1       6.019   5.309  16.758  0.00  0.00    +0.000 C 
ATOM     12  O   UNL     1       6.768   6.004  17.442  0.00  0.00    +0.000 OA
ATOM     13  N   UNL     1       4.632   5.332  16.816  0.00  0.00    +0.000 N 
ATOM     14  H   UNL     1       4.121   4.535  16.453  0.00  0.00    +0.000 HD
BRANCH  11  16
ATOM     15  C   UNL     1       5.818   4.401  14.482  0.00  0.00    +0.000 C 
ATOM     16  C   UNL     1       6.596   4.307  15.786  0.00  0.00    +0.000 C 
ENDBRANCH  11  16
ENDBRANCH   1  13
BRANCH   8  17
ATOM     17  C   UNL     1       0.459  11.034  18.760  0.00  0.00    +0.000 C 
BRANCH  17  18
ATOM     18  C   UNL     1       0.996  12.051  19.783  0.00  0.00    +0.000 C 
BRANCH  18  19
ATOM     19  N   UNL     1       0.158  13.253  19.996  0.00  0.00    +0.000 NA
ATOM     20  C   UNL     1      -1.234  12.987  19.532  0.00  0.00    +0.000 C 
ATOM     21  C   UNL     1      -2.002  11.926  20.351  0.00  0.00    +0.000 C 
ATOM     22  N   UNL     1      -1.934  12.176  21.795  0.00  0.00    +0.000 N 
ATOM     23  C   UNL     1      -3.102  12.528  22.449  0.00  0.00    +0.000 A 
ATOM     24  C   UNL     1      -3.238  12.296  23.818  0.00  0.00    +0.000 A 
ATOM     25  C   UNL     1      -4.451  12.553  24.457  0.00  0.00    +0.000 A 
ATOM     26  C   UNL     1      -5.510  13.050  23.718  0.00  0.00    +0.000 A 
ATOM     27  C   UNL     1      -5.305  13.267  22.369  0.00  0.00    +0.000 A 
ATOM     28  N   UNL     1      -4.140  13.013  21.731  0.00  0.00    +0.000 NA
ATOM     29  C   UNL     1      -0.634  12.596  22.339  0.00  0.00    +0.000 C 
ATOM     30  C   UNL     1       0.063  13.636  21.426  0.00  0.00    +0.000 C 
ENDBRANCH  18  19
ENDBRANCH  17  18
ENDBRANCH   8  17
TORSDOF 5
ENDMDL
MODEL 9
REMARK VINA RESULT:      -7.2      2.612     10.659
REMARK  Name = 
REMARK  7 active torsions:
REMARK  status: ('A' for Active; 'I' for Inactive)
REMARK    1  A    between atoms: C_1  and  C_2
REMARK    2  A    between atoms: C_2  and  C_3
REMARK    3  A    between atoms: N_5  and  C_6
REMARK    4  A    between atoms: C_13  and  C_14
REMARK    5  A    between atoms: C_14  and  C_15
REMARK    6  A    between atoms: C_15  and  N_16
REMARK    7  A    between atoms: N_28  and  C_29
REMARK                            x       y       z     vdW  Elec       q    Type
REMARK                         _______ _______ _______ _____ _____    ______ ____
ROOT
ATOM      1  C   UNL     1       0.124  10.056  20.791  0.00  0.00    +0.000 A 
ATOM      2  C   UNL     1       0.594  10.492  19.538  0.00  0.00    +0.000 A 
ATOM      3  C   UNL     1       1.423   9.719  18.748  0.00  0.00    +0.000 A 
ATOM      4  C   UNL     1       1.815   8.497  19.277  0.00  0.00    +0.000 A 
ATOM      5  C   UNL     1       1.465   8.059  20.544  0.00  0.00    +0.000 A 
ATOM      6  C   UNL     1       0.619   8.857  21.344  0.00  0.00    +0.000 A 
ATOM      7  N   UNL     1       2.026   6.826  20.777  0.00  0.00    +0.000 NA
ATOM      8  C   UNL     1       2.665   6.478  19.670  0.00  0.00    +0.000 A 
ATOM      9  N   UNL     1       2.556   7.479  18.729  0.00  0.00    +0.000 N 
ATOM     10  C   UNL     1       3.070   7.567  17.383  0.00  0.00    +0.000 C 
ENDROOT
BRANCH   1  13
ATOM     11  C   UNL     1      -0.643  12.038  22.030  0.00  0.00    +0.000 C 
ATOM     12  O   UNL     1       0.418  12.655  21.959  0.00  0.00    +0.000 OA
ATOM     13  N   UNL     1      -0.886  10.796  21.460  0.00  0.00    +0.000 N 
ATOM     14  H   UNL     1      -1.849  10.513  21.311  0.00  0.00    +0.000 HD
BRANCH  11  16
ATOM     15  C   UNL     1      -2.510  13.624  21.814  0.00  0.00    +0.000 C 
ATOM     16  C   UNL     1      -1.823  12.644  22.753  0.00  0.00    +0.000 C 
ENDBRANCH  11  16
ENDBRANCH   1  13
BRANCH   8  17
ATOM     17  C   UNL     1       3.370   5.169  19.480  0.00  0.00    +0.000 C 
BRANCH  17  18
ATOM     18  C   UNL     1       4.854   5.353  19.112  0.00  0.00    +0.000 C 
BRANCH  18  19
ATOM     19  N   UNL     1       5.514   4.179  18.497  0.00  0.00    +0.000 NA
ATOM     20  C   UNL     1       4.705   3.689  17.343  0.00  0.00    +0.000 C 
ATOM     21  C   UNL     1       4.625   4.662  16.145  0.00  0.00    +0.000 C 
ATOM     22  N   UNL     1       5.946   5.151  15.733  0.00  0.00    +0.000 N 
ATOM     23  C   UNL     1       6.427   4.756  14.497  0.00  0.00    +0.000 A 
ATOM     24  C   UNL     1       7.379   5.532  13.834  0.00  0.00    +0.000 A 
ATOM     25  C   UNL     1       7.787   5.193  12.544  0.00  0.00    +0.000 A 
ATOM     26  C   UNL     1       7.244   4.072  11.938  0.00  0.00    +0.000 A 
ATOM     27  C   UNL     1       6.314   3.344  12.655  0.00  0.00    +0.000 A 
ATOM     28  N   UNL     1       5.899   3.664  13.901  0.00  0.00    +0.000 NA
ATOM     29  C   UNL     1       6.885   5.520  16.802  0.00  0.00    +0.000 C 
ATOM     30  C   UNL     1       6.863   4.496  17.965  0.00  0.00    +0.000 C 
ENDBRANCH  18  19
ENDBRANCH  17  18
ENDBRANCH   8  17
TORSDOF 5
ENDMDL
