MODEL 1
REMARK VINA RESULT:      -8.8      0.000      0.000
REMARK  Name = 
REMARK  3 active torsions:
REMARK  status: ('A' for Active; 'I' for Inactive)
REMARK    1  A    between atoms: C_4  and  C_5
REMARK    2  A    between atoms: C_4  and  C_11
REMARK    3  A    between atoms: C_14  and  O_15
REMARK                            x       y       z     vdW  Elec       q    Type
REMARK                         _______ _______ _______ _____ _____    ______ ____
ROOT
ATOM      1  O   UNL     1       7.223   5.230  20.043  0.00  0.00    +0.000 OA
ATOM      2  C   UNL     1       6.223   5.243  19.358  0.00  0.00    +0.000 C 
ATOM      3  O   UNL     1       4.960   5.563  19.759  0.00  0.00    +0.000 OA
ATOM      4  C   UNL     1       3.964   5.378  18.708  0.00  0.00    +0.000 C 
ATOM      5  C   UNL     1       4.841   5.063  17.523  0.00  0.00    +0.000 A 
ATOM      6  C   UNL     1       4.521   4.917  16.175  0.00  0.00    +0.000 A 
ATOM      7  C   UNL     1       5.547   4.663  15.265  0.00  0.00    +0.000 A 
ATOM      8  C   UNL     1       6.876   4.546  15.703  0.00  0.00    +0.000 A 
ATOM      9  C   UNL     1       7.190   4.699  17.054  0.00  0.00    +0.000 A 
ATOM     10  C   UNL     1       6.151   4.962  17.932  0.00  0.00    +0.000 A 
ENDROOT
BRANCH   4  11
ATOM     11  C   UNL     1       3.086   4.156  19.055  0.00  0.00    +0.000 A 
ATOM     12  C   UNL     1       2.116   3.662  18.161  0.00  0.00    +0.000 A 
ATOM     13  C   UNL     1       1.211   2.671  18.554  0.00  0.00    +0.000 A 
ATOM     14  C   UNL     1       1.262   2.148  19.842  0.00  0.00    +0.000 A 
ATOM     15  C   UNL     1       2.251   2.575  20.722  0.00  0.00    +0.000 A 
ATOM     16  C   UNL     1       3.167   3.552  20.324  0.00  0.00    +0.000 A 
ENDBRANCH   4  11
BRANCH   4  17
ATOM     17  C   UNL     1       3.224   6.723  18.595  0.00  0.00    +0.000 A 
ATOM     18  C   UNL     1       2.292   7.135  19.574  0.00  0.00    +0.000 A 
ATOM     19  C   UNL     1       1.606   8.348  19.478  0.00  0.00    +0.000 A 
ATOM     20  C   UNL     1       1.821   9.161  18.375  0.00  0.00    +0.000 A 
ATOM     21  C   UNL     1       2.699   8.772  17.372  0.00  0.00    +0.000 A 
ATOM     22  C   UNL     1       3.393   7.559  17.475  0.00  0.00    +0.000 A 
BRANCH  20  23
ATOM     23  O   UNL     1       1.173  10.350  18.239  0.00  0.00    +0.000 OA
ATOM     24  H   UNL     1       1.315  10.876  19.045  0.00  0.00    +0.000 HD
ENDBRANCH  20  23
ENDBRANCH   4  17
TORSDOF 3
ENDMDL
MODEL 2
REMARK VINA RESULT:      -8.8      0.118      1.011
REMARK  Name = 
REMARK  3 active torsions:
REMARK  status: ('A' for Active; 'I' for Inactive)
REMARK    1  A    between atoms: C_4  and  C_5
REMARK    2  A    between atoms: C_4  and  C_11
REMARK    3  A    between atoms: C_14  and  O_15
REMARK                            x       y       z     vdW  Elec       q    Type
REMARK                         _______ _______ _______ _____ _____    ______ ____
ROOT
ATOM      1  O   UNL     1       7.235   5.236  20.029  0.00  0.00    +0.000 OA
ATOM      2  C   UNL     1       6.231   5.239  19.351  0.00  0.00    +0.000 C 
ATOM      3  O   UNL     1       4.962   5.515  19.767  0.00  0.00    +0.000 OA
ATOM      4  C   UNL     1       3.964   5.328  18.717  0.00  0.00    +0.000 C 
ATOM      5  C   UNL     1       4.841   5.066  17.520  0.00  0.00    +0.000 A 
ATOM      6  C   UNL     1       4.516   4.945  16.171  0.00  0.00    +0.000 A 
ATOM      7  C   UNL     1       5.543   4.741  15.248  0.00  0.00    +0.000 A 
ATOM      8  C   UNL     1       6.877   4.649  15.676  0.00  0.00    +0.000 A 
ATOM      9  C   UNL     1       7.196   4.778  17.028  0.00  0.00    +0.000 A 
ATOM     10  C   UNL     1       6.156   4.991  17.918  0.00  0.00    +0.000 A 
ENDROOT
BRANCH   4  11
ATOM     11  C   UNL     1       3.122   4.074  19.040  0.00  0.00    +0.000 A 
ATOM     12  C   UNL     1       2.193   3.548  18.120  0.00  0.00    +0.000 A 
ATOM     13  C   UNL     1       1.315   2.524  18.488  0.00  0.00    +0.000 A 
ATOM     14  C   UNL     1       1.352   2.000  19.776  0.00  0.00    +0.000 A 
ATOM     15  C   UNL     1       2.302   2.459  20.682  0.00  0.00    +0.000 A 
ATOM     16  C   UNL     1       3.192   3.470  20.310  0.00  0.00    +0.000 A 
ENDBRANCH   4  11
BRANCH   4  17
ATOM     17  C   UNL     1       3.187   6.655  18.642  0.00  0.00    +0.000 A 
ATOM     18  C   UNL     1       3.374   7.557  17.570  0.00  0.00    +0.000 A 
ATOM     19  C   UNL     1       2.684   8.768  17.495  0.00  0.00    +0.000 A 
ATOM     20  C   UNL     1       1.812   9.115  18.516  0.00  0.00    +0.000 A 
ATOM     21  C   UNL     1       1.632   8.273  19.607  0.00  0.00    +0.000 A 
ATOM     22  C   UNL     1       2.318   7.053  19.675  0.00  0.00    +0.000 A 
BRANCH  20  23
ATOM     23  O   UNL     1       1.119  10.286  18.486  0.00  0.00    +0.000 OA
ATOM     24  H   UNL     1       1.741  11.010  18.298  0.00  0.00    +0.000 HD
ENDBRANCH  20  23
ENDBRANCH   4  17
TORSDOF 3
ENDMDL
MODEL 3
REMARK VINA RESULT:      -8.7      0.751      1.043
REMARK  Name = 
REMARK  3 active torsions:
REMARK  status: ('A' for Active; 'I' for Inactive)
REMARK    1  A    between atoms: C_4  and  C_5
REMARK    2  A    between atoms: C_4  and  C_11
REMARK    3  A    between atoms: C_14  and  O_15
REMARK                            x       y       z     vdW  Elec       q    Type
REMARK                         _______ _______ _______ _____ _____    ______ ____
ROOT
ATOM      1  O   UNL     1       7.219   5.249  20.022  0.00  0.00    +0.000 OA
ATOM      2  C   UNL     1       6.232   5.305  19.322  0.00  0.00    +0.000 C 
ATOM      3  O   UNL     1       4.945   5.485  19.733  0.00  0.00    +0.000 OA
ATOM      4  C   UNL     1       3.979   5.402  18.641  0.00  0.00    +0.000 C 
ATOM      5  C   UNL     1       4.893   5.323  17.445  0.00  0.00    +0.000 A 
ATOM      6  C   UNL     1       4.606   5.364  16.083  0.00  0.00    +0.000 A 
ATOM      7  C   UNL     1       5.661   5.313  15.171  0.00  0.00    +0.000 A 
ATOM      8  C   UNL     1       6.987   5.211  15.622  0.00  0.00    +0.000 A 
ATOM      9  C   UNL     1       7.268   5.176  16.987  0.00  0.00    +0.000 A 
ATOM     10  C   UNL     1       6.201   5.241  17.868  0.00  0.00    +0.000 A 
ENDROOT
BRANCH   4  11
ATOM     11  C   UNL     1       3.175   4.090  18.778  0.00  0.00    +0.000 A 
ATOM     12  C   UNL     1       3.810   2.847  18.961  0.00  0.00    +0.000 A 
ATOM     13  C   UNL     1       3.086   1.652  18.907  0.00  0.00    +0.000 A 
ATOM     14  C   UNL     1       1.714   1.676  18.680  0.00  0.00    +0.000 A 
ATOM     15  C   UNL     1       1.054   2.894  18.559  0.00  0.00    +0.000 A 
ATOM     16  C   UNL     1       1.774   4.089  18.630  0.00  0.00    +0.000 A 
ENDBRANCH   4  11
BRANCH   4  17
ATOM     17  C   UNL     1       3.158   6.702  18.712  0.00  0.00    +0.000 A 
ATOM     18  C   UNL     1       2.381   7.019  19.850  0.00  0.00    +0.000 A 
ATOM     19  C   UNL     1       1.623   8.190  19.923  0.00  0.00    +0.000 A 
ATOM     20  C   UNL     1       1.605   9.054  18.838  0.00  0.00    +0.000 A 
ATOM     21  C   UNL     1       2.324   8.756  17.688  0.00  0.00    +0.000 A 
ATOM     22  C   UNL     1       3.092   7.586  17.620  0.00  0.00    +0.000 A 
BRANCH  20  23
ATOM     23  O   UNL     1       0.879  10.205  18.865  0.00  0.00    +0.000 OA
ATOM     24  H   UNL     1       1.449  10.939  18.578  0.00  0.00    +0.000 HD
ENDBRANCH  20  23
ENDBRANCH   4  17
TORSDOF 3
ENDMDL
MODEL 4
REMARK VINA RESULT:      -8.0      2.022      4.718
REMARK  Name = 
REMARK  3 active torsions:
REMARK  status: ('A' for Active; 'I' for Inactive)
REMARK    1  A    between atoms: C_4  and  C_5
REMARK    2  A    between atoms: C_4  and  C_11
REMARK    3  A    between atoms: C_14  and  O_15
REMARK                            x       y       z     vdW  Elec       q    Type
REMARK                         _______ _______ _______ _____ _____    ______ ____
ROOT
ATOM      1  O   UNL     1       0.953   3.644  16.904  0.00  0.00    +0.000 OA
ATOM      2  C   UNL     1       1.530   4.288  17.753  0.00  0.00    +0.000 C 
ATOM      3  O   UNL     1       2.095   5.520  17.604  0.00  0.00    +0.000 OA
ATOM      4  C   UNL     1       2.804   5.971  18.798  0.00  0.00    +0.000 C 
ATOM      5  C   UNL     1       2.434   4.893  19.785  0.00  0.00    +0.000 A 
ATOM      6  C   UNL     1       2.673   4.800  21.154  0.00  0.00    +0.000 A 
ATOM      7  C   UNL     1       2.177   3.697  21.850  0.00  0.00    +0.000 A 
ATOM      8  C   UNL     1       1.461   2.695  21.177  0.00  0.00    +0.000 A 
ATOM      9  C   UNL     1       1.220   2.796  19.807  0.00  0.00    +0.000 A 
ATOM     10  C   UNL     1       1.714   3.909  19.146  0.00  0.00    +0.000 A 
ENDROOT
BRANCH   4  11
ATOM     11  C   UNL     1       4.324   5.937  18.524  0.00  0.00    +0.000 A 
ATOM     12  C   UNL     1       5.218   5.274  19.388  0.00  0.00    +0.000 A 
ATOM     13  C   UNL     1       6.601   5.398  19.227  0.00  0.00    +0.000 A 
ATOM     14  C   UNL     1       7.119   6.178  18.197  0.00  0.00    +0.000 A 
ATOM     15  C   UNL     1       6.256   6.791  17.294  0.00  0.00    +0.000 A 
ATOM     16  C   UNL     1       4.874   6.653  17.444  0.00  0.00    +0.000 A 
ENDBRANCH   4  11
BRANCH   4  17
ATOM     17  C   UNL     1       2.215   7.352  19.135  0.00  0.00    +0.000 A 
ATOM     18  C   UNL     1       1.761   7.661  20.438  0.00  0.00    +0.000 A 
ATOM     19  C   UNL     1       1.214   8.906  20.753  0.00  0.00    +0.000 A 
ATOM     20  C   UNL     1       1.083   9.861  19.756  0.00  0.00    +0.000 A 
ATOM     21  C   UNL     1       1.481   9.581  18.455  0.00  0.00    +0.000 A 
ATOM     22  C   UNL     1       2.038   8.334  18.142  0.00  0.00    +0.000 A 
BRANCH  20  23
ATOM     23  O   UNL     1       0.554  11.087  20.018  0.00  0.00    +0.000 OA
ATOM     24  H   UNL     1       1.279  11.699  20.234  0.00  0.00    +0.000 HD
ENDBRANCH  20  23
ENDBRANCH   4  17
TORSDOF 3
ENDMDL
MODEL 5
REMARK VINA RESULT:      -8.0      1.924      4.722
REMARK  Name = 
REMARK  3 active torsions:
REMARK  status: ('A' for Active; 'I' for Inactive)
REMARK    1  A    between atoms: C_4  and  C_5
REMARK    2  A    between atoms: C_4  and  C_11
REMARK    3  A    between atoms: C_14  and  O_15
REMARK                            x       y       z     vdW  Elec       q    Type
REMARK                         _______ _______ _______ _____ _____    ______ ____
ROOT
ATOM      1  O   UNL     1       1.480   3.264  16.751  0.00  0.00    +0.000 OA
ATOM      2  C   UNL     1       1.950   3.982  17.607  0.00  0.00    +0.000 C 
ATOM      3  O   UNL     1       2.460   5.235  17.436  0.00  0.00    +0.000 OA
ATOM      4  C   UNL     1       3.042   5.786  18.656  0.00  0.00    +0.000 C 
ATOM      5  C   UNL     1       2.647   4.742  19.669  0.00  0.00    +0.000 A 
ATOM      6  C   UNL     1       2.773   4.734  21.056  0.00  0.00    +0.000 A 
ATOM      7  C   UNL     1       2.278   3.643  21.770  0.00  0.00    +0.000 A 
ATOM      8  C   UNL     1       1.673   2.568  21.099  0.00  0.00    +0.000 A 
ATOM      9  C   UNL     1       1.545   2.584  19.710  0.00  0.00    +0.000 A 
ATOM     10  C   UNL     1       2.035   3.687  19.030  0.00  0.00    +0.000 A 
ENDROOT
BRANCH   4  11
ATOM     11  C   UNL     1       4.580   5.823  18.509  0.00  0.00    +0.000 A 
ATOM     12  C   UNL     1       5.430   5.223  19.458  0.00  0.00    +0.000 A 
ATOM     13  C   UNL     1       6.814   5.413  19.410  0.00  0.00    +0.000 A 
ATOM     14  C   UNL     1       7.377   6.198  18.408  0.00  0.00    +0.000 A 
ATOM     15  C   UNL     1       6.564   6.749  17.423  0.00  0.00    +0.000 A 
ATOM     16  C   UNL     1       5.183   6.545  17.461  0.00  0.00    +0.000 A 
ENDBRANCH   4  11
BRANCH   4  17
ATOM     17  C   UNL     1       2.357   7.148  18.865  0.00  0.00    +0.000 A 
ATOM     18  C   UNL     1       2.207   8.067  17.801  0.00  0.00    +0.000 A 
ATOM     19  C   UNL     1       1.596   9.310  17.980  0.00  0.00    +0.000 A 
ATOM     20  C   UNL     1       1.150   9.670  19.243  0.00  0.00    +0.000 A 
ATOM     21  C   UNL     1       1.316   8.810  20.321  0.00  0.00    +0.000 A 
ATOM     22  C   UNL     1       1.919   7.559  20.138  0.00  0.00    +0.000 A 
BRANCH  20  23
ATOM     23  O   UNL     1       0.551  10.872  19.463  0.00  0.00    +0.000 OA
ATOM     24  H   UNL     1      -0.094  10.771  20.184  0.00  0.00    +0.000 HD
ENDBRANCH  20  23
ENDBRANCH   4  17
TORSDOF 3
ENDMDL
MODEL 6
REMARK VINA RESULT:      -7.9      1.923      4.594
REMARK  Name = 
REMARK  3 active torsions:
REMARK  status: ('A' for Active; 'I' for Inactive)
REMARK    1  A    between atoms: C_4  and  C_5
REMARK    2  A    between atoms: C_4  and  C_11
REMARK    3  A    between atoms: C_14  and  O_15
REMARK                            x       y       z     vdW  Elec       q    Type
REMARK                         _______ _______ _______ _____ _____    ______ ____
ROOT
ATOM      1  O   UNL     1       1.701   3.319  16.682  0.00  0.00    +0.000 OA
ATOM      2  C   UNL     1       2.102   4.042  17.567  0.00  0.00    +0.000 C 
ATOM      3  O   UNL     1       2.573   5.315  17.435  0.00  0.00    +0.000 OA
ATOM      4  C   UNL     1       3.075   5.871  18.688  0.00  0.00    +0.000 C 
ATOM      5  C   UNL     1       2.670   4.800  19.669  0.00  0.00    +0.000 A 
ATOM      6  C   UNL     1       2.729   4.779  21.060  0.00  0.00    +0.000 A 
ATOM      7  C   UNL     1       2.241   3.661  21.737  0.00  0.00    +0.000 A 
ATOM      8  C   UNL     1       1.710   2.574  21.025  0.00  0.00    +0.000 A 
ATOM      9  C   UNL     1       1.648   2.603  19.632  0.00  0.00    +0.000 A 
ATOM     10  C   UNL     1       2.129   3.732  18.989  0.00  0.00    +0.000 A 
ENDROOT
BRANCH   4  11
ATOM     11  C   UNL     1       4.615   5.967  18.616  0.00  0.00    +0.000 A 
ATOM     12  C   UNL     1       5.265   6.705  17.609  0.00  0.00    +0.000 A 
ATOM     13  C   UNL     1       6.653   6.641  17.449  0.00  0.00    +0.000 A 
ATOM     14  C   UNL     1       7.418   5.847  18.298  0.00  0.00    +0.000 A 
ATOM     15  C   UNL     1       6.805   5.158  19.340  0.00  0.00    +0.000 A 
ATOM     16  C   UNL     1       5.421   5.236  19.510  0.00  0.00    +0.000 A 
ENDBRANCH   4  11
BRANCH   4  17
ATOM     17  C   UNL     1       2.329   7.204  18.878  0.00  0.00    +0.000 A 
ATOM     18  C   UNL     1       2.106   8.084  17.794  0.00  0.00    +0.000 A 
ATOM     19  C   UNL     1       1.441   9.301  17.956  0.00  0.00    +0.000 A 
ATOM     20  C   UNL     1       1.012   9.676  19.220  0.00  0.00    +0.000 A 
ATOM     21  C   UNL     1       1.248   8.857  20.317  0.00  0.00    +0.000 A 
ATOM     22  C   UNL     1       1.907   7.631  20.151  0.00  0.00    +0.000 A 
BRANCH  20  23
ATOM     23  O   UNL     1       0.362  10.854  19.425  0.00  0.00    +0.000 OA
ATOM     24  H   UNL     1      -0.418  10.883  18.845  0.00  0.00    +0.000 HD
ENDBRANCH  20  23
ENDBRANCH   4  17
TORSDOF 3
ENDMDL
MODEL 7
REMARK VINA RESULT:      -7.9      1.914      4.494
REMARK  Name = 
REMARK  3 active torsions:
REMARK  status: ('A' for Active; 'I' for Inactive)
REMARK    1  A    between atoms: C_4  and  C_5
REMARK    2  A    between atoms: C_4  and  C_11
REMARK    3  A    between atoms: C_14  and  O_15
REMARK                            x       y       z     vdW  Elec       q    Type
REMARK                         _______ _______ _______ _____ _____    ______ ____
ROOT
ATOM      1  O   UNL     1       1.667   3.347  16.710  0.00  0.00    +0.000 OA
ATOM      2  C   UNL     1       2.088   4.068  17.589  0.00  0.00    +0.000 C 
ATOM      3  O   UNL     1       2.573   5.335  17.448  0.00  0.00    +0.000 OA
ATOM      4  C   UNL     1       3.096   5.887  18.694  0.00  0.00    +0.000 C 
ATOM      5  C   UNL     1       2.690   4.824  19.682  0.00  0.00    +0.000 A 
ATOM      6  C   UNL     1       2.765   4.805  21.073  0.00  0.00    +0.000 A 
ATOM      7  C   UNL     1       2.272   3.695  21.758  0.00  0.00    +0.000 A 
ATOM      8  C   UNL     1       1.719   2.612  21.055  0.00  0.00    +0.000 A 
ATOM      9  C   UNL     1       1.641   2.640  19.663  0.00  0.00    +0.000 A 
ATOM     10  C   UNL     1       2.128   3.761  19.011  0.00  0.00    +0.000 A 
ENDROOT
BRANCH   4  11
ATOM     11  C   UNL     1       4.636   5.964  18.605  0.00  0.00    +0.000 A 
ATOM     12  C   UNL     1       5.284   6.697  17.591  0.00  0.00    +0.000 A 
ATOM     13  C   UNL     1       6.669   6.615  17.415  0.00  0.00    +0.000 A 
ATOM     14  C   UNL     1       7.434   5.810  18.252  0.00  0.00    +0.000 A 
ATOM     15  C   UNL     1       6.825   5.126  19.299  0.00  0.00    +0.000 A 
ATOM     16  C   UNL     1       5.444   5.221  19.487  0.00  0.00    +0.000 A 
ENDBRANCH   4  11
BRANCH   4  17
ATOM     17  C   UNL     1       2.370   7.230  18.890  0.00  0.00    +0.000 A 
ATOM     18  C   UNL     1       1.867   7.617  20.154  0.00  0.00    +0.000 A 
ATOM     19  C   UNL     1       1.196   8.827  20.343  0.00  0.00    +0.000 A 
ATOM     20  C   UNL     1       0.988   9.663  19.256  0.00  0.00    +0.000 A 
ATOM     21  C   UNL     1       1.432   9.299  17.991  0.00  0.00    +0.000 A 
ATOM     22  C   UNL     1       2.113   8.088  17.805  0.00  0.00    +0.000 A 
BRANCH  20  23
ATOM     23  O   UNL     1       0.338  10.851  19.393  0.00  0.00    +0.000 OA
ATOM     24  H   UNL     1       0.620  11.266  20.225  0.00  0.00    +0.000 HD
ENDBRANCH  20  23
ENDBRANCH   4  17
TORSDOF 3
ENDMDL
MODEL 8
REMARK VINA RESULT:      -7.6      0.830      1.587
REMARK  Name = 
REMARK  3 active torsions:
REMARK  status: ('A' for Active; 'I' for Inactive)
REMARK    1  A    between atoms: C_4  and  C_5
REMARK    2  A    between atoms: C_4  and  C_11
REMARK    3  A    between atoms: C_14  and  O_15
REMARK                            x       y       z     vdW  Elec       q    Type
REMARK                         _______ _______ _______ _____ _____    ______ ____
ROOT
ATOM      1  O   UNL     1       7.737   5.534  19.442  0.00  0.00    +0.000 OA
ATOM      2  C   UNL     1       6.659   5.431  18.899  0.00  0.00    +0.000 C 
ATOM      3  O   UNL     1       5.433   5.546  19.484  0.00  0.00    +0.000 OA
ATOM      4  C   UNL     1       4.333   5.263  18.566  0.00  0.00    +0.000 C 
ATOM      5  C   UNL     1       5.069   5.131  17.257  0.00  0.00    +0.000 A 
ATOM      6  C   UNL     1       4.586   5.000  15.958  0.00  0.00    +0.000 A 
ATOM      7  C   UNL     1       5.498   4.939  14.904  0.00  0.00    +0.000 A 
ATOM      8  C   UNL     1       6.878   4.998  15.153  0.00  0.00    +0.000 A 
ATOM      9  C   UNL     1       7.356   5.135  16.457  0.00  0.00    +0.000 A 
ATOM     10  C   UNL     1       6.426   5.206  17.480  0.00  0.00    +0.000 A 
ENDROOT
BRANCH   4  11
ATOM     11  C   UNL     1       3.691   3.912  18.949  0.00  0.00    +0.000 A 
ATOM     12  C   UNL     1       4.386   2.950  19.708  0.00  0.00    +0.000 A 
ATOM     13  C   UNL     1       3.864   1.666  19.898  0.00  0.00    +0.000 A 
ATOM     14  C   UNL     1       2.636   1.322  19.343  0.00  0.00    +0.000 A 
ATOM     15  C   UNL     1       1.902   2.274  18.643  0.00  0.00    +0.000 A 
ATOM     16  C   UNL     1       2.415   3.562  18.467  0.00  0.00    +0.000 A 
ENDBRANCH   4  11
BRANCH   4  17
ATOM     17  C   UNL     1       3.406   6.489  18.639  0.00  0.00    +0.000 A 
ATOM     18  C   UNL     1       3.363   7.443  17.595  0.00  0.00    +0.000 A 
ATOM     19  C   UNL     1       2.535   8.565  17.654  0.00  0.00    +0.000 A 
ATOM     20  C   UNL     1       1.752   8.771  18.780  0.00  0.00    +0.000 A 
ATOM     21  C   UNL     1       1.797   7.878  19.843  0.00  0.00    +0.000 A 
ATOM     22  C   UNL     1       2.621   6.747  19.778  0.00  0.00    +0.000 A 
BRANCH  20  23
ATOM     23  O   UNL     1       0.931   9.852  18.881  0.00  0.00    +0.000 OA
ATOM     24  H   UNL     1       1.264  10.431  19.587  0.00  0.00    +0.000 HD
ENDBRANCH  20  23
ENDBRANCH   4  17
TORSDOF 3
ENDMDL
MODEL 9
REMARK VINA RESULT:      -7.5      5.506      8.591
REMARK  Name = 
REMARK  3 active torsions:
REMARK  status: ('A' for Active; 'I' for Inactive)
REMARK    1  A    between atoms: C_4  and  C_5
REMARK    2  A    between atoms: C_4  and  C_11
REMARK    3  A    between atoms: C_14  and  O_15
REMARK                            x       y       z     vdW  Elec       q    Type
REMARK                         _______ _______ _______ _____ _____    ______ ____
ROOT
ATOM      1  O   UNL     1       1.880   8.060  19.739  0.00  0.00    +0.000 OA
ATOM      2  C   UNL     1       1.167   9.037  19.826  0.00  0.00    +0.000 C 
ATOM      3  O   UNL     1       0.766   9.851  18.808  0.00  0.00    +0.000 OA
ATOM      4  C   UNL     1      -0.006  11.002  19.268  0.00  0.00    +0.000 C 
ATOM      5  C   UNL     1      -0.180  10.675  20.729  0.00  0.00    +0.000 A 
ATOM      6  C   UNL     1      -0.944  11.301  21.710  0.00  0.00    +0.000 A 
ATOM      7  C   UNL     1      -0.961  10.760  22.996  0.00  0.00    +0.000 A 
ATOM      8  C   UNL     1      -0.210   9.612  23.296  0.00  0.00    +0.000 A 
ATOM      9  C   UNL     1       0.549   8.987  22.307  0.00  0.00    +0.000 A 
ATOM     10  C   UNL     1       0.536   9.540  21.037  0.00  0.00    +0.000 A 
ENDROOT
BRANCH   4  11
ATOM     11  C   UNL     1       0.850  12.278  19.110  0.00  0.00    +0.000 A 
ATOM     12  C   UNL     1       0.367  13.546  19.490  0.00  0.00    +0.000 A 
ATOM     13  C   UNL     1       1.077  14.710  19.182  0.00  0.00    +0.000 A 
ATOM     14  C   UNL     1       2.286  14.632  18.498  0.00  0.00    +0.000 A 
ATOM     15  C   UNL     1       2.814  13.388  18.168  0.00  0.00    +0.000 A 
ATOM     16  C   UNL     1       2.113  12.223  18.492  0.00  0.00    +0.000 A 
ENDBRANCH   4  11
BRANCH   4  17
ATOM     17  C   UNL     1      -1.317  10.971  18.462  0.00  0.00    +0.000 A 
ATOM     18  C   UNL     1      -2.428  11.762  18.834  0.00  0.00    +0.000 A 
ATOM     19  C   UNL     1      -3.626  11.735  18.118  0.00  0.00    +0.000 A 
ATOM     20  C   UNL     1      -3.745  10.886  17.028  0.00  0.00    +0.000 A 
ATOM     21  C   UNL     1      -2.689  10.064  16.656  0.00  0.00    +0.000 A 
ATOM     22  C   UNL     1      -1.484  10.100  17.370  0.00  0.00    +0.000 A 
BRANCH  20  23
ATOM     23  O   UNL     1      -4.895  10.826  16.302  0.00  0.00    +0.000 OA
ATOM     24  H   UNL     1      -5.254   9.924  16.363  0.00  0.00    +0.000 HD
ENDBRANCH  20  23
ENDBRANCH   4  17
TORSDOF 3
ENDMDL
