MODEL 1
REMARK VINA RESULT:      -6.8      0.000      0.000
REMARK  Name = 
REMARK  8 active torsions:
REMARK  status: ('A' for Active; 'I' for Inactive)
REMARK    1  A    between atoms: C_1  and  C_2
REMARK    2  A    between atoms: C_2  and  N_3
REMARK    3  A    between atoms: N_6  and  C_7
REMARK    4  A    between atoms: C_7  and  C_8
REMARK    5  A    between atoms: C_8  and  O_9
REMARK    6  A    between atoms: C_8  and  C_10
REMARK    7  A    between atoms: C_13  and  O_14
REMARK    8  A    between atoms: O_14  and  C_15
REMARK                            x       y       z     vdW  Elec       q    Type
REMARK                         _______ _______ _______ _____ _____    ______ ____
ROOT
ATOM      1  C   UNL     1       3.019   5.793  19.475  0.00  0.00    +0.000 C 
ENDROOT
BRANCH   1   2
ATOM      2  C   UNL     1       2.421   7.182  19.325  0.00  0.00    +0.000 A 
ATOM      3  C   UNL     1       2.511   7.841  18.093  0.00  0.00    +0.000 A 
ATOM      4  C   UNL     1       1.871   9.066  17.894  0.00  0.00    +0.000 A 
ATOM      5  C   UNL     1       1.114   9.651  18.913  0.00  0.00    +0.000 A 
ATOM      6  C   UNL     1       1.064   9.035  20.156  0.00  0.00    +0.000 A 
ATOM      7  C   UNL     1       1.680   7.795  20.349  0.00  0.00    +0.000 A 
BRANCH   5   8
ATOM      8  O   UNL     1       0.519  10.831  18.593  0.00  0.00    +0.000 OA
BRANCH   8   9
ATOM      9  C   UNL     1      -0.895  10.874  18.436  0.00  0.00    +0.000 C 
ATOM     10  F   UNL     1      -1.598  10.894  19.585  0.00  0.00    +0.000 F 
ATOM     11  F   UNL     1      -1.222  11.966  17.709  0.00  0.00    +0.000 F 
ATOM     12  F   UNL     1      -1.284   9.780  17.736  0.00  0.00    +0.000 F 
ENDBRANCH   8   9
ENDBRANCH   5   8
ENDBRANCH   1   2
BRANCH   1  13
ATOM     13  O   UNL     1       2.699   5.393  20.809  0.00  0.00    +0.000 OA
ATOM     14  H   UNL     1       3.210   5.960  21.412  0.00  0.00    +0.000 HD
ENDBRANCH   1  13
BRANCH   1  15
ATOM     15  C   UNL     1       4.551   5.752  19.196  0.00  0.00    +0.000 C 
BRANCH  15  19
ATOM     16  N   UNL     1       6.496   5.795  16.002  0.00  0.00    +0.000 NA
ATOM     17  C   UNL     1       5.014   5.700  16.099  0.00  0.00    +0.000 C 
ATOM     18  C   UNL     1       4.494   4.600  17.068  0.00  0.00    +0.000 C 
ATOM     19  N   UNL     1       5.102   4.612  18.428  0.00  0.00    +0.000 NA
ATOM     20  C   UNL     1       6.572   4.677  18.266  0.00  0.00    +0.000 C 
ATOM     21  C   UNL     1       7.048   5.848  17.374  0.00  0.00    +0.000 C 
BRANCH  16  23
ATOM     22  C   UNL     1       6.216   4.339  13.966  0.00  0.00    +0.000 C 
ATOM     23  C   UNL     1       7.019   4.659  15.219  0.00  0.00    +0.000 C 
ENDBRANCH  16  23
ENDBRANCH  15  19
ENDBRANCH   1  15
TORSDOF 7
ENDMDL
MODEL 2
REMARK VINA RESULT:      -6.8      0.450      1.398
REMARK  Name = 
REMARK  8 active torsions:
REMARK  status: ('A' for Active; 'I' for Inactive)
REMARK    1  A    between atoms: C_1  and  C_2
REMARK    2  A    between atoms: C_2  and  N_3
REMARK    3  A    between atoms: N_6  and  C_7
REMARK    4  A    between atoms: C_7  and  C_8
REMARK    5  A    between atoms: C_8  and  O_9
REMARK    6  A    between atoms: C_8  and  C_10
REMARK    7  A    between atoms: C_13  and  O_14
REMARK    8  A    between atoms: O_14  and  C_15
REMARK                            x       y       z     vdW  Elec       q    Type
REMARK                         _______ _______ _______ _____ _____    ______ ____
ROOT
ATOM      1  C   UNL     1       3.376   5.495  19.366  0.00  0.00    +0.000 C 
ENDROOT
BRANCH   1   2
ATOM      2  C   UNL     1       2.638   6.806  19.153  0.00  0.00    +0.000 A 
ATOM      3  C   UNL     1       1.915   7.370  20.211  0.00  0.00    +0.000 A 
ATOM      4  C   UNL     1       1.324   8.628  20.077  0.00  0.00    +0.000 A 
ATOM      5  C   UNL     1       1.456   9.357  18.891  0.00  0.00    +0.000 A 
ATOM      6  C   UNL     1       2.121   8.784  17.817  0.00  0.00    +0.000 A 
ATOM      7  C   UNL     1       2.738   7.537  17.958  0.00  0.00    +0.000 A 
BRANCH   5   8
ATOM      8  O   UNL     1       0.858  10.578  18.889  0.00  0.00    +0.000 OA
BRANCH   8   9
ATOM      9  C   UNL     1      -0.522  10.673  18.555  0.00  0.00    +0.000 C 
ATOM     10  F   UNL     1      -0.958   9.764  17.661  0.00  0.00    +0.000 F 
ATOM     11  F   UNL     1      -1.255  10.557  19.684  0.00  0.00    +0.000 F 
ATOM     12  F   UNL     1      -0.755  11.904  18.035  0.00  0.00    +0.000 F 
ENDBRANCH   8   9
ENDBRANCH   5   8
ENDBRANCH   1   2
BRANCH   1  13
ATOM     13  O   UNL     1       3.008   5.070  20.680  0.00  0.00    +0.000 OA
ATOM     14  H   UNL     1       2.768   4.130  20.624  0.00  0.00    +0.000 HD
ENDBRANCH   1  13
BRANCH   1  15
ATOM     15  C   UNL     1       4.919   5.625  19.196  0.00  0.00    +0.000 C 
BRANCH  15  19
ATOM     16  N   UNL     1       6.370   5.737  15.751  0.00  0.00    +0.000 NA
ATOM     17  C   UNL     1       4.987   5.299  16.082  0.00  0.00    +0.000 C 
ATOM     18  C   UNL     1       4.893   4.236  17.214  0.00  0.00    +0.000 C 
ATOM     19  N   UNL     1       5.643   4.565  18.459  0.00  0.00    +0.000 NA
ATOM     20  C   UNL     1       7.015   4.963  18.068  0.00  0.00    +0.000 C 
ATOM     21  C   UNL     1       7.057   6.093  17.012  0.00  0.00    +0.000 C 
BRANCH  16  23
ATOM     22  C   UNL     1       6.247   4.067  13.869  0.00  0.00    +0.000 C 
ATOM     23  C   UNL     1       7.065   4.672  15.002  0.00  0.00    +0.000 C 
ENDBRANCH  16  23
ENDBRANCH  15  19
ENDBRANCH   1  15
TORSDOF 7
ENDMDL
MODEL 3
REMARK VINA RESULT:      -6.8      0.572      1.032
REMARK  Name = 
REMARK  8 active torsions:
REMARK  status: ('A' for Active; 'I' for Inactive)
REMARK    1  A    between atoms: C_1  and  C_2
REMARK    2  A    between atoms: C_2  and  N_3
REMARK    3  A    between atoms: N_6  and  C_7
REMARK    4  A    between atoms: C_7  and  C_8
REMARK    5  A    between atoms: C_8  and  O_9
REMARK    6  A    between atoms: C_8  and  C_10
REMARK    7  A    between atoms: C_13  and  O_14
REMARK    8  A    between atoms: O_14  and  C_15
REMARK                            x       y       z     vdW  Elec       q    Type
REMARK                         _______ _______ _______ _____ _____    ______ ____
ROOT
ATOM      1  C   UNL     1       3.431   5.420  19.167  0.00  0.00    +0.000 C 
ENDROOT
BRANCH   1   2
ATOM      2  C   UNL     1       2.780   6.793  19.130  0.00  0.00    +0.000 A 
ATOM      3  C   UNL     1       2.818   7.541  17.947  0.00  0.00    +0.000 A 
ATOM      4  C   UNL     1       2.130   8.752  17.851  0.00  0.00    +0.000 A 
ATOM      5  C   UNL     1       1.376   9.233  18.925  0.00  0.00    +0.000 A 
ATOM      6  C   UNL     1       1.377   8.529  20.120  0.00  0.00    +0.000 A 
ATOM      7  C   UNL     1       2.042   7.303  20.210  0.00  0.00    +0.000 A 
BRANCH   5   8
ATOM      8  O   UNL     1       0.732  10.410  18.703  0.00  0.00    +0.000 OA
BRANCH   8   9
ATOM      9  C   UNL     1      -0.631  10.388  18.293  0.00  0.00    +0.000 C 
ATOM     10  F   UNL     1      -0.904   9.566  17.262  0.00  0.00    +0.000 F 
ATOM     11  F   UNL     1      -1.399  10.032  19.347  0.00  0.00    +0.000 F 
ATOM     12  F   UNL     1      -0.990  11.643  17.924  0.00  0.00    +0.000 F 
ENDBRANCH   8   9
ENDBRANCH   5   8
ENDBRANCH   1   2
BRANCH   1  13
ATOM     13  O   UNL     1       2.909   4.792  20.340  0.00  0.00    +0.000 OA
ATOM     14  H   UNL     1       2.340   5.441  20.787  0.00  0.00    +0.000 HD
ENDBRANCH   1  13
BRANCH   1  15
ATOM     15  C   UNL     1       4.988   5.480  19.171  0.00  0.00    +0.000 C 
BRANCH  15  19
ATOM     16  N   UNL     1       6.323   5.703  15.684  0.00  0.00    +0.000 NA
ATOM     17  C   UNL     1       4.973   5.195  16.051  0.00  0.00    +0.000 C 
ATOM     18  C   UNL     1       4.966   4.115  17.172  0.00  0.00    +0.000 C 
ATOM     19  N   UNL     1       5.738   4.465  18.397  0.00  0.00    +0.000 NA
ATOM     20  C   UNL     1       7.076   4.933  17.970  0.00  0.00    +0.000 C 
ATOM     21  C   UNL     1       7.032   6.076  16.928  0.00  0.00    +0.000 C 
BRANCH  16  23
ATOM     22  C   UNL     1       6.199   3.997  13.835  0.00  0.00    +0.000 C 
ATOM     23  C   UNL     1       7.044   4.682  14.900  0.00  0.00    +0.000 C 
ENDBRANCH  16  23
ENDBRANCH  15  19
ENDBRANCH   1  15
TORSDOF 7
ENDMDL
MODEL 4
REMARK VINA RESULT:      -6.5      1.194      1.405
REMARK  Name = 
REMARK  8 active torsions:
REMARK  status: ('A' for Active; 'I' for Inactive)
REMARK    1  A    between atoms: C_1  and  C_2
REMARK    2  A    between atoms: C_2  and  N_3
REMARK    3  A    between atoms: N_6  and  C_7
REMARK    4  A    between atoms: C_7  and  C_8
REMARK    5  A    between atoms: C_8  and  O_9
REMARK    6  A    between atoms: C_8  and  C_10
REMARK    7  A    between atoms: C_13  and  O_14
REMARK    8  A    between atoms: O_14  and  C_15
REMARK                            x       y       z     vdW  Elec       q    Type
REMARK                         _______ _______ _______ _____ _____    ______ ____
ROOT
ATOM      1  C   UNL     1       2.951   5.930  19.485  0.00  0.00    +0.000 C 
ENDROOT
BRANCH   1   2
ATOM      2  C   UNL     1       2.323   7.305  19.325  0.00  0.00    +0.000 A 
ATOM      3  C   UNL     1       2.315   7.916  18.066  0.00  0.00    +0.000 A 
ATOM      4  C   UNL     1       1.645   9.125  17.867  0.00  0.00    +0.000 A 
ATOM      5  C   UNL     1       0.954   9.740  18.916  0.00  0.00    +0.000 A 
ATOM      6  C   UNL     1       1.003   9.173  20.181  0.00  0.00    +0.000 A 
ATOM      7  C   UNL     1       1.649   7.948  20.376  0.00  0.00    +0.000 A 
BRANCH   5   8
ATOM      8  O   UNL     1       0.321  10.899  18.595  0.00  0.00    +0.000 OA
BRANCH   8   9
ATOM      9  C   UNL     1       0.927  12.139  18.942  0.00  0.00    +0.000 C 
ATOM     10  F   UNL     1       2.273  12.133  18.959  0.00  0.00    +0.000 F 
ATOM     11  F   UNL     1       0.508  13.089  18.077  0.00  0.00    +0.000 F 
ATOM     12  F   UNL     1       0.503  12.493  20.181  0.00  0.00    +0.000 F 
ENDBRANCH   8   9
ENDBRANCH   5   8
ENDBRANCH   1   2
BRANCH   1  13
ATOM     13  O   UNL     1       2.691   5.558  20.839  0.00  0.00    +0.000 OA
ATOM     14  H   UNL     1       1.757   5.756  21.021  0.00  0.00    +0.000 HD
ENDBRANCH   1  13
BRANCH   1  15
ATOM     15  C   UNL     1       4.471   5.907  19.145  0.00  0.00    +0.000 C 
BRANCH  15  19
ATOM     16  N   UNL     1       6.545   5.827  16.035  0.00  0.00    +0.000 NA
ATOM     17  C   UNL     1       5.059   5.776  16.071  0.00  0.00    +0.000 C 
ATOM     18  C   UNL     1       4.467   4.712  17.040  0.00  0.00    +0.000 C 
ATOM     19  N   UNL     1       5.019   4.735  18.424  0.00  0.00    +0.000 NA
ATOM     20  C   UNL     1       6.495   4.755  18.322  0.00  0.00    +0.000 C 
ATOM     21  C   UNL     1       7.041   5.893  17.427  0.00  0.00    +0.000 C 
BRANCH  16  23
ATOM     22  C   UNL     1       6.331   4.361  13.998  0.00  0.00    +0.000 C 
ATOM     23  C   UNL     1       7.066   4.660  15.297  0.00  0.00    +0.000 C 
ENDBRANCH  16  23
ENDBRANCH  15  19
ENDBRANCH   1  15
TORSDOF 7
ENDMDL
MODEL 5
REMARK VINA RESULT:      -6.4      4.677      8.354
REMARK  Name = 
REMARK  8 active torsions:
REMARK  status: ('A' for Active; 'I' for Inactive)
REMARK    1  A    between atoms: C_1  and  C_2
REMARK    2  A    between atoms: C_2  and  N_3
REMARK    3  A    between atoms: N_6  and  C_7
REMARK    4  A    between atoms: C_7  and  C_8
REMARK    5  A    between atoms: C_8  and  O_9
REMARK    6  A    between atoms: C_8  and  C_10
REMARK    7  A    between atoms: C_13  and  O_14
REMARK    8  A    between atoms: O_14  and  C_15
REMARK                            x       y       z     vdW  Elec       q    Type
REMARK                         _______ _______ _______ _____ _____    ______ ____
ROOT
ATOM      1  C   UNL     1       1.430   9.260  18.306  0.00  0.00    +0.000 C 
ENDROOT
BRANCH   1   2
ATOM      2  C   UNL     1       2.332   8.040  18.399  0.00  0.00    +0.000 A 
ATOM      3  C   UNL     1       2.156   7.132  19.449  0.00  0.00    +0.000 A 
ATOM      4  C   UNL     1       2.892   5.946  19.493  0.00  0.00    +0.000 A 
ATOM      5  C   UNL     1       3.806   5.634  18.482  0.00  0.00    +0.000 A 
ATOM      6  C   UNL     1       4.030   6.553  17.467  0.00  0.00    +0.000 A 
ATOM      7  C   UNL     1       3.274   7.727  17.405  0.00  0.00    +0.000 A 
BRANCH   5   8
ATOM      8  O   UNL     1       4.445   4.442  18.623  0.00  0.00    +0.000 OA
BRANCH   8   9
ATOM      9  C   UNL     1       4.052   3.345  17.805  0.00  0.00    +0.000 C 
ATOM     10  F   UNL     1       4.051   2.146  18.418  0.00  0.00    +0.000 F 
ATOM     11  F   UNL     1       2.815   3.584  17.317  0.00  0.00    +0.000 F 
ATOM     12  F   UNL     1       4.904   3.266  16.753  0.00  0.00    +0.000 F 
ENDBRANCH   8   9
ENDBRANCH   5   8
ENDBRANCH   1   2
BRANCH   1  13
ATOM     13  O   UNL     1       2.134  10.180  17.470  0.00  0.00    +0.000 OA
ATOM     14  H   UNL     1       3.060  10.191  17.765  0.00  0.00    +0.000 HD
ENDBRANCH   1  13
BRANCH   1  15
ATOM     15  C   UNL     1       1.081   9.871  19.696  0.00  0.00    +0.000 C 
BRANCH  15  19
ATOM     16  N   UNL     1      -0.414  11.341  22.793  0.00  0.00    +0.000 NA
ATOM     17  C   UNL     1       0.096   9.949  22.669  0.00  0.00    +0.000 C 
ATOM     18  C   UNL     1      -0.444   9.164  21.438  0.00  0.00    +0.000 C 
ATOM     19  N   UNL     1      -0.334   9.875  20.133  0.00  0.00    +0.000 NA
ATOM     20  C   UNL     1      -0.882  11.238  20.313  0.00  0.00    +0.000 C 
ATOM     21  C   UNL     1      -0.243  12.015  21.488  0.00  0.00    +0.000 C 
BRANCH  16  23
ATOM     22  C   UNL     1      -2.465  12.694  23.349  0.00  0.00    +0.000 C 
ATOM     23  C   UNL     1      -1.818  11.319  23.246  0.00  0.00    +0.000 C 
ENDBRANCH  16  23
ENDBRANCH  15  19
ENDBRANCH   1  15
TORSDOF 7
ENDMDL
MODEL 6
REMARK VINA RESULT:      -6.3      4.910      8.308
REMARK  Name = 
REMARK  8 active torsions:
REMARK  status: ('A' for Active; 'I' for Inactive)
REMARK    1  A    between atoms: C_1  and  C_2
REMARK    2  A    between atoms: C_2  and  N_3
REMARK    3  A    between atoms: N_6  and  C_7
REMARK    4  A    between atoms: C_7  and  C_8
REMARK    5  A    between atoms: C_8  and  O_9
REMARK    6  A    between atoms: C_8  and  C_10
REMARK    7  A    between atoms: C_13  and  O_14
REMARK    8  A    between atoms: O_14  and  C_15
REMARK                            x       y       z     vdW  Elec       q    Type
REMARK                         _______ _______ _______ _____ _____    ______ ____
ROOT
ATOM      1  C   UNL     1       1.534   8.772  18.281  0.00  0.00    +0.000 C 
ENDROOT
BRANCH   1   2
ATOM      2  C   UNL     1       2.582   7.675  18.205  0.00  0.00    +0.000 A 
ATOM      3  C   UNL     1       3.529   7.695  17.174  0.00  0.00    +0.000 A 
ATOM      4  C   UNL     1       4.571   6.767  17.147  0.00  0.00    +0.000 A 
ATOM      5  C   UNL     1       4.701   5.809  18.157  0.00  0.00    +0.000 A 
ATOM      6  C   UNL     1       3.737   5.742  19.153  0.00  0.00    +0.000 A 
ATOM      7  C   UNL     1       2.709   6.688  19.198  0.00  0.00    +0.000 A 
BRANCH   5   8
ATOM      8  O   UNL     1       5.768   4.975  18.035  0.00  0.00    +0.000 OA
BRANCH   8   9
ATOM      9  C   UNL     1       7.039   5.402  18.515  0.00  0.00    +0.000 C 
ATOM     10  F   UNL     1       8.060   4.565  18.249  0.00  0.00    +0.000 F 
ATOM     11  F   UNL     1       7.322   6.614  17.987  0.00  0.00    +0.000 F 
ATOM     12  F   UNL     1       6.965   5.544  19.861  0.00  0.00    +0.000 F 
ENDBRANCH   8   9
ENDBRANCH   5   8
ENDBRANCH   1   2
BRANCH   1  13
ATOM     13  O   UNL     1       2.034   9.822  17.451  0.00  0.00    +0.000 OA
ATOM     14  H   UNL     1       2.849  10.154  17.863  0.00  0.00    +0.000 HD
ENDBRANCH   1  13
BRANCH   1  15
ATOM     15  C   UNL     1       1.251   9.251  19.736  0.00  0.00    +0.000 C 
BRANCH  15  19
ATOM     16  N   UNL     1      -0.115  11.040  22.723  0.00  0.00    +0.000 NA
ATOM     17  C   UNL     1       0.303   9.613  22.700  0.00  0.00    +0.000 C 
ATOM     18  C   UNL     1      -0.300   8.776  21.534  0.00  0.00    +0.000 C 
ATOM     19  N   UNL     1      -0.157   9.379  20.179  0.00  0.00    +0.000 NA
ATOM     20  C   UNL     1      -0.613  10.785  20.259  0.00  0.00    +0.000 C 
ATOM     21  C   UNL     1       0.086  11.604  21.369  0.00  0.00    +0.000 C 
BRANCH  16  23
ATOM     22  C   UNL     1      -2.067  12.563  23.190  0.00  0.00    +0.000 C 
ATOM     23  C   UNL     1      -1.513  11.144  23.183  0.00  0.00    +0.000 C 
ENDBRANCH  16  23
ENDBRANCH  15  19
ENDBRANCH   1  15
TORSDOF 7
ENDMDL
MODEL 7
REMARK VINA RESULT:      -6.3      4.749      8.304
REMARK  Name = 
REMARK  8 active torsions:
REMARK  status: ('A' for Active; 'I' for Inactive)
REMARK    1  A    between atoms: C_1  and  C_2
REMARK    2  A    between atoms: C_2  and  N_3
REMARK    3  A    between atoms: N_6  and  C_7
REMARK    4  A    between atoms: C_7  and  C_8
REMARK    5  A    between atoms: C_8  and  O_9
REMARK    6  A    between atoms: C_8  and  C_10
REMARK    7  A    between atoms: C_13  and  O_14
REMARK    8  A    between atoms: O_14  and  C_15
REMARK                            x       y       z     vdW  Elec       q    Type
REMARK                         _______ _______ _______ _____ _____    ______ ____
ROOT
ATOM      1  C   UNL     1       1.791   8.350  18.465  0.00  0.00    +0.000 C 
ENDROOT
BRANCH   1   2
ATOM      2  C   UNL     1       2.456   6.992  18.621  0.00  0.00    +0.000 A 
ATOM      3  C   UNL     1       2.139   6.192  19.725  0.00  0.00    +0.000 A 
ATOM      4  C   UNL     1       2.646   4.896  19.833  0.00  0.00    +0.000 A 
ATOM      5  C   UNL     1       3.468   4.365  18.834  0.00  0.00    +0.000 A 
ATOM      6  C   UNL     1       3.836   5.168  17.764  0.00  0.00    +0.000 A 
ATOM      7  C   UNL     1       3.306   6.455  17.639  0.00  0.00    +0.000 A 
BRANCH   5   8
ATOM      8  O   UNL     1       3.880   3.086  19.039  0.00  0.00    +0.000 OA
BRANCH   8   9
ATOM      9  C   UNL     1       3.096   2.014  18.527  0.00  0.00    +0.000 C 
ATOM     10  F   UNL     1       2.502   2.255  17.342  0.00  0.00    +0.000 F 
ATOM     11  F   UNL     1       3.878   0.918  18.405  0.00  0.00    +0.000 F 
ATOM     12  F   UNL     1       2.120   1.728  19.424  0.00  0.00    +0.000 F 
ENDBRANCH   8   9
ENDBRANCH   5   8
ENDBRANCH   1   2
BRANCH   1  13
ATOM     13  O   UNL     1       2.701   9.122  17.679  0.00  0.00    +0.000 OA
ATOM     14  H   UNL     1       2.226   9.406  16.880  0.00  0.00    +0.000 HD
ENDBRANCH   1  13
BRANCH   1  15
ATOM     15  C   UNL     1       1.459   9.030  19.827  0.00  0.00    +0.000 C 
BRANCH  15  19
ATOM     16  N   UNL     1       0.019  10.920  22.715  0.00  0.00    +0.000 NA
ATOM     17  C   UNL     1       0.377   9.475  22.732  0.00  0.00    +0.000 C 
ATOM     18  C   UNL     1      -0.201   8.647  21.547  0.00  0.00    +0.000 C 
ATOM     19  N   UNL     1       0.038   9.224  20.194  0.00  0.00    +0.000 NA
ATOM     20  C   UNL     1      -0.362  10.649  20.233  0.00  0.00    +0.000 C 
ATOM     21  C   UNL     1       0.314  11.454  21.368  0.00  0.00    +0.000 C 
BRANCH  16  23
ATOM     22  C   UNL     1      -1.880  12.532  23.083  0.00  0.00    +0.000 C 
ATOM     23  C   UNL     1      -1.395  11.089  23.101  0.00  0.00    +0.000 C 
ENDBRANCH  16  23
ENDBRANCH  15  19
ENDBRANCH   1  15
TORSDOF 7
ENDMDL
MODEL 8
REMARK VINA RESULT:      -6.3      0.896      1.850
REMARK  Name = 
REMARK  8 active torsions:
REMARK  status: ('A' for Active; 'I' for Inactive)
REMARK    1  A    between atoms: C_1  and  C_2
REMARK    2  A    between atoms: C_2  and  N_3
REMARK    3  A    between atoms: N_6  and  C_7
REMARK    4  A    between atoms: C_7  and  C_8
REMARK    5  A    between atoms: C_8  and  O_9
REMARK    6  A    between atoms: C_8  and  C_10
REMARK    7  A    between atoms: C_13  and  O_14
REMARK    8  A    between atoms: O_14  and  C_15
REMARK                            x       y       z     vdW  Elec       q    Type
REMARK                         _______ _______ _______ _____ _____    ______ ____
ROOT
ATOM      1  C   UNL     1       3.145   5.608  19.402  0.00  0.00    +0.000 C 
ENDROOT
BRANCH   1   2
ATOM      2  C   UNL     1       2.386   6.924  19.437  0.00  0.00    +0.000 A 
ATOM      3  C   UNL     1       1.814   7.358  20.638  0.00  0.00    +0.000 A 
ATOM      4  C   UNL     1       1.212   8.615  20.725  0.00  0.00    +0.000 A 
ATOM      5  C   UNL     1       1.184   9.472  19.621  0.00  0.00    +0.000 A 
ATOM      6  C   UNL     1       1.696   9.030  18.410  0.00  0.00    +0.000 A 
ATOM      7  C   UNL     1       2.325   7.784  18.328  0.00  0.00    +0.000 A 
BRANCH   5   8
ATOM      8  O   UNL     1       0.592  10.678  19.835  0.00  0.00    +0.000 OA
BRANCH   8   9
ATOM      9  C   UNL     1      -0.724  10.901  19.341  0.00  0.00    +0.000 C 
ATOM     10  F   UNL     1      -1.436   9.787  19.085  0.00  0.00    +0.000 F 
ATOM     11  F   UNL     1      -1.404  11.656  20.233  0.00  0.00    +0.000 F 
ATOM     12  F   UNL     1      -0.636  11.606  18.185  0.00  0.00    +0.000 F 
ENDBRANCH   8   9
ENDBRANCH   5   8
ENDBRANCH   1   2
BRANCH   1  13
ATOM     13  O   UNL     1       2.909   5.009  20.677  0.00  0.00    +0.000 OA
ATOM     14  H   UNL     1       3.335   4.135  20.671  0.00  0.00    +0.000 HD
ENDBRANCH   1  13
BRANCH   1  15
ATOM     15  C   UNL     1       4.664   5.783  19.102  0.00  0.00    +0.000 C 
BRANCH  15  19
ATOM     16  N   UNL     1       6.609   4.116  16.378  0.00  0.00    +0.000 NA
ATOM     17  C   UNL     1       7.202   4.919  17.482  0.00  0.00    +0.000 C 
ATOM     18  C   UNL     1       6.555   6.319  17.689  0.00  0.00    +0.000 C 
ATOM     19  N   UNL     1       5.068   6.324  17.784  0.00  0.00    +0.000 NA
ATOM     20  C   UNL     1       4.539   5.538  16.647  0.00  0.00    +0.000 C 
ATOM     21  C   UNL     1       5.139   4.116  16.542  0.00  0.00    +0.000 C 
BRANCH  16  23
ATOM     22  C   UNL     1       6.338   4.045  13.874  0.00  0.00    +0.000 C 
ATOM     23  C   UNL     1       7.039   4.663  15.077  0.00  0.00    +0.000 C 
ENDBRANCH  16  23
ENDBRANCH  15  19
ENDBRANCH   1  15
TORSDOF 7
ENDMDL
MODEL 9
REMARK VINA RESULT:      -6.2      4.834      8.305
REMARK  Name = 
REMARK  8 active torsions:
REMARK  status: ('A' for Active; 'I' for Inactive)
REMARK    1  A    between atoms: C_1  and  C_2
REMARK    2  A    between atoms: C_2  and  N_3
REMARK    3  A    between atoms: N_6  and  C_7
REMARK    4  A    between atoms: C_7  and  C_8
REMARK    5  A    between atoms: C_8  and  O_9
REMARK    6  A    between atoms: C_8  and  C_10
REMARK    7  A    between atoms: C_13  and  O_14
REMARK    8  A    between atoms: O_14  and  C_15
REMARK                            x       y       z     vdW  Elec       q    Type
REMARK                         _______ _______ _______ _____ _____    ______ ____
ROOT
ATOM      1  C   UNL     1       1.574   8.676  18.155  0.00  0.00    +0.000 C 
ENDROOT
BRANCH   1   2
ATOM      2  C   UNL     1       2.614   7.588  17.943  0.00  0.00    +0.000 A 
ATOM      3  C   UNL     1       2.276   6.253  18.197  0.00  0.00    +0.000 A 
ATOM      4  C   UNL     1       3.173   5.225  17.902  0.00  0.00    +0.000 A 
ATOM      5  C   UNL     1       4.419   5.505  17.332  0.00  0.00    +0.000 A 
ATOM      6  C   UNL     1       4.787   6.827  17.129  0.00  0.00    +0.000 A 
ATOM      7  C   UNL     1       3.880   7.856  17.397  0.00  0.00    +0.000 A 
BRANCH   5   8
ATOM      8  O   UNL     1       5.195   4.420  17.067  0.00  0.00    +0.000 OA
BRANCH   8   9
ATOM      9  C   UNL     1       5.853   4.329  15.809  0.00  0.00    +0.000 C 
ATOM     10  F   UNL     1       5.203   4.906  14.780  0.00  0.00    +0.000 F 
ATOM     11  F   UNL     1       7.080   4.887  15.915  0.00  0.00    +0.000 F 
ATOM     12  F   UNL     1       6.020   3.018  15.505  0.00  0.00    +0.000 F 
ENDBRANCH   8   9
ENDBRANCH   5   8
ENDBRANCH   1   2
BRANCH   1  13
ATOM     13  O   UNL     1       2.064   9.805  17.431  0.00  0.00    +0.000 OA
ATOM     14  H   UNL     1       1.769   9.710  16.509  0.00  0.00    +0.000 HD
ENDBRANCH   1  13
BRANCH   1  15
ATOM     15  C   UNL     1       1.322   8.999  19.658  0.00  0.00    +0.000 C 
BRANCH  15  19
ATOM     16  N   UNL     1       0.092  10.952  22.601  0.00  0.00    +0.000 NA
ATOM     17  C   UNL     1       0.434   9.504  22.619  0.00  0.00    +0.000 C 
ATOM     18  C   UNL     1      -0.227   8.664  21.488  0.00  0.00    +0.000 C 
ATOM     19  N   UNL     1      -0.070   9.216  20.113  0.00  0.00    +0.000 NA
ATOM     20  C   UNL     1      -0.452  10.646  20.153  0.00  0.00    +0.000 C 
ATOM     21  C   UNL     1       0.304  11.461  21.228  0.00  0.00    +0.000 C 
BRANCH  16  23
ATOM     22  C   UNL     1      -1.724  12.601  23.175  0.00  0.00    +0.000 C 
ATOM     23  C   UNL     1      -1.293  11.144  23.074  0.00  0.00    +0.000 C 
ENDBRANCH  16  23
ENDBRANCH  15  19
ENDBRANCH   1  15
TORSDOF 7
ENDMDL
