MODEL 1
REMARK VINA RESULT:      -8.8      0.000      0.000
REMARK  Name = 
REMARK  7 active torsions:
REMARK  status: ('A' for Active; 'I' for Inactive)
REMARK    1  A    between atoms: C_1  and  O_2
REMARK    2  A    between atoms: O_2  and  C_3
REMARK    3  A    between atoms: C_6  and  N_7
REMARK    4  A    between atoms: N_7  and  S_8
REMARK    5  A    between atoms: S_8  and  C_11
REMARK    6  A    between atoms: C_20  and  C_21
REMARK    7  A    between atoms: C_23  and  N_24
REMARK                            x       y       z     vdW  Elec       q    Type
REMARK                         _______ _______ _______ _____ _____    ______ ____
ROOT
ATOM      1  C   UNL     1       1.565   9.077  18.722  0.00  0.00    +0.000 A 
ATOM      2  C   UNL     1       2.440   8.097  18.227  0.00  0.00    +0.000 A 
ATOM      3  C   UNL     1       2.743   6.965  18.978  0.00  0.00    +0.000 A 
ATOM      4  C   UNL     1       2.170   6.800  20.229  0.00  0.00    +0.000 A 
ATOM      5  C   UNL     1       1.274   7.754  20.726  0.00  0.00    +0.000 A 
ATOM      6  C   UNL     1       0.945   8.917  19.996  0.00  0.00    +0.000 A 
ENDROOT
BRANCH   6   7
ATOM      7  N   UNL     1       0.111   9.898  20.542  0.00  0.00    +0.000 N 
ATOM      8  C   UNL     1       0.013  10.098  22.009  0.00  0.00    +0.000 C 
ATOM      9  C   UNL     1      -0.476  11.540  22.350  0.00  0.00    +0.000 C 
ATOM     10  N   UNL     1      -1.704  11.877  21.620  0.00  0.00    +0.000 NA
ATOM     11  C   UNL     1      -2.182  13.240  21.779  0.00  0.00    +0.000 C 
ATOM     12  C   UNL     1      -3.154  13.373  20.606  0.00  0.00    +0.000 C 
ATOM     13  C   UNL     1      -2.712  12.328  19.573  0.00  0.00    +0.000 C 
ATOM     14  C   UNL     1      -1.452  11.729  20.172  0.00  0.00    +0.000 C 
ATOM     15  C   UNL     1      -1.140  10.263  19.826  0.00  0.00    +0.000 C 
ENDBRANCH   6   7
BRANCH   1  17
ATOM     16  C   UNL     1       2.170  11.332  18.161  0.00  0.00    +0.000 C 
ATOM     17  O   UNL     1       1.283  10.230  18.027  0.00  0.00    +0.000 OA
ENDBRANCH   1  17
BRANCH   4  18
ATOM     18  N   UNL     1       2.490   5.626  20.984  0.00  0.00    +0.000 N 
ATOM     19  H   UNL     1       1.945   5.537  21.843  0.00  0.00    +0.000 HD
BRANCH  18  20
ATOM     20  S   UNL     1       2.410   4.140  20.154  0.00  0.00    +0.000 S 
ATOM     21  O   UNL     1       2.833   3.122  21.097  0.00  0.00    +0.000 OA
ATOM     22  O   UNL     1       1.122   4.047  19.511  0.00  0.00    +0.000 OA
BRANCH  20  23
ATOM     23  C   UNL     1       3.627   4.141  18.851  0.00  0.00    +0.000 A 
ATOM     24  S   UNL     1       5.192   4.618  19.332  0.00  0.00    +0.000 S 
ATOM     25  C   UNL     1       5.818   4.480  17.742  0.00  0.00    +0.000 A 
ATOM     26  C   UNL     1       7.152   4.695  17.344  0.00  0.00    +0.000 A 
ATOM     27  C   UNL     1       7.471   4.636  15.987  0.00  0.00    +0.000 A 
ATOM     28  C   UNL     1       6.483   4.376  15.051  0.00  0.00    +0.000 A 
ATOM     29 CL   UNL     1       6.873   4.396  13.374  0.00  0.00    +0.000 Cl
ATOM     30  C   UNL     1       5.171   4.101  15.453  0.00  0.00    +0.000 A 
ATOM     31  C   UNL     1       4.820   4.127  16.829  0.00  0.00    +0.000 A 
ATOM     32  C   UNL     1       3.578   3.804  17.505  0.00  0.00    +0.000 A 
ATOM     33  C   UNL     1       2.383   3.180  16.850  0.00  0.00    +0.000 C 
ENDBRANCH  20  23
ENDBRANCH  18  20
ENDBRANCH   4  18
TORSDOF 5
ENDMDL
MODEL 2
REMARK VINA RESULT:      -8.6      1.113      1.374
REMARK  Name = 
REMARK  7 active torsions:
REMARK  status: ('A' for Active; 'I' for Inactive)
REMARK    1  A    between atoms: C_1  and  O_2
REMARK    2  A    between atoms: O_2  and  C_3
REMARK    3  A    between atoms: C_6  and  N_7
REMARK    4  A    between atoms: N_7  and  S_8
REMARK    5  A    between atoms: S_8  and  C_11
REMARK    6  A    between atoms: C_20  and  C_21
REMARK    7  A    between atoms: C_23  and  N_24
REMARK                            x       y       z     vdW  Elec       q    Type
REMARK                         _______ _______ _______ _____ _____    ______ ____
ROOT
ATOM      1  C   UNL     1       1.134   9.297  18.722  0.00  0.00    +0.000 A 
ATOM      2  C   UNL     1       1.654   8.162  18.081  0.00  0.00    +0.000 A 
ATOM      3  C   UNL     1       2.108   7.071  18.818  0.00  0.00    +0.000 A 
ATOM      4  C   UNL     1       2.042   7.105  20.202  0.00  0.00    +0.000 A 
ATOM      5  C   UNL     1       1.500   8.218  20.855  0.00  0.00    +0.000 A 
ATOM      6  C   UNL     1       1.032   9.344  20.143  0.00  0.00    +0.000 A 
ENDROOT
BRANCH   6   7
ATOM      7  N   UNL     1       0.569  10.480  20.815  0.00  0.00    +0.000 N 
ATOM      8  C   UNL     1       1.371  11.727  20.866  0.00  0.00    +0.000 C 
ATOM      9  C   UNL     1       0.466  12.970  21.131  0.00  0.00    +0.000 C 
ATOM     10  N   UNL     1      -0.394  12.767  22.303  0.00  0.00    +0.000 NA
ATOM     11  C   UNL     1      -1.359  13.820  22.572  0.00  0.00    +0.000 C 
ATOM     12  C   UNL     1      -2.330  13.123  23.527  0.00  0.00    +0.000 C 
ATOM     13  C   UNL     1      -2.178  11.620  23.258  0.00  0.00    +0.000 C 
ATOM     14  C   UNL     1      -1.207  11.551  22.093  0.00  0.00    +0.000 C 
ATOM     15  C   UNL     1      -0.304  10.309  22.007  0.00  0.00    +0.000 C 
ENDBRANCH   6   7
BRANCH   1  17
ATOM     16  C   UNL     1      -0.670  10.587  17.799  0.00  0.00    +0.000 C 
ATOM     17  O   UNL     1       0.722  10.410  18.027  0.00  0.00    +0.000 OA
ENDBRANCH   1  17
BRANCH   4  18
ATOM     18  N   UNL     1       2.509   5.971  20.942  0.00  0.00    +0.000 N 
ATOM     19  H   UNL     1       2.088   5.892  21.869  0.00  0.00    +0.000 HD
BRANCH  18  20
ATOM     20  S   UNL     1       2.382   4.455  20.174  0.00  0.00    +0.000 S 
ATOM     21  O   UNL     1       2.788   3.466  21.155  0.00  0.00    +0.000 OA
ATOM     22  O   UNL     1       1.086   4.370  19.547  0.00  0.00    +0.000 OA
BRANCH  20  23
ATOM     23  C   UNL     1       3.586   4.370  18.861  0.00  0.00    +0.000 A 
ATOM     24  S   UNL     1       5.112   5.027  19.245  0.00  0.00    +0.000 S 
ATOM     25  C   UNL     1       5.735   4.720  17.677  0.00  0.00    +0.000 A 
ATOM     26  C   UNL     1       7.045   4.980  17.230  0.00  0.00    +0.000 A 
ATOM     27  C   UNL     1       7.358   4.759  15.888  0.00  0.00    +0.000 A 
ATOM     28  C   UNL     1       6.386   4.298  15.014  0.00  0.00    +0.000 A 
ATOM     29 CL   UNL     1       6.762   4.117  13.344  0.00  0.00    +0.000 Cl
ATOM     30  C   UNL     1       5.104   3.982  15.474  0.00  0.00    +0.000 A 
ATOM     31  C   UNL     1       4.761   4.170  16.840  0.00  0.00    +0.000 A 
ATOM     32  C   UNL     1       3.553   3.849  17.575  0.00  0.00    +0.000 A 
ATOM     33  C   UNL     1       2.407   3.050  17.033  0.00  0.00    +0.000 C 
ENDBRANCH  20  23
ENDBRANCH  18  20
ENDBRANCH   4  18
TORSDOF 5
ENDMDL
MODEL 3
REMARK VINA RESULT:      -8.4      2.740      4.844
REMARK  Name = 
REMARK  7 active torsions:
REMARK  status: ('A' for Active; 'I' for Inactive)
REMARK    1  A    between atoms: C_1  and  O_2
REMARK    2  A    between atoms: O_2  and  C_3
REMARK    3  A    between atoms: C_6  and  N_7
REMARK    4  A    between atoms: N_7  and  S_8
REMARK    5  A    between atoms: S_8  and  C_11
REMARK    6  A    between atoms: C_20  and  C_21
REMARK    7  A    between atoms: C_23  and  N_24
REMARK                            x       y       z     vdW  Elec       q    Type
REMARK                         _______ _______ _______ _____ _____    ______ ____
ROOT
ATOM      1  C   UNL     1      -2.969  11.673  18.797  0.00  0.00    +0.000 A 
ATOM      2  C   UNL     1      -2.171  10.788  18.055  0.00  0.00    +0.000 A 
ATOM      3  C   UNL     1      -0.915  10.401  18.516  0.00  0.00    +0.000 A 
ATOM      4  C   UNL     1      -0.449  10.894  19.725  0.00  0.00    +0.000 A 
ATOM      5  C   UNL     1      -1.244  11.755  20.490  0.00  0.00    +0.000 A 
ATOM      6  C   UNL     1      -2.521  12.172  20.055  0.00  0.00    +0.000 A 
ENDROOT
BRANCH   6   7
ATOM      7  N   UNL     1      -3.267  13.096  20.793  0.00  0.00    +0.000 N 
ATOM      8  C   UNL     1      -2.884  14.528  20.850  0.00  0.00    +0.000 C 
ATOM      9  C   UNL     1      -4.108  15.427  21.208  0.00  0.00    +0.000 C 
ATOM     10  N   UNL     1      -4.791  14.946  22.415  0.00  0.00    +0.000 NA
ATOM     11  C   UNL     1      -6.013  15.644  22.774  0.00  0.00    +0.000 C 
ATOM     12  C   UNL     1      -6.664  14.664  23.750  0.00  0.00    +0.000 C 
ATOM     13  C   UNL     1      -6.077  13.286  23.416  0.00  0.00    +0.000 C 
ATOM     14  C   UNL     1      -5.204  13.543  22.201  0.00  0.00    +0.000 C 
ATOM     15  C   UNL     1      -3.971  12.641  22.021  0.00  0.00    +0.000 C 
ENDBRANCH   6   7
BRANCH   1  17
ATOM     16  C   UNL     1      -5.013  11.203  17.627  0.00  0.00    +0.000 C 
ATOM     17  O   UNL     1      -4.193  12.112  18.347  0.00  0.00    +0.000 OA
ENDBRANCH   1  17
BRANCH   4  18
ATOM     18  N   UNL     1       0.843  10.481  20.185  0.00  0.00    +0.000 N 
ATOM     19  H   UNL     1       1.327  11.198  20.729  0.00  0.00    +0.000 HD
BRANCH  18  20
ATOM     20  S   UNL     1       0.910   9.021  21.061  0.00  0.00    +0.000 S 
ATOM     21  O   UNL     1       1.778   9.268  22.198  0.00  0.00    +0.000 OA
ATOM     22  O   UNL     1      -0.438   8.549  21.263  0.00  0.00    +0.000 OA
BRANCH  20  23
ATOM     23  C   UNL     1       1.735   7.790  20.070  0.00  0.00    +0.000 A 
ATOM     24  S   UNL     1       1.798   6.234  20.765  0.00  0.00    +0.000 S 
ATOM     25  C   UNL     1       2.697   5.590  19.455  0.00  0.00    +0.000 A 
ATOM     26  C   UNL     1       3.114   4.253  19.301  0.00  0.00    +0.000 A 
ATOM     27  C   UNL     1       3.927   3.919  18.217  0.00  0.00    +0.000 A 
ATOM     28  C   UNL     1       4.320   4.895  17.316  0.00  0.00    +0.000 A 
ATOM     29 CL   UNL     1       5.396   4.486  16.036  0.00  0.00    +0.000 Cl
ATOM     30  C   UNL     1       3.854   6.209  17.435  0.00  0.00    +0.000 A 
ATOM     31  C   UNL     1       3.003   6.575  18.512  0.00  0.00    +0.000 A 
ATOM     32  C   UNL     1       2.327   7.822  18.814  0.00  0.00    +0.000 A 
ATOM     33  C   UNL     1       2.259   9.004  17.896  0.00  0.00    +0.000 C 
ENDBRANCH  20  23
ENDBRANCH  18  20
ENDBRANCH   4  18
TORSDOF 5
ENDMDL
MODEL 4
REMARK VINA RESULT:      -8.3      3.981      9.742
REMARK  Name = 
REMARK  7 active torsions:
REMARK  status: ('A' for Active; 'I' for Inactive)
REMARK    1  A    between atoms: C_1  and  O_2
REMARK    2  A    between atoms: O_2  and  C_3
REMARK    3  A    between atoms: C_6  and  N_7
REMARK    4  A    between atoms: N_7  and  S_8
REMARK    5  A    between atoms: S_8  and  C_11
REMARK    6  A    between atoms: C_20  and  C_21
REMARK    7  A    between atoms: C_23  and  N_24
REMARK                            x       y       z     vdW  Elec       q    Type
REMARK                         _______ _______ _______ _____ _____    ______ ____
ROOT
ATOM      1  C   UNL     1       2.457   5.186  20.050  0.00  0.00    +0.000 A 
ATOM      2  C   UNL     1       1.384   5.609  20.849  0.00  0.00    +0.000 A 
ATOM      3  C   UNL     1       0.998   6.947  20.877  0.00  0.00    +0.000 A 
ATOM      4  C   UNL     1       1.681   7.872  20.102  0.00  0.00    +0.000 A 
ATOM      5  C   UNL     1       2.735   7.461  19.279  0.00  0.00    +0.000 A 
ATOM      6  C   UNL     1       3.157   6.115  19.225  0.00  0.00    +0.000 A 
ENDROOT
BRANCH   6   7
ATOM      7  N   UNL     1       4.264   5.737  18.459  0.00  0.00    +0.000 N 
ATOM      8  C   UNL     1       5.580   5.461  19.086  0.00  0.00    +0.000 C 
ATOM      9  C   UNL     1       6.453   4.535  18.184  0.00  0.00    +0.000 C 
ATOM     10  N   UNL     1       6.545   5.054  16.814  0.00  0.00    +0.000 NA
ATOM     11  C   UNL     1       7.242   4.208  15.860  0.00  0.00    +0.000 C 
ATOM     12  C   UNL     1       6.788   4.797  14.524  0.00  0.00    +0.000 C 
ATOM     13  C   UNL     1       5.459   5.510  14.807  0.00  0.00    +0.000 C 
ATOM     14  C   UNL     1       5.180   5.198  16.267  0.00  0.00    +0.000 C 
ATOM     15  C   UNL     1       4.387   6.246  17.067  0.00  0.00    +0.000 C 
ENDBRANCH   6   7
BRANCH   1  17
ATOM     16  C   UNL     1       2.068   2.900  19.426  0.00  0.00    +0.000 C 
ATOM     17  O   UNL     1       2.894   3.882  20.036  0.00  0.00    +0.000 OA
ENDBRANCH   1  17
BRANCH   4  18
ATOM     18  N   UNL     1       1.266   9.242  20.141  0.00  0.00    +0.000 N 
ATOM     19  H   UNL     1       1.926   9.851  20.628  0.00  0.00    +0.000 HD
BRANCH  18  20
ATOM     20  S   UNL     1       0.887   9.967  18.646  0.00  0.00    +0.000 S 
ATOM     21  O   UNL     1       1.713  11.156  18.549  0.00  0.00    +0.000 OA
ATOM     22  O   UNL     1       0.946   8.954  17.621  0.00  0.00    +0.000 OA
BRANCH  20  23
ATOM     23  C   UNL     1      -0.800  10.541  18.694  0.00  0.00    +0.000 A 
ATOM     24  S   UNL     1      -1.768  10.033  17.385  0.00  0.00    +0.000 S 
ATOM     25  C   UNL     1      -3.136  10.901  17.946  0.00  0.00    +0.000 A 
ATOM     26  C   UNL     1      -4.414  10.926  17.354  0.00  0.00    +0.000 A 
ATOM     27  C   UNL     1      -5.391  11.767  17.888  0.00  0.00    +0.000 A 
ATOM     28  C   UNL     1      -5.097  12.567  18.981  0.00  0.00    +0.000 A 
ATOM     29 CL   UNL     1      -6.282  13.666  19.572  0.00  0.00    +0.000 Cl
ATOM     30  C   UNL     1      -3.847  12.495  19.605  0.00  0.00    +0.000 A 
ATOM     31  C   UNL     1      -2.840  11.629  19.102  0.00  0.00    +0.000 A 
ATOM     32  C   UNL     1      -1.517  11.309  19.602  0.00  0.00    +0.000 A 
ATOM     33  C   UNL     1      -0.977  11.739  20.932  0.00  0.00    +0.000 C 
ENDBRANCH  20  23
ENDBRANCH  18  20
ENDBRANCH   4  18
TORSDOF 5
ENDMDL
MODEL 5
REMARK VINA RESULT:      -8.2      3.936      9.726
REMARK  Name = 
REMARK  7 active torsions:
REMARK  status: ('A' for Active; 'I' for Inactive)
REMARK    1  A    between atoms: C_1  and  O_2
REMARK    2  A    between atoms: O_2  and  C_3
REMARK    3  A    between atoms: C_6  and  N_7
REMARK    4  A    between atoms: N_7  and  S_8
REMARK    5  A    between atoms: S_8  and  C_11
REMARK    6  A    between atoms: C_20  and  C_21
REMARK    7  A    between atoms: C_23  and  N_24
REMARK                            x       y       z     vdW  Elec       q    Type
REMARK                         _______ _______ _______ _____ _____    ______ ____
ROOT
ATOM      1  C   UNL     1       2.580   5.031  19.911  0.00  0.00    +0.000 A 
ATOM      2  C   UNL     1       1.507   5.403  20.736  0.00  0.00    +0.000 A 
ATOM      3  C   UNL     1       1.097   6.731  20.817  0.00  0.00    +0.000 A 
ATOM      4  C   UNL     1       1.752   7.697  20.070  0.00  0.00    +0.000 A 
ATOM      5  C   UNL     1       2.805   7.338  19.222  0.00  0.00    +0.000 A 
ATOM      6  C   UNL     1       3.253   6.003  19.115  0.00  0.00    +0.000 A 
ENDROOT
BRANCH   6   7
ATOM      7  N   UNL     1       4.358   5.675  18.323  0.00  0.00    +0.000 N 
ATOM      8  C   UNL     1       5.722   5.585  18.901  0.00  0.00    +0.000 C 
ATOM      9  C   UNL     1       6.646   4.680  18.030  0.00  0.00    +0.000 C 
ATOM     10  N   UNL     1       6.624   5.090  16.621  0.00  0.00    +0.000 NA
ATOM     11  C   UNL     1       7.363   4.241  15.701  0.00  0.00    +0.000 C 
ATOM     12  C   UNL     1       6.792   4.668  14.348  0.00  0.00    +0.000 C 
ATOM     13  C   UNL     1       5.410   5.265  14.644  0.00  0.00    +0.000 C 
ATOM     14  C   UNL     1       5.228   5.050  16.135  0.00  0.00    +0.000 C 
ATOM     15  C   UNL     1       4.367   6.076  16.891  0.00  0.00    +0.000 C 
ENDBRANCH   6   7
BRANCH   1  17
ATOM     16  C   UNL     1       2.164   2.687  20.224  0.00  0.00    +0.000 C 
ATOM     17  O   UNL     1       3.042   3.737  19.845  0.00  0.00    +0.000 OA
ENDBRANCH   1  17
BRANCH   4  18
ATOM     18  N   UNL     1       1.311   9.057  20.164  0.00  0.00    +0.000 N 
ATOM     19  H   UNL     1       1.957   9.657  20.680  0.00  0.00    +0.000 HD
BRANCH  18  20
ATOM     20  S   UNL     1       0.927   9.836  18.698  0.00  0.00    +0.000 S 
ATOM     21  O   UNL     1       1.929  10.868  18.510  0.00  0.00    +0.000 OA
ATOM     22  O   UNL     1       0.721   8.828  17.686  0.00  0.00    +0.000 OA
BRANCH  20  23
ATOM     23  C   UNL     1      -0.628  10.687  18.887  0.00  0.00    +0.000 A 
ATOM     24  S   UNL     1      -0.702  11.760  20.211  0.00  0.00    +0.000 S 
ATOM     25  C   UNL     1      -2.337  12.171  19.898  0.00  0.00    +0.000 A 
ATOM     26  C   UNL     1      -3.119  13.101  20.612  0.00  0.00    +0.000 A 
ATOM     27  C   UNL     1      -4.468  13.242  20.285  0.00  0.00    +0.000 A 
ATOM     28  C   UNL     1      -5.023  12.470  19.277  0.00  0.00    +0.000 A 
ATOM     29 CL   UNL     1      -6.709  12.590  18.946  0.00  0.00    +0.000 Cl
ATOM     30  C   UNL     1      -4.231  11.592  18.529  0.00  0.00    +0.000 A 
ATOM     31  C   UNL     1      -2.849  11.445  18.819  0.00  0.00    +0.000 A 
ATOM     32  C   UNL     1      -1.809  10.683  18.156  0.00  0.00    +0.000 A 
ATOM     33  C   UNL     1      -1.968   9.977  16.844  0.00  0.00    +0.000 C 
ENDBRANCH  20  23
ENDBRANCH  18  20
ENDBRANCH   4  18
TORSDOF 5
ENDMDL
MODEL 6
REMARK VINA RESULT:      -8.2      0.624      1.269
REMARK  Name = 
REMARK  7 active torsions:
REMARK  status: ('A' for Active; 'I' for Inactive)
REMARK    1  A    between atoms: C_1  and  O_2
REMARK    2  A    between atoms: O_2  and  C_3
REMARK    3  A    between atoms: C_6  and  N_7
REMARK    4  A    between atoms: N_7  and  S_8
REMARK    5  A    between atoms: S_8  and  C_11
REMARK    6  A    between atoms: C_20  and  C_21
REMARK    7  A    between atoms: C_23  and  N_24
REMARK                            x       y       z     vdW  Elec       q    Type
REMARK                         _______ _______ _______ _____ _____    ______ ____
ROOT
ATOM      1  C   UNL     1       1.842   9.153  18.349  0.00  0.00    +0.000 A 
ATOM      2  C   UNL     1       2.786   8.149  18.078  0.00  0.00    +0.000 A 
ATOM      3  C   UNL     1       2.946   7.069  18.942  0.00  0.00    +0.000 A 
ATOM      4  C   UNL     1       2.161   6.981  20.081  0.00  0.00    +0.000 A 
ATOM      5  C   UNL     1       1.197   7.959  20.350  0.00  0.00    +0.000 A 
ATOM      6  C   UNL     1       1.006   9.070  19.500  0.00  0.00    +0.000 A 
ENDROOT
BRANCH   6   7
ATOM      7  N   UNL     1       0.094  10.079  19.827  0.00  0.00    +0.000 N 
ATOM      8  C   UNL     1      -0.817  10.655  18.808  0.00  0.00    +0.000 C 
ATOM      9  C   UNL     1      -2.077  11.292  19.472  0.00  0.00    +0.000 C 
ATOM     10  N   UNL     1      -1.704  12.232  20.536  0.00  0.00    +0.000 NA
ATOM     11  C   UNL     1      -2.805  12.797  21.298  0.00  0.00    +0.000 C 
ATOM     12  C   UNL     1      -2.088  13.343  22.534  0.00  0.00    +0.000 C 
ATOM     13  C   UNL     1      -0.783  12.545  22.649  0.00  0.00    +0.000 C 
ATOM     14  C   UNL     1      -0.879  11.520  21.533  0.00  0.00    +0.000 C 
ATOM     15  C   UNL     1       0.441  11.047  20.901  0.00  0.00    +0.000 C 
ENDBRANCH   6   7
BRANCH   1  17
ATOM     16  C   UNL     1       2.519  11.387  17.786  0.00  0.00    +0.000 C 
ATOM     17  O   UNL     1       1.692  10.257  17.542  0.00  0.00    +0.000 OA
ENDBRANCH   1  17
BRANCH   4  18
ATOM     18  N   UNL     1       2.338   5.859  20.954  0.00  0.00    +0.000 N 
ATOM     19  H   UNL     1       1.686   5.853  21.740  0.00  0.00    +0.000 HD
BRANCH  18  20
ATOM     20  S   UNL     1       2.305   4.317  20.230  0.00  0.00    +0.000 S 
ATOM     21  O   UNL     1       2.737   3.379  21.249  0.00  0.00    +0.000 OA
ATOM     22  O   UNL     1       1.029   4.147  19.578  0.00  0.00    +0.000 OA
BRANCH  20  23
ATOM     23  C   UNL     1       3.541   4.256  18.947  0.00  0.00    +0.000 A 
ATOM     24  S   UNL     1       5.105   4.728  19.435  0.00  0.00    +0.000 S 
ATOM     25  C   UNL     1       5.752   4.525  17.860  0.00  0.00    +0.000 A 
ATOM     26  C   UNL     1       7.095   4.708  17.475  0.00  0.00    +0.000 A 
ATOM     27  C   UNL     1       7.433   4.596  16.125  0.00  0.00    +0.000 A 
ATOM     28  C   UNL     1       6.455   4.317  15.185  0.00  0.00    +0.000 A 
ATOM     29 CL   UNL     1       6.870   4.273  13.514  0.00  0.00    +0.000 Cl
ATOM     30  C   UNL     1       5.134   4.075  15.576  0.00  0.00    +0.000 A 
ATOM     31  C   UNL     1       4.762   4.154  16.945  0.00  0.00    +0.000 A 
ATOM     32  C   UNL     1       3.506   3.872  17.613  0.00  0.00    +0.000 A 
ATOM     33  C   UNL     1       2.313   3.242  16.962  0.00  0.00    +0.000 C 
ENDBRANCH  20  23
ENDBRANCH  18  20
ENDBRANCH   4  18
TORSDOF 5
ENDMDL
MODEL 7
REMARK VINA RESULT:      -8.0      4.248     10.069
REMARK  Name = 
REMARK  7 active torsions:
REMARK  status: ('A' for Active; 'I' for Inactive)
REMARK    1  A    between atoms: C_1  and  O_2
REMARK    2  A    between atoms: O_2  and  C_3
REMARK    3  A    between atoms: C_6  and  N_7
REMARK    4  A    between atoms: N_7  and  S_8
REMARK    5  A    between atoms: S_8  and  C_11
REMARK    6  A    between atoms: C_20  and  C_21
REMARK    7  A    between atoms: C_23  and  N_24
REMARK                            x       y       z     vdW  Elec       q    Type
REMARK                         _______ _______ _______ _____ _____    ______ ____
ROOT
ATOM      1  C   UNL     1       2.185   6.882  19.898  0.00  0.00    +0.000 A 
ATOM      2  C   UNL     1       1.417   7.859  20.549  0.00  0.00    +0.000 A 
ATOM      3  C   UNL     1       1.090   9.052  19.911  0.00  0.00    +0.000 A 
ATOM      4  C   UNL     1       1.525   9.276  18.614  0.00  0.00    +0.000 A 
ATOM      5  C   UNL     1       2.269   8.300  17.941  0.00  0.00    +0.000 A 
ATOM      6  C   UNL     1       2.623   7.079  18.555  0.00  0.00    +0.000 A 
ENDROOT
BRANCH   6   7
ATOM      7  N   UNL     1       3.434   6.150  17.896  0.00  0.00    +0.000 N 
ATOM      8  C   UNL     1       3.051   4.720  17.803  0.00  0.00    +0.000 C 
ATOM      9  C   UNL     1       3.748   4.027  16.592  0.00  0.00    +0.000 C 
ATOM     10  N   UNL     1       5.199   4.253  16.607  0.00  0.00    +0.000 NA
ATOM     11  C   UNL     1       5.932   3.746  15.460  0.00  0.00    +0.000 C 
ATOM     12  C   UNL     1       7.257   4.501  15.572  0.00  0.00    +0.000 C 
ATOM     13  C   UNL     1       6.954   5.764  16.388  0.00  0.00    +0.000 C 
ATOM     14  C   UNL     1       5.453   5.709  16.606  0.00  0.00    +0.000 C 
ATOM     15  C   UNL     1       4.908   6.351  17.893  0.00  0.00    +0.000 C 
ENDBRANCH   6   7
BRANCH   1  17
ATOM     16  C   UNL     1       1.563   4.761  20.837  0.00  0.00    +0.000 C 
ATOM     17  O   UNL     1       2.567   5.713  20.516  0.00  0.00    +0.000 OA
ENDBRANCH   1  17
BRANCH   4  18
ATOM     18  N   UNL     1       1.174  10.508  17.973  0.00  0.00    +0.000 N 
ATOM     19  H   UNL     1       0.490  10.393  17.224  0.00  0.00    +0.000 HD
BRANCH  18  20
ATOM     20  S   UNL     1       0.638  11.769  18.987  0.00  0.00    +0.000 S 
ATOM     21  O   UNL     1       1.062  11.421  20.330  0.00  0.00    +0.000 OA
ATOM     22  O   UNL     1       1.036  13.026  18.400  0.00  0.00    +0.000 OA
BRANCH  20  23
ATOM     23  C   UNL     1      -1.145  11.766  19.016  0.00  0.00    +0.000 A 
ATOM     24  S   UNL     1      -1.882  10.911  17.738  0.00  0.00    +0.000 S 
ATOM     25  C   UNL     1      -3.463  11.314  18.265  0.00  0.00    +0.000 A 
ATOM     26  C   UNL     1      -4.674  10.896  17.679  0.00  0.00    +0.000 A 
ATOM     27  C   UNL     1      -5.876  11.398  18.177  0.00  0.00    +0.000 A 
ATOM     28  C   UNL     1      -5.869  12.301  19.229  0.00  0.00    +0.000 A 
ATOM     29 CL   UNL     1      -7.353  12.983  19.774  0.00  0.00    +0.000 Cl
ATOM     30  C   UNL     1      -4.670  12.667  19.850  0.00  0.00    +0.000 A 
ATOM     31  C   UNL     1      -3.431  12.151  19.383  0.00  0.00    +0.000 A 
ATOM     32  C   UNL     1      -2.081  12.302  19.890  0.00  0.00    +0.000 A 
ATOM     33  C   UNL     1      -1.723  12.946  21.195  0.00  0.00    +0.000 C 
ENDBRANCH  20  23
ENDBRANCH  18  20
ENDBRANCH   4  18
TORSDOF 5
ENDMDL
MODEL 8
REMARK VINA RESULT:      -7.9      4.209     10.182
REMARK  Name = 
REMARK  7 active torsions:
REMARK  status: ('A' for Active; 'I' for Inactive)
REMARK    1  A    between atoms: C_1  and  O_2
REMARK    2  A    between atoms: O_2  and  C_3
REMARK    3  A    between atoms: C_6  and  N_7
REMARK    4  A    between atoms: N_7  and  S_8
REMARK    5  A    between atoms: S_8  and  C_11
REMARK    6  A    between atoms: C_20  and  C_21
REMARK    7  A    between atoms: C_23  and  N_24
REMARK                            x       y       z     vdW  Elec       q    Type
REMARK                         _______ _______ _______ _____ _____    ______ ____
ROOT
ATOM      1  C   UNL     1       1.849   6.247  20.557  0.00  0.00    +0.000 A 
ATOM      2  C   UNL     1       0.927   7.033  21.266  0.00  0.00    +0.000 A 
ATOM      3  C   UNL     1       0.648   8.339  20.870  0.00  0.00    +0.000 A 
ATOM      4  C   UNL     1       1.286   8.867  19.758  0.00  0.00    +0.000 A 
ATOM      5  C   UNL     1       2.186   8.086  19.024  0.00  0.00    +0.000 A 
ATOM      6  C   UNL     1       2.497   6.760  19.396  0.00  0.00    +0.000 A 
ENDROOT
BRANCH   6   7
ATOM      7  N   UNL     1       3.459   6.024  18.699  0.00  0.00    +0.000 N 
ATOM      8  C   UNL     1       3.071   4.973  17.726  0.00  0.00    +0.000 C 
ATOM      9  C   UNL     1       4.209   4.714  16.690  0.00  0.00    +0.000 C 
ATOM     10  N   UNL     1       5.492   4.462  17.356  0.00  0.00    +0.000 NA
ATOM     11  C   UNL     1       6.644   4.320  16.482  0.00  0.00    +0.000 C 
ATOM     12  C   UNL     1       7.807   4.509  17.457  0.00  0.00    +0.000 C 
ATOM     13  C   UNL     1       7.240   5.306  18.639  0.00  0.00    +0.000 C 
ATOM     14  C   UNL     1       5.813   5.615  18.223  0.00  0.00    +0.000 C 
ATOM     15  C   UNL     1       4.771   5.751  19.345  0.00  0.00    +0.000 C 
ENDBRANCH   6   7
BRANCH   1  17
ATOM     16  C   UNL     1       1.235   3.933  20.746  0.00  0.00    +0.000 C 
ATOM     17  O   UNL     1       2.183   4.972  20.950  0.00  0.00    +0.000 OA
ENDBRANCH   1  17
BRANCH   4  18
ATOM     18  N   UNL     1       0.982  10.210  19.364  0.00  0.00    +0.000 N 
ATOM     19  H   UNL     1       0.103  10.291  18.849  0.00  0.00    +0.000 HD
BRANCH  18  20
ATOM     20  S   UNL     1       0.978  11.385  20.598  0.00  0.00    +0.000 S 
ATOM     21  O   UNL     1       1.408  10.707  21.807  0.00  0.00    +0.000 OA
ATOM     22  O   UNL     1       1.687  12.548  20.123  0.00  0.00    +0.000 OA
BRANCH  20  23
ATOM     23  C   UNL     1      -0.702  11.903  20.895  0.00  0.00    +0.000 A 
ATOM     24  S   UNL     1      -1.137  12.018  22.540  0.00  0.00    +0.000 S 
ATOM     25  C   UNL     1      -2.752  12.461  22.172  0.00  0.00    +0.000 A 
ATOM     26  C   UNL     1      -3.766  12.777  23.098  0.00  0.00    +0.000 A 
ATOM     27  C   UNL     1      -5.058  13.021  22.629  0.00  0.00    +0.000 A 
ATOM     28  C   UNL     1      -5.331  12.943  21.273  0.00  0.00    +0.000 A 
ATOM     29 CL   UNL     1      -6.947  13.156  20.718  0.00  0.00    +0.000 Cl
ATOM     30  C   UNL     1      -4.310  12.690  20.351  0.00  0.00    +0.000 A 
ATOM     31  C   UNL     1      -2.979  12.464  20.794  0.00  0.00    +0.000 A 
ATOM     32  C   UNL     1      -1.747  12.267  20.056  0.00  0.00    +0.000 A 
ATOM     33  C   UNL     1      -1.599  12.435  18.574  0.00  0.00    +0.000 C 
ENDBRANCH  20  23
ENDBRANCH  18  20
ENDBRANCH   4  18
TORSDOF 5
ENDMDL
MODEL 9
REMARK VINA RESULT:      -7.9      4.271      9.920
REMARK  Name = 
REMARK  7 active torsions:
REMARK  status: ('A' for Active; 'I' for Inactive)
REMARK    1  A    between atoms: C_1  and  O_2
REMARK    2  A    between atoms: O_2  and  C_3
REMARK    3  A    between atoms: C_6  and  N_7
REMARK    4  A    between atoms: N_7  and  S_8
REMARK    5  A    between atoms: S_8  and  C_11
REMARK    6  A    between atoms: C_20  and  C_21
REMARK    7  A    between atoms: C_23  and  N_24
REMARK                            x       y       z     vdW  Elec       q    Type
REMARK                         _______ _______ _______ _____ _____    ______ ____
ROOT
ATOM      1  C   UNL     1       2.776   4.942  20.096  0.00  0.00    +0.000 A 
ATOM      2  C   UNL     1       1.713   5.278  20.948  0.00  0.00    +0.000 A 
ATOM      3  C   UNL     1       1.201   6.573  20.973  0.00  0.00    +0.000 A 
ATOM      4  C   UNL     1       1.745   7.540  20.142  0.00  0.00    +0.000 A 
ATOM      5  C   UNL     1       2.787   7.213  19.267  0.00  0.00    +0.000 A 
ATOM      6  C   UNL     1       3.335   5.913  19.215  0.00  0.00    +0.000 A 
ENDROOT
BRANCH   6   7
ATOM      7  N   UNL     1       4.429   5.625  18.393  0.00  0.00    +0.000 N 
ATOM      8  C   UNL     1       5.809   5.570  18.936  0.00  0.00    +0.000 C 
ATOM      9  C   UNL     1       6.737   4.700  18.032  0.00  0.00    +0.000 C 
ATOM     10  N   UNL     1       6.667   5.122  16.628  0.00  0.00    +0.000 NA
ATOM     11  C   UNL     1       7.406   4.304  15.682  0.00  0.00    +0.000 C 
ATOM     12  C   UNL     1       6.789   4.727  14.348  0.00  0.00    +0.000 C 
ATOM     13  C   UNL     1       5.398   5.280  14.684  0.00  0.00    +0.000 C 
ATOM     14  C   UNL     1       5.261   5.046  16.178  0.00  0.00    +0.000 C 
ATOM     15  C   UNL     1       4.390   6.039  16.966  0.00  0.00    +0.000 C 
ENDBRANCH   6   7
BRANCH   1  17
ATOM     16  C   UNL     1       2.852   2.719  21.003  0.00  0.00    +0.000 C 
ATOM     17  O   UNL     1       3.338   3.686  20.082  0.00  0.00    +0.000 OA
ENDBRANCH   1  17
BRANCH   4  18
ATOM     18  N   UNL     1       1.201   8.865  20.179  0.00  0.00    +0.000 N 
ATOM     19  H   UNL     1       0.464   9.018  19.488  0.00  0.00    +0.000 HD
BRANCH  18  20
ATOM     20  S   UNL     1       0.628   9.412  21.688  0.00  0.00    +0.000 S 
ATOM     21  O   UNL     1      -0.604   8.689  21.943  0.00  0.00    +0.000 OA
ATOM     22  O   UNL     1       1.715   9.356  22.635  0.00  0.00    +0.000 OA
BRANCH  20  23
ATOM     23  C   UNL     1       0.171  11.129  21.543  0.00  0.00    +0.000 A 
ATOM     24  S   UNL     1       0.958  11.977  20.291  0.00  0.00    +0.000 S 
ATOM     25  C   UNL     1       0.194  13.458  20.695  0.00  0.00    +0.000 A 
ATOM     26  C   UNL     1       0.338  14.687  20.022  0.00  0.00    +0.000 A 
ATOM     27  C   UNL     1      -0.282  15.822  20.546  0.00  0.00    +0.000 A 
ATOM     28  C   UNL     1      -1.021  15.733  21.715  0.00  0.00    +0.000 A 
ATOM     29 CL   UNL     1      -1.704  17.158  22.399  0.00  0.00    +0.000 Cl
ATOM     30  C   UNL     1      -1.214  14.501  22.347  0.00  0.00    +0.000 A 
ATOM     31  C   UNL     1      -0.618  13.322  21.824  0.00  0.00    +0.000 A 
ATOM     32  C   UNL     1      -0.727  11.934  22.231  0.00  0.00    +0.000 A 
ATOM     33  C   UNL     1      -1.687  11.415  23.258  0.00  0.00    +0.000 C 
ENDBRANCH  20  23
ENDBRANCH  18  20
ENDBRANCH   4  18
TORSDOF 5
ENDMDL
