MODEL 1
REMARK VINA RESULT:      -8.1      0.000      0.000
REMARK  Name = 
REMARK  6 active torsions:
REMARK  status: ('A' for Active; 'I' for Inactive)
REMARK    1  A    between atoms: C_1  and  O_2
REMARK    2  A    between atoms: O_2  and  C_3
REMARK    3  A    between atoms: C_7  and  N_8
REMARK    4  A    between atoms: C_12  and  S_13
REMARK    5  A    between atoms: S_13  and  C_14
REMARK    6  A    between atoms: C_14  and  C_15
REMARK                            x       y       z     vdW  Elec       q    Type
REMARK                         _______ _______ _______ _____ _____    ______ ____
ROOT
ATOM      1  N   UNL     1       2.463   7.160  18.793  0.00  0.00    +0.000 N 
ATOM      2  C   UNL     1       2.413   8.220  17.882  0.00  0.00    +0.000 A 
ATOM      3  C   UNL     1       1.777   9.368  18.159  0.00  0.00    +0.000 A 
ATOM      4  N   UNL     1       1.174   9.529  19.395  0.00  0.00    +0.000 N 
ATOM      5  C   UNL     1       0.480  10.554  19.993  0.00  0.00    +0.000 A 
ATOM      6  N   UNL     1       0.159  10.221  21.223  0.00  0.00    +0.000 NA
ATOM      7  N   UNL     1       0.622   8.941  21.448  0.00  0.00    +0.000 NA
ATOM      8  C   UNL     1       1.215   8.536  20.343  0.00  0.00    +0.000 A 
ATOM      9  C   UNL     1       1.852   7.258  20.089  0.00  0.00    +0.000 A 
ATOM     10  O   UNL     1       1.894   6.357  20.926  0.00  0.00    +0.000 OA
ENDROOT
BRANCH   1  15
ATOM     11  C   UNL     1       5.128   4.584  18.281  0.00  0.00    +0.000 A 
ATOM     12  C   UNL     1       4.398   3.583  17.636  0.00  0.00    +0.000 A 
ATOM     13  C   UNL     1       3.032   3.742  17.400  0.00  0.00    +0.000 A 
ATOM     14  C   UNL     1       2.385   4.905  17.815  0.00  0.00    +0.000 A 
ATOM     15  C   UNL     1       3.109   5.933  18.434  0.00  0.00    +0.000 A 
ATOM     16  C   UNL     1       4.486   5.768  18.659  0.00  0.00    +0.000 A 
BRANCH  11  18
ATOM     17  C   UNL     1       7.351   4.627  17.433  0.00  0.00    +0.000 C 
ATOM     18  O   UNL     1       6.449   4.286  18.479  0.00  0.00    +0.000 OA
ENDBRANCH  11  18
ENDBRANCH   1  15
BRANCH   5  19
ATOM     19  S   UNL     1       0.087  12.044  19.199  0.00  0.00    +0.000 S 
BRANCH  19  20
ATOM     20  C   UNL     1      -1.668  12.224  19.657  0.00  0.00    +0.000 C 
BRANCH  20  21
ATOM     21  C   UNL     1      -2.583  11.787  18.535  0.00  0.00    +0.000 A 
ATOM     22  C   UNL     1      -2.062  11.374  17.299  0.00  0.00    +0.000 A 
ATOM     23  C   UNL     1      -2.913  10.979  16.261  0.00  0.00    +0.000 A 
ATOM     24  C   UNL     1      -4.294  10.991  16.445  0.00  0.00    +0.000 A 
ATOM     25  C   UNL     1      -4.822  11.399  17.671  0.00  0.00    +0.000 A 
ATOM     26 CL   UNL     1      -6.527  11.412  17.904  0.00  0.00    +0.000 Cl
ATOM     27  C   UNL     1      -3.977  11.791  18.711  0.00  0.00    +0.000 A 
ENDBRANCH  20  21
ENDBRANCH  19  20
ENDBRANCH   5  19
TORSDOF 5
ENDMDL
MODEL 2
REMARK VINA RESULT:      -8.0      0.991      1.356
REMARK  Name = 
REMARK  6 active torsions:
REMARK  status: ('A' for Active; 'I' for Inactive)
REMARK    1  A    between atoms: C_1  and  O_2
REMARK    2  A    between atoms: O_2  and  C_3
REMARK    3  A    between atoms: C_7  and  N_8
REMARK    4  A    between atoms: C_12  and  S_13
REMARK    5  A    between atoms: S_13  and  C_14
REMARK    6  A    between atoms: C_14  and  C_15
REMARK                            x       y       z     vdW  Elec       q    Type
REMARK                         _______ _______ _______ _____ _____    ______ ____
ROOT
ATOM      1  N   UNL     1       2.429   7.169  18.656  0.00  0.00    +0.000 N 
ATOM      2  C   UNL     1       2.315   8.232  17.753  0.00  0.00    +0.000 A 
ATOM      3  C   UNL     1       1.692   9.376  18.073  0.00  0.00    +0.000 A 
ATOM      4  N   UNL     1       1.169   9.530  19.346  0.00  0.00    +0.000 N 
ATOM      5  C   UNL     1       0.509  10.550  19.990  0.00  0.00    +0.000 A 
ATOM      6  N   UNL     1       0.269  10.212  21.237  0.00  0.00    +0.000 NA
ATOM      7  N   UNL     1       0.752   8.934  21.428  0.00  0.00    +0.000 NA
ATOM      8  C   UNL     1       1.275   8.535  20.287  0.00  0.00    +0.000 A 
ATOM      9  C   UNL     1       1.901   7.261  19.988  0.00  0.00    +0.000 A 
ATOM     10  O   UNL     1       2.001   6.358  20.819  0.00  0.00    +0.000 OA
ENDROOT
BRANCH   1  15
ATOM     11  C   UNL     1       5.076   4.660  17.828  0.00  0.00    +0.000 A 
ATOM     12  C   UNL     1       4.292   3.601  17.364  0.00  0.00    +0.000 A 
ATOM     13  C   UNL     1       2.901   3.701  17.353  0.00  0.00    +0.000 A 
ATOM     14  C   UNL     1       2.284   4.864  17.815  0.00  0.00    +0.000 A 
ATOM     15  C   UNL     1       3.057   5.946  18.253  0.00  0.00    +0.000 A 
ATOM     16  C   UNL     1       4.458   5.840  18.250  0.00  0.00    +0.000 A 
BRANCH  11  18
ATOM     17  C   UNL     1       7.091   4.554  16.566  0.00  0.00    +0.000 C 
ATOM     18  O   UNL     1       6.423   4.417  17.814  0.00  0.00    +0.000 OA
ENDBRANCH  11  18
ENDBRANCH   1  15
BRANCH   5  19
ATOM     19  S   UNL     1       0.059  12.039  19.227  0.00  0.00    +0.000 S 
BRANCH  19  20
ATOM     20  C   UNL     1      -1.634  12.255  19.869  0.00  0.00    +0.000 C 
BRANCH  20  21
ATOM     21  C   UNL     1      -2.673  11.905  18.828  0.00  0.00    +0.000 A 
ATOM     22  C   UNL     1      -4.043  12.060  19.095  0.00  0.00    +0.000 A 
ATOM     23  C   UNL     1      -5.000  11.726  18.132  0.00  0.00    +0.000 A 
ATOM     24  C   UNL     1      -4.604  11.234  16.891  0.00  0.00    +0.000 A 
ATOM     25  C   UNL     1      -3.245  11.078  16.614  0.00  0.00    +0.000 A 
ATOM     26 CL   UNL     1      -2.750  10.474  15.081  0.00  0.00    +0.000 Cl
ATOM     27  C   UNL     1      -2.284  11.412  17.571  0.00  0.00    +0.000 A 
ENDBRANCH  20  21
ENDBRANCH  19  20
ENDBRANCH   5  19
TORSDOF 5
ENDMDL
MODEL 3
REMARK VINA RESULT:      -7.9      1.173      1.857
REMARK  Name = 
REMARK  6 active torsions:
REMARK  status: ('A' for Active; 'I' for Inactive)
REMARK    1  A    between atoms: C_1  and  O_2
REMARK    2  A    between atoms: O_2  and  C_3
REMARK    3  A    between atoms: C_7  and  N_8
REMARK    4  A    between atoms: C_12  and  S_13
REMARK    5  A    between atoms: S_13  and  C_14
REMARK    6  A    between atoms: C_14  and  C_15
REMARK                            x       y       z     vdW  Elec       q    Type
REMARK                         _______ _______ _______ _____ _____    ______ ____
ROOT
ATOM      1  N   UNL     1       2.276   7.384  18.538  0.00  0.00    +0.000 N 
ATOM      2  C   UNL     1       2.031   8.489  17.715  0.00  0.00    +0.000 A 
ATOM      3  C   UNL     1       1.446   9.605  18.175  0.00  0.00    +0.000 A 
ATOM      4  N   UNL     1       1.098   9.686  19.512  0.00  0.00    +0.000 N 
ATOM      5  C   UNL     1       0.521  10.662  20.291  0.00  0.00    +0.000 A 
ATOM      6  N   UNL     1       0.455  10.258  21.540  0.00  0.00    +0.000 NA
ATOM      7  N   UNL     1       0.972   8.979  21.598  0.00  0.00    +0.000 NA
ATOM      8  C   UNL     1       1.340   8.647  20.377  0.00  0.00    +0.000 A 
ATOM      9  C   UNL     1       1.932   7.400  19.932  0.00  0.00    +0.000 A 
ATOM     10  O   UNL     1       2.152   6.459  20.693  0.00  0.00    +0.000 OA
ENDROOT
BRANCH   1  15
ATOM     11  C   UNL     1       2.723   3.810  17.529  0.00  0.00    +0.000 A 
ATOM     12  C   UNL     1       4.025   3.845  17.024  0.00  0.00    +0.000 A 
ATOM     13  C   UNL     1       4.738   5.043  16.988  0.00  0.00    +0.000 A 
ATOM     14  C   UNL     1       4.148   6.219  17.452  0.00  0.00    +0.000 A 
ATOM     15  C   UNL     1       2.856   6.194  17.991  0.00  0.00    +0.000 A 
ATOM     16  C   UNL     1       2.149   4.980  18.033  0.00  0.00    +0.000 A 
BRANCH  11  18
ATOM     17  C   UNL     1       1.261   2.234  18.550  0.00  0.00    +0.000 C 
ATOM     18  O   UNL     1       2.128   2.578  17.477  0.00  0.00    +0.000 OA
ENDBRANCH  11  18
ENDBRANCH   1  15
BRANCH   5  19
ATOM     19  S   UNL     1      -0.042  12.180  19.674  0.00  0.00    +0.000 S 
BRANCH  19  20
ATOM     20  C   UNL     1      -1.826  12.053  20.027  0.00  0.00    +0.000 C 
BRANCH  20  21
ATOM     21  C   UNL     1      -2.619  11.737  18.779  0.00  0.00    +0.000 A 
ATOM     22  C   UNL     1      -1.982  11.266  17.619  0.00  0.00    +0.000 A 
ATOM     23  C   UNL     1      -2.719  10.983  16.465  0.00  0.00    +0.000 A 
ATOM     24  C   UNL     1      -4.100  11.168  16.452  0.00  0.00    +0.000 A 
ATOM     25  C   UNL     1      -4.743  11.635  17.600  0.00  0.00    +0.000 A 
ATOM     26 CL   UNL     1      -6.449  11.861  17.591  0.00  0.00    +0.000 Cl
ATOM     27  C   UNL     1      -4.012  11.916  18.757  0.00  0.00    +0.000 A 
ENDBRANCH  20  21
ENDBRANCH  19  20
ENDBRANCH   5  19
TORSDOF 5
ENDMDL
MODEL 4
REMARK VINA RESULT:      -7.8      1.492      2.198
REMARK  Name = 
REMARK  6 active torsions:
REMARK  status: ('A' for Active; 'I' for Inactive)
REMARK    1  A    between atoms: C_1  and  O_2
REMARK    2  A    between atoms: O_2  and  C_3
REMARK    3  A    between atoms: C_7  and  N_8
REMARK    4  A    between atoms: C_12  and  S_13
REMARK    5  A    between atoms: S_13  and  C_14
REMARK    6  A    between atoms: C_14  and  C_15
REMARK                            x       y       z     vdW  Elec       q    Type
REMARK                         _______ _______ _______ _____ _____    ______ ____
ROOT
ATOM      1  N   UNL     1       2.292   7.622  18.554  0.00  0.00    +0.000 N 
ATOM      2  C   UNL     1       2.076   8.737  17.738  0.00  0.00    +0.000 A 
ATOM      3  C   UNL     1       1.441   9.832  18.181  0.00  0.00    +0.000 A 
ATOM      4  N   UNL     1       1.010   9.881  19.496  0.00  0.00    +0.000 N 
ATOM      5  C   UNL     1       0.366  10.830  20.255  0.00  0.00    +0.000 A 
ATOM      6  N   UNL     1       0.231  10.400  21.490  0.00  0.00    +0.000 NA
ATOM      7  N   UNL     1       0.770   9.131  21.556  0.00  0.00    +0.000 NA
ATOM      8  C   UNL     1       1.219   8.830  20.355  0.00  0.00    +0.000 A 
ATOM      9  C   UNL     1       1.863   7.604  19.924  0.00  0.00    +0.000 A 
ATOM     10  O   UNL     1       2.054   6.652  20.680  0.00  0.00    +0.000 OA
ENDROOT
BRANCH   1  15
ATOM     11  C   UNL     1       2.842   4.096  17.429  0.00  0.00    +0.000 A 
ATOM     12  C   UNL     1       4.196   4.143  17.088  0.00  0.00    +0.000 A 
ATOM     13  C   UNL     1       4.914   5.334  17.198  0.00  0.00    +0.000 A 
ATOM     14  C   UNL     1       4.277   6.491  17.646  0.00  0.00    +0.000 A 
ATOM     15  C   UNL     1       2.928   6.453  18.022  0.00  0.00    +0.000 A 
ATOM     16  C   UNL     1       2.216   5.247  17.917  0.00  0.00    +0.000 A 
BRANCH  11  18
ATOM     17  C   UNL     1       2.381   1.929  18.295  0.00  0.00    +0.000 C 
ATOM     18  O   UNL     1       2.251   2.876  17.242  0.00  0.00    +0.000 OA
ENDBRANCH  11  18
ENDBRANCH   1  15
BRANCH   5  19
ATOM     19  S   UNL     1      -0.189  12.349  19.632  0.00  0.00    +0.000 S 
BRANCH  19  20
ATOM     20  C   UNL     1      -1.917  12.346  20.212  0.00  0.00    +0.000 C 
BRANCH  20  21
ATOM     21  C   UNL     1      -2.878  12.000  19.096  0.00  0.00    +0.000 A 
ATOM     22  C   UNL     1      -4.265  12.138  19.270  0.00  0.00    +0.000 A 
ATOM     23  C   UNL     1      -5.149  11.809  18.238  0.00  0.00    +0.000 A 
ATOM     24  C   UNL     1      -4.663  11.338  17.021  0.00  0.00    +0.000 A 
ATOM     25  C   UNL     1      -3.286  11.198  16.838  0.00  0.00    +0.000 A 
ATOM     26 CL   UNL     1      -2.679  10.620  15.335  0.00  0.00    +0.000 Cl
ATOM     27  C   UNL     1      -2.397  11.528  17.864  0.00  0.00    +0.000 A 
ENDBRANCH  20  21
ENDBRANCH  19  20
ENDBRANCH   5  19
TORSDOF 5
ENDMDL
MODEL 5
REMARK VINA RESULT:      -7.6      3.007      3.995
REMARK  Name = 
REMARK  6 active torsions:
REMARK  status: ('A' for Active; 'I' for Inactive)
REMARK    1  A    between atoms: C_1  and  O_2
REMARK    2  A    between atoms: O_2  and  C_3
REMARK    3  A    between atoms: C_7  and  N_8
REMARK    4  A    between atoms: C_12  and  S_13
REMARK    5  A    between atoms: S_13  and  C_14
REMARK    6  A    between atoms: C_14  and  C_15
REMARK                            x       y       z     vdW  Elec       q    Type
REMARK                         _______ _______ _______ _____ _____    ______ ____
ROOT
ATOM      1  N   UNL     1       2.345   6.990  19.225  0.00  0.00    +0.000 N 
ATOM      2  C   UNL     1       1.797   6.952  20.512  0.00  0.00    +0.000 A 
ATOM      3  C   UNL     1       1.167   8.006  21.050  0.00  0.00    +0.000 A 
ATOM      4  N   UNL     1       1.022   9.164  20.304  0.00  0.00    +0.000 N 
ATOM      5  C   UNL     1       0.429  10.382  20.537  0.00  0.00    +0.000 A 
ATOM      6  N   UNL     1       0.519  11.137  19.465  0.00  0.00    +0.000 NA
ATOM      7  N   UNL     1       1.207  10.424  18.503  0.00  0.00    +0.000 NA
ATOM      8  C   UNL     1       1.511   9.253  19.024  0.00  0.00    +0.000 A 
ATOM      9  C   UNL     1       2.237   8.161  18.402  0.00  0.00    +0.000 A 
ATOM     10  O   UNL     1       2.685   8.227  17.257  0.00  0.00    +0.000 OA
ENDROOT
BRANCH   1  15
ATOM     11  C   UNL     1       5.130   4.614  18.454  0.00  0.00    +0.000 A 
ATOM     12  C   UNL     1       4.471   3.706  17.622  0.00  0.00    +0.000 A 
ATOM     13  C   UNL     1       3.113   3.858  17.342  0.00  0.00    +0.000 A 
ATOM     14  C   UNL     1       2.402   4.920  17.901  0.00  0.00    +0.000 A 
ATOM     15  C   UNL     1       3.055   5.857  18.711  0.00  0.00    +0.000 A 
ATOM     16  C   UNL     1       4.425   5.702  18.979  0.00  0.00    +0.000 A 
BRANCH  11  18
ATOM     17  C   UNL     1       7.368   4.708  17.652  0.00  0.00    +0.000 C 
ATOM     18  O   UNL     1       6.451   4.330  18.671  0.00  0.00    +0.000 OA
ENDBRANCH  11  18
ENDBRANCH   1  15
BRANCH   5  19
ATOM     19  S   UNL     1      -0.300  10.827  22.045  0.00  0.00    +0.000 S 
BRANCH  19  20
ATOM     20  C   UNL     1      -0.826  12.534  21.681  0.00  0.00    +0.000 C 
BRANCH  20  21
ATOM     21  C   UNL     1      -1.645  13.117  22.811  0.00  0.00    +0.000 A 
ATOM     22  C   UNL     1      -1.241  14.295  23.459  0.00  0.00    +0.000 A 
ATOM     23  C   UNL     1      -1.997  14.826  24.510  0.00  0.00    +0.000 A 
ATOM     24  C   UNL     1      -3.164  14.189  24.926  0.00  0.00    +0.000 A 
ATOM     25  C   UNL     1      -3.574  13.017  24.286  0.00  0.00    +0.000 A 
ATOM     26 CL   UNL     1      -5.016  12.228  24.794  0.00  0.00    +0.000 Cl
ATOM     27  C   UNL     1      -2.825  12.484  23.235  0.00  0.00    +0.000 A 
ENDBRANCH  20  21
ENDBRANCH  19  20
ENDBRANCH   5  19
TORSDOF 5
ENDMDL
MODEL 6
REMARK VINA RESULT:      -7.6      4.551      9.326
REMARK  Name = 
REMARK  6 active torsions:
REMARK  status: ('A' for Active; 'I' for Inactive)
REMARK    1  A    between atoms: C_1  and  O_2
REMARK    2  A    between atoms: O_2  and  C_3
REMARK    3  A    between atoms: C_7  and  N_8
REMARK    4  A    between atoms: C_12  and  S_13
REMARK    5  A    between atoms: S_13  and  C_14
REMARK    6  A    between atoms: C_14  and  C_15
REMARK                            x       y       z     vdW  Elec       q    Type
REMARK                         _______ _______ _______ _____ _____    ______ ____
ROOT
ATOM      1  N   UNL     1       0.332  10.402  21.179  0.00  0.00    +0.000 N 
ATOM      2  C   UNL     1       0.817   9.297  21.888  0.00  0.00    +0.000 A 
ATOM      3  C   UNL     1       1.453   8.284  21.281  0.00  0.00    +0.000 A 
ATOM      4  N   UNL     1       1.670   8.341  19.915  0.00  0.00    +0.000 N 
ATOM      5  C   UNL     1       2.289   7.509  19.011  0.00  0.00    +0.000 A 
ATOM      6  N   UNL     1       2.275   8.056  17.816  0.00  0.00    +0.000 NA
ATOM      7  N   UNL     1       1.612   9.262  17.912  0.00  0.00    +0.000 NA
ATOM      8  C   UNL     1       1.246   9.413  19.169  0.00  0.00    +0.000 A 
ATOM      9  C   UNL     1       0.517  10.519  19.760  0.00  0.00    +0.000 A 
ATOM     10  O   UNL     1       0.126  11.484  19.104  0.00  0.00    +0.000 OA
ENDROOT
BRANCH   1  15
ATOM     11  C   UNL     1      -2.301  12.144  23.185  0.00  0.00    +0.000 A 
ATOM     12  C   UNL     1      -1.856  13.465  23.103  0.00  0.00    +0.000 A 
ATOM     13  C   UNL     1      -0.681  13.776  22.418  0.00  0.00    +0.000 A 
ATOM     14  C   UNL     1       0.062  12.761  21.815  0.00  0.00    +0.000 A 
ATOM     15  C   UNL     1      -0.388  11.435  21.861  0.00  0.00    +0.000 A 
ATOM     16  C   UNL     1      -1.578  11.134  22.544  0.00  0.00    +0.000 A 
BRANCH  11  18
ATOM     17  C   UNL     1      -4.003  13.136  24.520  0.00  0.00    +0.000 C 
ATOM     18  O   UNL     1      -3.448  11.976  23.913  0.00  0.00    +0.000 OA
ENDBRANCH  11  18
ENDBRANCH   1  15
BRANCH   5  19
ATOM     19  S   UNL     1       2.959   5.966  19.424  0.00  0.00    +0.000 S 
BRANCH  19  20
ATOM     20  C   UNL     1       3.014   5.167  17.786  0.00  0.00    +0.000 C 
BRANCH  20  21
ATOM     21  C   UNL     1       4.411   5.180  17.207  0.00  0.00    +0.000 A 
ATOM     22  C   UNL     1       4.825   4.188  16.303  0.00  0.00    +0.000 A 
ATOM     23  C   UNL     1       6.121   4.200  15.776  0.00  0.00    +0.000 A 
ATOM     24  C   UNL     1       7.018   5.200  16.144  0.00  0.00    +0.000 A 
ATOM     25  C   UNL     1       6.615   6.190  17.041  0.00  0.00    +0.000 A 
ATOM     26 CL   UNL     1       7.719   7.430  17.496  0.00  0.00    +0.000 Cl
ATOM     27  C   UNL     1       5.322   6.186  17.568  0.00  0.00    +0.000 A 
ENDBRANCH  20  21
ENDBRANCH  19  20
ENDBRANCH   5  19
TORSDOF 5
ENDMDL
MODEL 7
REMARK VINA RESULT:      -7.5      4.303      9.430
REMARK  Name = 
REMARK  6 active torsions:
REMARK  status: ('A' for Active; 'I' for Inactive)
REMARK    1  A    between atoms: C_1  and  O_2
REMARK    2  A    between atoms: O_2  and  C_3
REMARK    3  A    between atoms: C_7  and  N_8
REMARK    4  A    between atoms: C_12  and  S_13
REMARK    5  A    between atoms: S_13  and  C_14
REMARK    6  A    between atoms: C_14  and  C_15
REMARK                            x       y       z     vdW  Elec       q    Type
REMARK                         _______ _______ _______ _____ _____    ______ ____
ROOT
ATOM      1  N   UNL     1      -0.907  11.341  22.191  0.00  0.00    +0.000 N 
ATOM      2  C   UNL     1      -0.275  10.240  22.779  0.00  0.00    +0.000 A 
ATOM      3  C   UNL     1       0.441   9.362  22.061  0.00  0.00    +0.000 A 
ATOM      4  N   UNL     1       0.590   9.561  20.699  0.00  0.00    +0.000 N 
ATOM      5  C   UNL     1       1.256   8.886  19.702  0.00  0.00    +0.000 A 
ATOM      6  N   UNL     1       1.130   9.531  18.563  0.00  0.00    +0.000 NA
ATOM      7  N   UNL     1       0.344  10.642  18.792  0.00  0.00    +0.000 NA
ATOM      8  C   UNL     1       0.020  10.640  20.069  0.00  0.00    +0.000 A 
ATOM      9  C   UNL     1      -0.799  11.601  20.784  0.00  0.00    +0.000 A 
ATOM     10  O   UNL     1      -1.320  12.571  20.233  0.00  0.00    +0.000 OA
ENDROOT
BRANCH   1  15
ATOM     11  C   UNL     1      -3.787  12.708  24.149  0.00  0.00    +0.000 A 
ATOM     12  C   UNL     1      -3.308  13.983  24.456  0.00  0.00    +0.000 A 
ATOM     13  C   UNL     1      -2.034  14.379  24.047  0.00  0.00    +0.000 A 
ATOM     14  C   UNL     1      -1.226  13.495  23.333  0.00  0.00    +0.000 A 
ATOM     15  C   UNL     1      -1.704  12.223  22.990  0.00  0.00    +0.000 A 
ATOM     16  C   UNL     1      -2.992  11.838  23.396  0.00  0.00    +0.000 A 
BRANCH  11  18
ATOM     17  C   UNL     1      -6.126  13.126  24.036  0.00  0.00    +0.000 C 
ATOM     18  O   UNL     1      -5.037  12.438  24.637  0.00  0.00    +0.000 OA
ENDBRANCH  11  18
ENDBRANCH   1  15
BRANCH   5  19
ATOM     19  S   UNL     1       2.107   7.398  19.949  0.00  0.00    +0.000 S 
BRANCH  19  20
ATOM     20  C   UNL     1       2.703   7.060  18.259  0.00  0.00    +0.000 C 
BRANCH  20  21
ATOM     21  C   UNL     1       2.837   5.576  18.003  0.00  0.00    +0.000 A 
ATOM     22  C   UNL     1       3.969   5.056  17.355  0.00  0.00    +0.000 A 
ATOM     23  C   UNL     1       4.085   3.683  17.112  0.00  0.00    +0.000 A 
ATOM     24  C   UNL     1       3.074   2.813  17.513  0.00  0.00    +0.000 A 
ATOM     25  C   UNL     1       1.945   3.319  18.159  0.00  0.00    +0.000 A 
ATOM     26 CL   UNL     1       0.695   2.248  18.659  0.00  0.00    +0.000 Cl
ATOM     27  C   UNL     1       1.825   4.689  18.406  0.00  0.00    +0.000 A 
ENDBRANCH  20  21
ENDBRANCH  19  20
ENDBRANCH   5  19
TORSDOF 5
ENDMDL
MODEL 8
REMARK VINA RESULT:      -7.5      0.790      1.446
REMARK  Name = 
REMARK  6 active torsions:
REMARK  status: ('A' for Active; 'I' for Inactive)
REMARK    1  A    between atoms: C_1  and  O_2
REMARK    2  A    between atoms: O_2  and  C_3
REMARK    3  A    between atoms: C_7  and  N_8
REMARK    4  A    between atoms: C_12  and  S_13
REMARK    5  A    between atoms: S_13  and  C_14
REMARK    6  A    between atoms: C_14  and  C_15
REMARK                            x       y       z     vdW  Elec       q    Type
REMARK                         _______ _______ _______ _____ _____    ______ ____
ROOT
ATOM      1  N   UNL     1       2.532   7.092  18.664  0.00  0.00    +0.000 N 
ATOM      2  C   UNL     1       2.439   8.197  17.811  0.00  0.00    +0.000 A 
ATOM      3  C   UNL     1       1.803   9.322  18.169  0.00  0.00    +0.000 A 
ATOM      4  N   UNL     1       1.243   9.412  19.432  0.00  0.00    +0.000 N 
ATOM      5  C   UNL     1       0.561  10.399  20.105  0.00  0.00    +0.000 A 
ATOM      6  N   UNL     1       0.287   9.999  21.328  0.00  0.00    +0.000 NA
ATOM      7  N   UNL     1       0.770   8.714  21.470  0.00  0.00    +0.000 NA
ATOM      8  C   UNL     1       1.327   8.373  20.326  0.00  0.00    +0.000 A 
ATOM      9  C   UNL     1       1.967   7.117  19.984  0.00  0.00    +0.000 A 
ATOM     10  O   UNL     1       2.047   6.175  20.772  0.00  0.00    +0.000 OA
ENDROOT
BRANCH   1  15
ATOM     11  C   UNL     1       5.212   4.661  17.715  0.00  0.00    +0.000 A 
ATOM     12  C   UNL     1       4.440   3.593  17.253  0.00  0.00    +0.000 A 
ATOM     13  C   UNL     1       3.047   3.661  17.282  0.00  0.00    +0.000 A 
ATOM     14  C   UNL     1       2.416   4.799  17.783  0.00  0.00    +0.000 A 
ATOM     15  C   UNL     1       3.176   5.892  18.220  0.00  0.00    +0.000 A 
ATOM     16  C   UNL     1       4.579   5.818  18.177  0.00  0.00    +0.000 A 
BRANCH  11  18
ATOM     17  C   UNL     1       7.393   5.404  18.310  0.00  0.00    +0.000 C 
ATOM     18  O   UNL     1       6.563   4.450  17.659  0.00  0.00    +0.000 OA
ENDBRANCH  11  18
ENDBRANCH   1  15
BRANCH   5  19
ATOM     19  S   UNL     1       0.126  11.922  19.403  0.00  0.00    +0.000 S 
BRANCH  19  20
ATOM     20  C   UNL     1      -1.245  11.418  18.313  0.00  0.00    +0.000 C 
BRANCH  20  21
ATOM     21  C   UNL     1      -2.587  11.811  18.888  0.00  0.00    +0.000 A 
ATOM     22  C   UNL     1      -2.672  12.548  20.080  0.00  0.00    +0.000 A 
ATOM     23  C   UNL     1      -3.916  12.903  20.613  0.00  0.00    +0.000 A 
ATOM     24  C   UNL     1      -5.090  12.527  19.963  0.00  0.00    +0.000 A 
ATOM     25  C   UNL     1      -5.015  11.795  18.777  0.00  0.00    +0.000 A 
ATOM     26 CL   UNL     1      -6.462  11.331  17.968  0.00  0.00    +0.000 Cl
ATOM     27  C   UNL     1      -3.776  11.441  18.239  0.00  0.00    +0.000 A 
ENDBRANCH  20  21
ENDBRANCH  19  20
ENDBRANCH   5  19
TORSDOF 5
ENDMDL
MODEL 9
REMARK VINA RESULT:      -7.5      2.355      2.789
REMARK  Name = 
REMARK  6 active torsions:
REMARK  status: ('A' for Active; 'I' for Inactive)
REMARK    1  A    between atoms: C_1  and  O_2
REMARK    2  A    between atoms: O_2  and  C_3
REMARK    3  A    between atoms: C_7  and  N_8
REMARK    4  A    between atoms: C_12  and  S_13
REMARK    5  A    between atoms: S_13  and  C_14
REMARK    6  A    between atoms: C_14  and  C_15
REMARK                            x       y       z     vdW  Elec       q    Type
REMARK                         _______ _______ _______ _____ _____    ______ ____
ROOT
ATOM      1  N   UNL     1       2.358   7.003  18.735  0.00  0.00    +0.000 N 
ATOM      2  C   UNL     1       2.196   8.147  17.946  0.00  0.00    +0.000 A 
ATOM      3  C   UNL     1       1.650   9.274  18.428  0.00  0.00    +0.000 A 
ATOM      4  N   UNL     1       1.260   9.324  19.756  0.00  0.00    +0.000 N 
ATOM      5  C   UNL     1       0.704  10.299  20.550  0.00  0.00    +0.000 A 
ATOM      6  N   UNL     1       0.576   9.855  21.781  0.00  0.00    +0.000 NA
ATOM      7  N   UNL     1       1.028   8.551  21.808  0.00  0.00    +0.000 NA
ATOM      8  C   UNL     1       1.421   8.245  20.588  0.00  0.00    +0.000 A 
ATOM      9  C   UNL     1       1.968   6.987  20.116  0.00  0.00    +0.000 A 
ATOM     10  O   UNL     1       2.116   6.009  20.849  0.00  0.00    +0.000 OA
ENDROOT
BRANCH   1  15
ATOM     11  C   UNL     1       4.794   4.571  17.270  0.00  0.00    +0.000 A 
ATOM     12  C   UNL     1       3.940   3.513  16.948  0.00  0.00    +0.000 A 
ATOM     13  C   UNL     1       2.577   3.588  17.239  0.00  0.00    +0.000 A 
ATOM     14  C   UNL     1       2.061   4.724  17.863  0.00  0.00    +0.000 A 
ATOM     15  C   UNL     1       2.899   5.806  18.163  0.00  0.00    +0.000 A 
ATOM     16  C   UNL     1       4.267   5.725  17.857  0.00  0.00    +0.000 A 
BRANCH  11  18
ATOM     17  C   UNL     1       6.883   5.489  16.597  0.00  0.00    +0.000 C 
ATOM     18  O   UNL     1       6.109   4.353  16.960  0.00  0.00    +0.000 OA
ENDBRANCH  11  18
ENDBRANCH   1  15
BRANCH   5  19
ATOM     19  S   UNL     1       0.236  11.864  19.972  0.00  0.00    +0.000 S 
BRANCH  19  20
ATOM     20  C   UNL     1      -0.223  12.683  21.535  0.00  0.00    +0.000 C 
BRANCH  20  21
ATOM     21  C   UNL     1      -1.723  12.716  21.726  0.00  0.00    +0.000 A 
ATOM     22  C   UNL     1      -2.584  12.932  20.638  0.00  0.00    +0.000 A 
ATOM     23  C   UNL     1      -3.970  12.970  20.821  0.00  0.00    +0.000 A 
ATOM     24  C   UNL     1      -4.514  12.793  22.091  0.00  0.00    +0.000 A 
ATOM     25  C   UNL     1      -3.667  12.576  23.179  0.00  0.00    +0.000 A 
ATOM     26 CL   UNL     1      -4.334  12.353  24.749  0.00  0.00    +0.000 Cl
ATOM     27  C   UNL     1      -2.282  12.534  23.002  0.00  0.00    +0.000 A 
ENDBRANCH  20  21
ENDBRANCH  19  20
ENDBRANCH   5  19
TORSDOF 5
ENDMDL
