MODEL 1
REMARK VINA RESULT:      -7.7      0.000      0.000
REMARK  Name = 
REMARK  6 active torsions:
REMARK  status: ('A' for Active; 'I' for Inactive)
REMARK    1  A    between atoms: C_1  and  C_2
REMARK    2  A    between atoms: C_6  and  C_7
REMARK    3  A    between atoms: C_10  and  C_11
REMARK    4  A    between atoms: C_11  and  N_12
REMARK    5  A    between atoms: C_16  and  C_17
REMARK    6  A    between atoms: C_17  and  N_18
REMARK                            x       y       z     vdW  Elec       q    Type
REMARK                         _______ _______ _______ _____ _____    ______ ____
ROOT
ATOM      1  C   UNL     1       7.843   6.409  18.218  0.00  0.00    +0.000 C 
ENDROOT
BRANCH   1   2
ATOM      2  N   UNL     1       6.555   5.910  17.670  0.00  0.00    +0.000 NA
ATOM      3  C   UNL     1       6.684   5.522  16.262  0.00  0.00    +0.000 C 
ATOM      4  C   UNL     1       5.382   4.976  15.683  0.00  0.00    +0.000 C 
ATOM      5  C   UNL     1       4.850   3.825  16.525  0.00  0.00    +0.000 C 
ATOM      6  C   UNL     1       4.655   4.278  17.976  0.00  0.00    +0.000 C 
ATOM      7  C   UNL     1       5.958   4.886  18.532  0.00  0.00    +0.000 C 
BRANCH   6   8
ATOM      8  C   UNL     1       4.228   3.112  18.886  0.00  0.00    +0.000 C 
BRANCH   8   9
ATOM      9  N   UNL     1       2.800   2.999  19.082  0.00  0.00    +0.000 N 
ATOM     10  C   UNL     1       2.043   3.595  20.043  0.00  0.00    +0.000 A 
ATOM     11  N   UNL     1       0.790   3.229  19.903  0.00  0.00    +0.000 NA
ATOM     12  C   UNL     1       0.834   2.402  18.816  0.00  0.00    +0.000 A 
ATOM     13  N   UNL     1       2.042   2.244  18.269  0.00  0.00    +0.000 NA
ENDBRANCH   8   9
ENDBRANCH   6   8
ENDBRANCH   1   2
BRANCH   1  17
ATOM     14  C   UNL     1       8.862   9.777  18.771  0.00  0.00    +0.000 A 
ATOM     15  N   UNL     1       8.115  10.000  17.707  0.00  0.00    +0.000 NA
ATOM     16  N   UNL     1       7.609   8.784  17.305  0.00  0.00    +0.000 NA
ATOM     17  C   UNL     1       8.083   7.888  18.147  0.00  0.00    +0.000 A 
ATOM     18  O   UNL     1       8.891   8.441  19.102  0.00  0.00    +0.000 OA
BRANCH  14  24
ATOM     19  C   UNL     1      11.305  11.633  17.800  0.00  0.00    +0.000 C 
ATOM     20  C   UNL     1      10.628  11.602  19.123  0.00  0.00    +0.000 A 
ATOM     21  C   UNL     1      10.947  12.414  20.251  0.00  0.00    +0.000 A 
ATOM     22  C   UNL     1      10.070  12.062  21.244  0.00  0.00    +0.000 A 
ATOM     23  O   UNL     1       9.236  11.087  20.812  0.00  0.00    +0.000 OA
ATOM     24  C   UNL     1       9.568  10.785  19.514  0.00  0.00    +0.000 A 
ENDBRANCH  14  24
ENDBRANCH   1  17
TORSDOF 5
ENDMDL
MODEL 2
REMARK VINA RESULT:      -7.4      5.224      7.599
REMARK  Name = 
REMARK  6 active torsions:
REMARK  status: ('A' for Active; 'I' for Inactive)
REMARK    1  A    between atoms: C_1  and  C_2
REMARK    2  A    between atoms: C_6  and  C_7
REMARK    3  A    between atoms: C_10  and  C_11
REMARK    4  A    between atoms: C_11  and  N_12
REMARK    5  A    between atoms: C_16  and  C_17
REMARK    6  A    between atoms: C_17  and  N_18
REMARK                            x       y       z     vdW  Elec       q    Type
REMARK                         _______ _______ _______ _____ _____    ______ ____
ROOT
ATOM      1  C   UNL     1       3.291   6.356  18.712  0.00  0.00    +0.000 C 
ENDROOT
BRANCH   1   2
ATOM      2  N   UNL     1       4.646   6.130  18.148  0.00  0.00    +0.000 NA
ATOM      3  C   UNL     1       5.576   5.631  19.167  0.00  0.00    +0.000 C 
ATOM      4  C   UNL     1       6.970   5.361  18.607  0.00  0.00    +0.000 C 
ATOM      5  C   UNL     1       6.905   4.420  17.412  0.00  0.00    +0.000 C 
ATOM      6  C   UNL     1       5.985   5.000  16.332  0.00  0.00    +0.000 C 
ATOM      7  C   UNL     1       4.599   5.328  16.922  0.00  0.00    +0.000 C 
BRANCH   6   8
ATOM      8  C   UNL     1       5.801   4.024  15.155  0.00  0.00    +0.000 C 
BRANCH   8   9
ATOM      9  N   UNL     1       6.569   4.357  13.977  0.00  0.00    +0.000 N 
ATOM     10  C   UNL     1       6.499   3.780  12.747  0.00  0.00    +0.000 A 
ATOM     11  N   UNL     1       7.373   4.345  11.947  0.00  0.00    +0.000 NA
ATOM     12  C   UNL     1       7.955   5.286  12.749  0.00  0.00    +0.000 A 
ATOM     13  N   UNL     1       7.484   5.342  13.997  0.00  0.00    +0.000 NA
ENDBRANCH   8   9
ENDBRANCH   6   8
ENDBRANCH   1   2
BRANCH   1  17
ATOM     14  C   UNL     1       1.321   9.324  18.715  0.00  0.00    +0.000 A 
ATOM     15  N   UNL     1       1.910   9.514  17.550  0.00  0.00    +0.000 NA
ATOM     16  N   UNL     1       2.756   8.447  17.345  0.00  0.00    +0.000 NA
ATOM     17  C   UNL     1       2.637   7.669  18.402  0.00  0.00    +0.000 A 
ATOM     18  O   UNL     1       1.749   8.162  19.318  0.00  0.00    +0.000 OA
BRANCH  14  24
ATOM     19  C   UNL     1      -1.607  10.090  17.619  0.00  0.00    +0.000 C 
ATOM     20  C   UNL     1      -0.923  10.556  18.856  0.00  0.00    +0.000 A 
ATOM     21  C   UNL     1      -1.453  11.463  19.819  0.00  0.00    +0.000 A 
ATOM     22  C   UNL     1      -0.496  11.600  20.791  0.00  0.00    +0.000 A 
ATOM     23  O   UNL     1       0.589  10.847  20.494  0.00  0.00    +0.000 OA
ATOM     24  C   UNL     1       0.348  10.203  19.304  0.00  0.00    +0.000 A 
ENDBRANCH  14  24
ENDBRANCH   1  17
TORSDOF 5
ENDMDL
MODEL 3
REMARK VINA RESULT:      -7.4      0.759      1.256
REMARK  Name = 
REMARK  6 active torsions:
REMARK  status: ('A' for Active; 'I' for Inactive)
REMARK    1  A    between atoms: C_1  and  C_2
REMARK    2  A    between atoms: C_6  and  C_7
REMARK    3  A    between atoms: C_10  and  C_11
REMARK    4  A    between atoms: C_11  and  N_12
REMARK    5  A    between atoms: C_16  and  C_17
REMARK    6  A    between atoms: C_17  and  N_18
REMARK                            x       y       z     vdW  Elec       q    Type
REMARK                         _______ _______ _______ _____ _____    ______ ____
ROOT
ATOM      1  C   UNL     1       7.798   6.561  18.403  0.00  0.00    +0.000 C 
ENDROOT
BRANCH   1   2
ATOM      2  N   UNL     1       6.526   6.058  17.823  0.00  0.00    +0.000 NA
ATOM      3  C   UNL     1       6.681   5.711  16.406  0.00  0.00    +0.000 C 
ATOM      4  C   UNL     1       5.396   5.162  15.794  0.00  0.00    +0.000 C 
ATOM      5  C   UNL     1       4.872   3.979  16.595  0.00  0.00    +0.000 C 
ATOM      6  C   UNL     1       4.649   4.387  18.056  0.00  0.00    +0.000 C 
ATOM      7  C   UNL     1       5.934   4.999  18.647  0.00  0.00    +0.000 C 
BRANCH   6   8
ATOM      8  C   UNL     1       4.229   3.188  18.926  0.00  0.00    +0.000 C 
BRANCH   8   9
ATOM      9  N   UNL     1       2.800   3.049  19.100  0.00  0.00    +0.000 N 
ATOM     10  C   UNL     1       2.015   3.643  20.038  0.00  0.00    +0.000 A 
ATOM     11  N   UNL     1       0.772   3.249  19.883  0.00  0.00    +0.000 NA
ATOM     12  C   UNL     1       0.852   2.406  18.810  0.00  0.00    +0.000 A 
ATOM     13  N   UNL     1       2.073   2.265  18.286  0.00  0.00    +0.000 NA
ENDBRANCH   8   9
ENDBRANCH   6   8
ENDBRANCH   1   2
BRANCH   1  17
ATOM     14  C   UNL     1       9.024   9.895  18.674  0.00  0.00    +0.000 A 
ATOM     15  N   UNL     1       8.137  10.118  17.724  0.00  0.00    +0.000 NA
ATOM     16  N   UNL     1       7.528   8.915  17.447  0.00  0.00    +0.000 NA
ATOM     17  C   UNL     1       8.085   8.024  18.242  0.00  0.00    +0.000 A 
ATOM     18  O   UNL     1       9.048   8.569  19.047  0.00  0.00    +0.000 OA
BRANCH  14  24
ATOM     19  C   UNL     1       8.770  11.272  21.572  0.00  0.00    +0.000 C 
ATOM     20  C   UNL     1       9.788  11.508  20.515  0.00  0.00    +0.000 A 
ATOM     21  C   UNL     1      10.879  12.423  20.586  0.00  0.00    +0.000 A 
ATOM     22  C   UNL     1      11.562  12.306  19.404  0.00  0.00    +0.000 A 
ATOM     23  O   UNL     1      10.968  11.389  18.604  0.00  0.00    +0.000 OA
ATOM     24  C   UNL     1       9.872  10.892  19.267  0.00  0.00    +0.000 A 
ENDBRANCH  14  24
ENDBRANCH   1  17
TORSDOF 5
ENDMDL
MODEL 4
REMARK VINA RESULT:      -7.3      3.418      8.673
REMARK  Name = 
REMARK  6 active torsions:
REMARK  status: ('A' for Active; 'I' for Inactive)
REMARK    1  A    between atoms: C_1  and  C_2
REMARK    2  A    between atoms: C_6  and  C_7
REMARK    3  A    between atoms: C_10  and  C_11
REMARK    4  A    between atoms: C_11  and  N_12
REMARK    5  A    between atoms: C_16  and  C_17
REMARK    6  A    between atoms: C_17  and  N_18
REMARK                            x       y       z     vdW  Elec       q    Type
REMARK                         _______ _______ _______ _____ _____    ______ ____
ROOT
ATOM      1  C   UNL     1       8.582  10.081  18.117  0.00  0.00    +0.000 C 
ENDROOT
BRANCH   1   2
ATOM      2  N   UNL     1       9.479  10.572  19.195  0.00  0.00    +0.000 NA
ATOM      3  C   UNL     1      10.736  11.097  18.651  0.00  0.00    +0.000 C 
ATOM      4  C   UNL     1      11.664  11.637  19.735  0.00  0.00    +0.000 C 
ATOM      5  C   UNL     1      10.956  12.680  20.590  0.00  0.00    +0.000 C 
ATOM      6  C   UNL     1       9.685  12.083  21.206  0.00  0.00    +0.000 C 
ATOM      7  C   UNL     1       8.784  11.484  20.108  0.00  0.00    +0.000 C 
BRANCH   6   8
ATOM      8  C   UNL     1       8.878  13.139  21.984  0.00  0.00    +0.000 C 
BRANCH   8   9
ATOM      9  N   UNL     1       7.802  12.598  22.784  0.00  0.00    +0.000 N 
ATOM     10  C   UNL     1       6.516  13.034  22.850  0.00  0.00    +0.000 A 
ATOM     11  N   UNL     1       5.847  12.297  23.707  0.00  0.00    +0.000 NA
ATOM     12  C   UNL     1       6.787  11.403  24.137  0.00  0.00    +0.000 A 
ATOM     13  N   UNL     1       7.996  11.538  23.587  0.00  0.00    +0.000 NA
ENDBRANCH   8   9
ENDBRANCH   6   8
ENDBRANCH   1   2
BRANCH   1  17
ATOM     14  C   UNL     1       7.456   6.789  17.353  0.00  0.00    +0.000 A 
ATOM     15  N   UNL     1       7.986   6.517  18.530  0.00  0.00    +0.000 NA
ATOM     16  N   UNL     1       8.508   7.693  19.021  0.00  0.00    +0.000 NA
ATOM     17  C   UNL     1       8.271   8.614  18.110  0.00  0.00    +0.000 A 
ATOM     18  O   UNL     1       7.612   8.116  17.019  0.00  0.00    +0.000 OA
BRANCH  14  24
ATOM     19  C   UNL     1       4.312   6.128  17.167  0.00  0.00    +0.000 C 
ATOM     20  C   UNL     1       5.437   5.528  16.401  0.00  0.00    +0.000 A 
ATOM     21  C   UNL     1       5.331   4.510  15.409  0.00  0.00    +0.000 A 
ATOM     22  C   UNL     1       6.604   4.270  14.961  0.00  0.00    +0.000 A 
ATOM     23  O   UNL     1       7.490   5.063  15.610  0.00  0.00    +0.000 OA
ATOM     24  C   UNL     1       6.792   5.838  16.504  0.00  0.00    +0.000 A 
ENDBRANCH  14  24
ENDBRANCH   1  17
TORSDOF 5
ENDMDL
MODEL 5
REMARK VINA RESULT:      -7.3      5.073      7.473
REMARK  Name = 
REMARK  6 active torsions:
REMARK  status: ('A' for Active; 'I' for Inactive)
REMARK    1  A    between atoms: C_1  and  C_2
REMARK    2  A    between atoms: C_6  and  C_7
REMARK    3  A    between atoms: C_10  and  C_11
REMARK    4  A    between atoms: C_11  and  N_12
REMARK    5  A    between atoms: C_16  and  C_17
REMARK    6  A    between atoms: C_17  and  N_18
REMARK                            x       y       z     vdW  Elec       q    Type
REMARK                         _______ _______ _______ _____ _____    ______ ____
ROOT
ATOM      1  C   UNL     1       3.221   6.224  18.606  0.00  0.00    +0.000 C 
ENDROOT
BRANCH   1   2
ATOM      2  N   UNL     1       4.608   6.050  18.104  0.00  0.00    +0.000 NA
ATOM      3  C   UNL     1       5.523   5.648  19.178  0.00  0.00    +0.000 C 
ATOM      4  C   UNL     1       6.950   5.432  18.683  0.00  0.00    +0.000 C 
ATOM      5  C   UNL     1       6.983   4.438  17.531  0.00  0.00    +0.000 C 
ATOM      6  C   UNL     1       6.077   4.918  16.392  0.00  0.00    +0.000 C 
ATOM      7  C   UNL     1       4.653   5.194  16.915  0.00  0.00    +0.000 C 
BRANCH   6   8
ATOM      8  C   UNL     1       5.992   3.883  15.255  0.00  0.00    +0.000 C 
BRANCH   8   9
ATOM      9  N   UNL     1       6.646   4.287  14.030  0.00  0.00    +0.000 N 
ATOM     10  C   UNL     1       6.476   3.765  12.785  0.00  0.00    +0.000 A 
ATOM     11  N   UNL     1       7.264   4.386  11.938  0.00  0.00    +0.000 NA
ATOM     12  C   UNL     1       7.900   5.301  12.729  0.00  0.00    +0.000 A 
ATOM     13  N   UNL     1       7.541   5.289  14.016  0.00  0.00    +0.000 NA
ENDBRANCH   8   9
ENDBRANCH   6   8
ENDBRANCH   1   2
BRANCH   1  17
ATOM     14  C   UNL     1       1.429   9.286  18.927  0.00  0.00    +0.000 A 
ATOM     15  N   UNL     1       1.824   9.452  17.679  0.00  0.00    +0.000 NA
ATOM     16  N   UNL     1       2.569   8.345  17.339  0.00  0.00    +0.000 NA
ATOM     17  C   UNL     1       2.591   7.570  18.404  0.00  0.00    +0.000 A 
ATOM     18  O   UNL     1       1.894   8.102  19.455  0.00  0.00    +0.000 OA
BRANCH  14  24
ATOM     19  C   UNL     1      -0.267   8.750  21.609  0.00  0.00    +0.000 C 
ATOM     20  C   UNL     1      -0.132  10.008  20.828  0.00  0.00    +0.000 A 
ATOM     21  C   UNL     1      -0.753  11.256  21.128  0.00  0.00    +0.000 A 
ATOM     22  C   UNL     1      -0.347  12.135  20.159  0.00  0.00    +0.000 A 
ATOM     23  O   UNL     1       0.475  11.519  19.277  0.00  0.00    +0.000 OA
ATOM     24  C   UNL     1       0.614  10.209  19.668  0.00  0.00    +0.000 A 
ENDBRANCH  14  24
ENDBRANCH   1  17
TORSDOF 5
ENDMDL
MODEL 6
REMARK VINA RESULT:      -7.3      5.020      7.072
REMARK  Name = 
REMARK  6 active torsions:
REMARK  status: ('A' for Active; 'I' for Inactive)
REMARK    1  A    between atoms: C_1  and  C_2
REMARK    2  A    between atoms: C_6  and  C_7
REMARK    3  A    between atoms: C_10  and  C_11
REMARK    4  A    between atoms: C_11  and  N_12
REMARK    5  A    between atoms: C_16  and  C_17
REMARK    6  A    between atoms: C_17  and  N_18
REMARK                            x       y       z     vdW  Elec       q    Type
REMARK                         _______ _______ _______ _____ _____    ______ ____
ROOT
ATOM      1  C   UNL     1       5.511   4.334  18.639  0.00  0.00    +0.000 C 
ENDROOT
BRANCH   1   2
ATOM      2  N   UNL     1       4.061   4.403  18.957  0.00  0.00    +0.000 NA
ATOM      3  C   UNL     1       3.662   3.336  19.881  0.00  0.00    +0.000 C 
ATOM      4  C   UNL     1       2.182   3.403  20.248  0.00  0.00    +0.000 C 
ATOM      5  C   UNL     1       1.818   4.774  20.800  0.00  0.00    +0.000 C 
ATOM      6  C   UNL     1       2.178   5.865  19.785  0.00  0.00    +0.000 C 
ATOM      7  C   UNL     1       3.659   5.750  19.372  0.00  0.00    +0.000 C 
BRANCH   6   8
ATOM      8  C   UNL     1       1.932   7.275  20.351  0.00  0.00    +0.000 C 
BRANCH   8   9
ATOM      9  N   UNL     1       1.766   8.302  19.346  0.00  0.00    +0.000 N 
ATOM     10  C   UNL     1       2.192   8.277  18.055  0.00  0.00    +0.000 A 
ATOM     11  N   UNL     1       1.871   9.405  17.465  0.00  0.00    +0.000 NA
ATOM     12  C   UNL     1       1.230  10.094  18.456  0.00  0.00    +0.000 A 
ATOM     13  N   UNL     1       1.127   9.451  19.622  0.00  0.00    +0.000 NA
ENDBRANCH   8   9
ENDBRANCH   6   8
ENDBRANCH   1   2
BRANCH   1  17
ATOM     14  C   UNL     1       6.364   4.840  15.218  0.00  0.00    +0.000 A 
ATOM     15  N   UNL     1       6.689   6.042  15.652  0.00  0.00    +0.000 NA
ATOM     16  N   UNL     1       6.421   6.071  17.002  0.00  0.00    +0.000 NA
ATOM     17  C   UNL     1       5.941   4.884  17.312  0.00  0.00    +0.000 A 
ATOM     18  O   UNL     1       5.869   4.049  16.231  0.00  0.00    +0.000 OA
BRANCH  14  24
ATOM     19  C   UNL     1       8.486   5.788  12.992  0.00  0.00    +0.000 C 
ATOM     20  C   UNL     1       7.404   4.775  12.875  0.00  0.00    +0.000 A 
ATOM     21  C   UNL     1       7.090   4.010  11.714  0.00  0.00    +0.000 A 
ATOM     22  C   UNL     1       6.038   3.200  12.056  0.00  0.00    +0.000 A 
ATOM     23  O   UNL     1       5.676   3.414  13.343  0.00  0.00    +0.000 OA
ATOM     24  C   UNL     1       6.500   4.384  13.861  0.00  0.00    +0.000 A 
ENDBRANCH  14  24
ENDBRANCH   1  17
TORSDOF 5
ENDMDL
MODEL 7
REMARK VINA RESULT:      -7.3      4.695      6.784
REMARK  Name = 
REMARK  6 active torsions:
REMARK  status: ('A' for Active; 'I' for Inactive)
REMARK    1  A    between atoms: C_1  and  C_2
REMARK    2  A    between atoms: C_6  and  C_7
REMARK    3  A    between atoms: C_10  and  C_11
REMARK    4  A    between atoms: C_11  and  N_12
REMARK    5  A    between atoms: C_16  and  C_17
REMARK    6  A    between atoms: C_17  and  N_18
REMARK                            x       y       z     vdW  Elec       q    Type
REMARK                         _______ _______ _______ _____ _____    ______ ____
ROOT
ATOM      1  C   UNL     1       5.581   4.511  19.137  0.00  0.00    +0.000 C 
ENDROOT
BRANCH   1   2
ATOM      2  N   UNL     1       4.098   4.604  19.159  0.00  0.00    +0.000 NA
ATOM      3  C   UNL     1       3.500   3.486  19.896  0.00  0.00    +0.000 C 
ATOM      4  C   UNL     1       1.978   3.574  19.960  0.00  0.00    +0.000 C 
ATOM      5  C   UNL     1       1.533   4.912  20.533  0.00  0.00    +0.000 C 
ATOM      6  C   UNL     1       2.111   6.062  19.701  0.00  0.00    +0.000 C 
ATOM      7  C   UNL     1       3.643   5.930  19.589  0.00  0.00    +0.000 C 
BRANCH   6   8
ATOM      8  C   UNL     1       1.779   7.435  20.315  0.00  0.00    +0.000 C 
BRANCH   8   9
ATOM      9  N   UNL     1       1.675   8.510  19.354  0.00  0.00    +0.000 N 
ATOM     10  C   UNL     1       2.070   8.502  18.052  0.00  0.00    +0.000 A 
ATOM     11  N   UNL     1       1.828   9.675  17.514  0.00  0.00    +0.000 NA
ATOM     12  C   UNL     1       1.267  10.373  18.546  0.00  0.00    +0.000 A 
ATOM     13  N   UNL     1       1.137   9.695  19.689  0.00  0.00    +0.000 NA
ENDBRANCH   8   9
ENDBRANCH   6   8
ENDBRANCH   1   2
BRANCH   1  17
ATOM     14  C   UNL     1       6.942   5.340  15.951  0.00  0.00    +0.000 A 
ATOM     15  N   UNL     1       7.468   6.345  16.626  0.00  0.00    +0.000 NA
ATOM     16  N   UNL     1       7.047   6.221  17.931  0.00  0.00    +0.000 NA
ATOM     17  C   UNL     1       6.283   5.148  17.975  0.00  0.00    +0.000 A 
ATOM     18  O   UNL     1       6.164   4.539  16.756  0.00  0.00    +0.000 OA
BRANCH  14  24
ATOM     19  C   UNL     1       5.226   3.446  13.995  0.00  0.00    +0.000 C 
ATOM     20  C   UNL     1       6.419   4.275  13.678  0.00  0.00    +0.000 A 
ATOM     21  C   UNL     1       7.051   4.388  12.406  0.00  0.00    +0.000 A 
ATOM     22  C   UNL     1       8.097   5.259  12.567  0.00  0.00    +0.000 A 
ATOM     23  O   UNL     1       8.160   5.688  13.850  0.00  0.00    +0.000 OA
ATOM     24  C   UNL     1       7.141   5.089  14.550  0.00  0.00    +0.000 A 
ENDBRANCH  14  24
ENDBRANCH   1  17
TORSDOF 5
ENDMDL
MODEL 8
REMARK VINA RESULT:      -7.2      4.951      7.228
REMARK  Name = 
REMARK  6 active torsions:
REMARK  status: ('A' for Active; 'I' for Inactive)
REMARK    1  A    between atoms: C_1  and  C_2
REMARK    2  A    between atoms: C_6  and  C_7
REMARK    3  A    between atoms: C_10  and  C_11
REMARK    4  A    between atoms: C_11  and  N_12
REMARK    5  A    between atoms: C_16  and  C_17
REMARK    6  A    between atoms: C_17  and  N_18
REMARK                            x       y       z     vdW  Elec       q    Type
REMARK                         _______ _______ _______ _____ _____    ______ ____
ROOT
ATOM      1  C   UNL     1       7.121   4.688  17.037  0.00  0.00    +0.000 C 
ENDROOT
BRANCH   1   2
ATOM      2  N   UNL     1       6.063   5.434  17.765  0.00  0.00    +0.000 NA
ATOM      3  C   UNL     1       5.160   6.128  16.839  0.00  0.00    +0.000 C 
ATOM      4  C   UNL     1       4.044   6.878  17.560  0.00  0.00    +0.000 C 
ATOM      5  C   UNL     1       3.274   5.948  18.488  0.00  0.00    +0.000 C 
ATOM      6  C   UNL     1       4.228   5.293  19.492  0.00  0.00    +0.000 C 
ATOM      7  C   UNL     1       5.387   4.592  18.756  0.00  0.00    +0.000 C 
BRANCH   6   8
ATOM      8  C   UNL     1       3.506   4.257  20.374  0.00  0.00    +0.000 C 
BRANCH   8   9
ATOM      9  N   UNL     1       2.495   3.487  19.684  0.00  0.00    +0.000 N 
ATOM     10  C   UNL     1       1.145   3.628  19.764  0.00  0.00    +0.000 A 
ATOM     11  N   UNL     1       0.564   2.727  19.005  0.00  0.00    +0.000 NA
ATOM     12  C   UNL     1       1.625   2.055  18.466  0.00  0.00    +0.000 A 
ATOM     13  N   UNL     1       2.829   2.496  18.840  0.00  0.00    +0.000 NA
ENDBRANCH   8   9
ENDBRANCH   6   8
ENDBRANCH   1   2
BRANCH   1  17
ATOM     14  C   UNL     1       6.394   4.135  13.594  0.00  0.00    +0.000 A 
ATOM     15  N   UNL     1       7.346   5.032  13.423  0.00  0.00    +0.000 NA
ATOM     16  N   UNL     1       7.781   5.405  14.675  0.00  0.00    +0.000 NA
ATOM     17  C   UNL     1       7.063   4.717  15.539  0.00  0.00    +0.000 A 
ATOM     18  O   UNL     1       6.156   3.893  14.929  0.00  0.00    +0.000 OA
BRANCH  14  24
ATOM     19  C   UNL     1       7.500   1.995  11.460  0.00  0.00    +0.000 C 
ATOM     20  C   UNL     1       6.126   2.548  11.598  0.00  0.00    +0.000 A 
ATOM     21  C   UNL     1       5.004   2.227  10.780  0.00  0.00    +0.000 A 
ATOM     22  C   UNL     1       3.948   2.954  11.267  0.00  0.00    +0.000 A 
ATOM     23  O   UNL     1       4.340   3.706  12.322  0.00  0.00    +0.000 OA
ATOM     24  C   UNL     1       5.677   3.476  12.537  0.00  0.00    +0.000 A 
ENDBRANCH  14  24
ENDBRANCH   1  17
TORSDOF 5
ENDMDL
MODEL 9
REMARK VINA RESULT:      -7.2      1.175      1.736
REMARK  Name = 
REMARK  6 active torsions:
REMARK  status: ('A' for Active; 'I' for Inactive)
REMARK    1  A    between atoms: C_1  and  C_2
REMARK    2  A    between atoms: C_6  and  C_7
REMARK    3  A    between atoms: C_10  and  C_11
REMARK    4  A    between atoms: C_11  and  N_12
REMARK    5  A    between atoms: C_16  and  C_17
REMARK    6  A    between atoms: C_17  and  N_18
REMARK                            x       y       z     vdW  Elec       q    Type
REMARK                         _______ _______ _______ _____ _____    ______ ____
ROOT
ATOM      1  C   UNL     1       7.724   6.523  18.329  0.00  0.00    +0.000 C 
ENDROOT
BRANCH   1   2
ATOM      2  N   UNL     1       6.718   5.957  17.393  0.00  0.00    +0.000 NA
ATOM      3  C   UNL     1       7.139   4.649  16.879  0.00  0.00    +0.000 C 
ATOM      4  C   UNL     1       6.109   4.031  15.938  0.00  0.00    +0.000 C 
ATOM      5  C   UNL     1       4.743   3.946  16.605  0.00  0.00    +0.000 C 
ATOM      6  C   UNL     1       4.294   5.337  17.067  0.00  0.00    +0.000 C 
ATOM      7  C   UNL     1       5.369   5.980  17.965  0.00  0.00    +0.000 C 
BRANCH   6   8
ATOM      8  C   UNL     1       2.969   5.278  17.849  0.00  0.00    +0.000 C 
BRANCH   8   9
ATOM      9  N   UNL     1       2.753   4.040  18.565  0.00  0.00    +0.000 N 
ATOM     10  C   UNL     1       1.950   3.002  18.207  0.00  0.00    +0.000 A 
ATOM     11  N   UNL     1       2.004   2.068  19.128  0.00  0.00    +0.000 NA
ATOM     12  C   UNL     1       2.877   2.591  20.040  0.00  0.00    +0.000 A 
ATOM     13  N   UNL     1       3.375   3.791  19.730  0.00  0.00    +0.000 NA
ENDBRANCH   8   9
ENDBRANCH   6   8
ENDBRANCH   1   2
BRANCH   1  17
ATOM     14  C   UNL     1       8.998   9.834  18.652  0.00  0.00    +0.000 A 
ATOM     15  N   UNL     1       8.113  10.086  17.706  0.00  0.00    +0.000 NA
ATOM     16  N   UNL     1       7.486   8.896  17.411  0.00  0.00    +0.000 NA
ATOM     17  C   UNL     1       8.031   7.985  18.191  0.00  0.00    +0.000 A 
ATOM     18  O   UNL     1       9.003   8.503  19.003  0.00  0.00    +0.000 OA
BRANCH  14  24
ATOM     19  C   UNL     1       8.750  11.191  21.559  0.00  0.00    +0.000 C 
ATOM     20  C   UNL     1       9.781  11.416  20.511  0.00  0.00    +0.000 A 
ATOM     21  C   UNL     1      10.888  12.309  20.598  0.00  0.00    +0.000 A 
ATOM     22  C   UNL     1      11.578  12.189  19.420  0.00  0.00    +0.000 A 
ATOM     23  O   UNL     1      10.972  11.291  18.608  0.00  0.00    +0.000 OA
ATOM     24  C   UNL     1       9.861  10.810  19.259  0.00  0.00    +0.000 A 
ENDBRANCH  14  24
ENDBRANCH   1  17
TORSDOF 5
ENDMDL
