MODEL 1
REMARK VINA RESULT:      -7.8      0.000      0.000
REMARK  Name = 
REMARK  6 active torsions:
REMARK  status: ('A' for Active; 'I' for Inactive)
REMARK    1  A    between atoms: C_1  and  C_2
REMARK    2  A    between atoms: C_5  and  C_6
REMARK    3  A    between atoms: C_8  and  C_9
REMARK    4  A    between atoms: N_16  and  C_17
REMARK    5  A    between atoms: C_20  and  S_21
REMARK    6  A    between atoms: S_21  and  N_22
REMARK                            x       y       z     vdW  Elec       q    Type
REMARK                         _______ _______ _______ _____ _____    ______ ____
ROOT
ATOM      1  C   UNL     1       3.678   4.386  18.036  0.00  0.00    +0.000 A 
ATOM      2  C   UNL     1       4.573   3.812  17.147  0.00  0.00    +0.000 A 
ATOM      3  C   UNL     1       4.842   4.783  16.153  0.00  0.00    +0.000 A 
ATOM      4  N   UNL     1       4.142   5.895  16.388  0.00  0.00    +0.000 NA
ATOM      5  N   UNL     1       3.549   5.706  17.595  0.00  0.00    +0.000 N 
ENDROOT
BRANCH   1  10
ATOM      6  C   UNL     1       0.873   2.047  22.540  0.00  0.00    +0.000 C 
ATOM      7  C   UNL     1       1.611   2.609  21.366  0.00  0.00    +0.000 A 
ATOM      8  C   UNL     1       3.008   2.656  21.337  0.00  0.00    +0.000 A 
ATOM      9  C   UNL     1       3.678   3.228  20.246  0.00  0.00    +0.000 A 
ATOM     10  C   UNL     1       2.967   3.748  19.157  0.00  0.00    +0.000 A 
ATOM     11  C   UNL     1       1.570   3.620  19.166  0.00  0.00    +0.000 A 
ATOM     12  C   UNL     1       0.898   3.099  20.274  0.00  0.00    +0.000 A 
ENDBRANCH   1  10
BRANCH   3  13
ATOM     13  C   UNL     1       5.725   4.662  14.991  0.00  0.00    +0.000 A 
ATOM     14  C   UNL     1       6.932   5.371  14.928  0.00  0.00    +0.000 A 
ATOM     15  C   UNL     1       7.758   5.262  13.807  0.00  0.00    +0.000 A 
ATOM     16  C   UNL     1       7.385   4.448  12.738  0.00  0.00    +0.000 A 
ATOM     17  C   UNL     1       6.189   3.737  12.789  0.00  0.00    +0.000 A 
ATOM     18  C   UNL     1       5.362   3.843  13.914  0.00  0.00    +0.000 A 
ENDBRANCH   3  13
BRANCH   5  19
ATOM     19  C   UNL     1       2.920   6.820  18.222  0.00  0.00    +0.000 A 
ATOM     20  C   UNL     1       2.654   7.968  17.458  0.00  0.00    +0.000 A 
ATOM     21  C   UNL     1       1.970   9.043  18.030  0.00  0.00    +0.000 A 
ATOM     22  C   UNL     1       1.572   8.975  19.369  0.00  0.00    +0.000 A 
ATOM     23  C   UNL     1       1.877   7.857  20.149  0.00  0.00    +0.000 A 
ATOM     24  C   UNL     1       2.560   6.782  19.576  0.00  0.00    +0.000 A 
BRANCH  22  25
ATOM     25  S   UNL     1       0.746  10.354  20.105  0.00  0.00    +0.000 S 
ATOM     26  O   UNL     1       1.399  11.575  19.693  0.00  0.00    +0.000 OA
ATOM     27  O   UNL     1      -0.681  10.167  20.002  0.00  0.00    +0.000 OA
BRANCH  25  28
ATOM     28  N   UNL     1       1.123  10.161  21.730  0.00  0.00    +0.000 NA
ATOM     29  H   UNL     1       1.914   9.525  21.823  0.00  0.00    +0.000 HD
ATOM     30  H   UNL     1       1.278  11.074  22.157  0.00  0.00    +0.000 HD
ENDBRANCH  25  28
ENDBRANCH  22  25
ENDBRANCH   5  19
TORSDOF 5
ENDMDL
MODEL 2
REMARK VINA RESULT:      -7.6      5.319      9.223
REMARK  Name = 
REMARK  6 active torsions:
REMARK  status: ('A' for Active; 'I' for Inactive)
REMARK    1  A    between atoms: C_1  and  C_2
REMARK    2  A    between atoms: C_5  and  C_6
REMARK    3  A    between atoms: C_8  and  C_9
REMARK    4  A    between atoms: N_16  and  C_17
REMARK    5  A    between atoms: C_20  and  S_21
REMARK    6  A    between atoms: S_21  and  N_22
REMARK                            x       y       z     vdW  Elec       q    Type
REMARK                         _______ _______ _______ _____ _____    ______ ____
ROOT
ATOM      1  C   UNL     1       0.549  12.374  19.690  0.00  0.00    +0.000 A 
ATOM      2  C   UNL     1       1.388  11.496  19.023  0.00  0.00    +0.000 A 
ATOM      3  C   UNL     1       1.107  10.202  19.521  0.00  0.00    +0.000 A 
ATOM      4  N   UNL     1       0.162  10.261  20.463  0.00  0.00    +0.000 NA
ATOM      5  N   UNL     1      -0.271  11.548  20.466  0.00  0.00    +0.000 N 
ENDROOT
BRANCH   1  10
ATOM      6  C   UNL     1       0.696  18.164  19.413  0.00  0.00    +0.000 C 
ATOM      7  C   UNL     1       0.636  16.673  19.523  0.00  0.00    +0.000 A 
ATOM      8  C   UNL     1       1.393  15.981  20.474  0.00  0.00    +0.000 A 
ATOM      9  C   UNL     1       1.355  14.581  20.530  0.00  0.00    +0.000 A 
ATOM     10  C   UNL     1       0.548  13.846  19.651  0.00  0.00    +0.000 A 
ATOM     11  C   UNL     1      -0.266  14.560  18.759  0.00  0.00    +0.000 A 
ATOM     12  C   UNL     1      -0.190  15.951  18.665  0.00  0.00    +0.000 A 
ENDBRANCH   1  10
BRANCH   3  13
ATOM     13  C   UNL     1       1.729   8.933  19.136  0.00  0.00    +0.000 A 
ATOM     14  C   UNL     1       1.794   7.862  20.037  0.00  0.00    +0.000 A 
ATOM     15  C   UNL     1       2.405   6.662  19.665  0.00  0.00    +0.000 A 
ATOM     16  C   UNL     1       2.960   6.522  18.394  0.00  0.00    +0.000 A 
ATOM     17  C   UNL     1       2.900   7.579  17.488  0.00  0.00    +0.000 A 
ATOM     18  C   UNL     1       2.285   8.782  17.859  0.00  0.00    +0.000 A 
ENDBRANCH   3  13
BRANCH   5  19
ATOM     19  C   UNL     1      -1.445  11.866  21.207  0.00  0.00    +0.000 A 
ATOM     20  C   UNL     1      -1.455  11.638  22.593  0.00  0.00    +0.000 A 
ATOM     21  C   UNL     1      -2.565  12.013  23.353  0.00  0.00    +0.000 A 
ATOM     22  C   UNL     1      -3.669  12.595  22.723  0.00  0.00    +0.000 A 
ATOM     23  C   UNL     1      -3.686  12.779  21.338  0.00  0.00    +0.000 A 
ATOM     24  C   UNL     1      -2.576  12.406  20.579  0.00  0.00    +0.000 A 
BRANCH  22  25
ATOM     25  S   UNL     1      -5.092  13.028  23.679  0.00  0.00    +0.000 S 
ATOM     26  O   UNL     1      -4.997  14.415  24.071  0.00  0.00    +0.000 OA
ATOM     27  O   UNL     1      -6.271  12.478  23.056  0.00  0.00    +0.000 OA
BRANCH  25  28
ATOM     28  N   UNL     1      -4.853  12.139  25.084  0.00  0.00    +0.000 NA
ATOM     29  H   UNL     1      -5.453  12.503  25.824  0.00  0.00    +0.000 HD
ATOM     30  H   UNL     1      -4.996  11.148  24.890  0.00  0.00    +0.000 HD
ENDBRANCH  25  28
ENDBRANCH  22  25
ENDBRANCH   5  19
TORSDOF 5
ENDMDL
MODEL 3
REMARK VINA RESULT:      -7.5      5.325      9.247
REMARK  Name = 
REMARK  6 active torsions:
REMARK  status: ('A' for Active; 'I' for Inactive)
REMARK    1  A    between atoms: C_1  and  C_2
REMARK    2  A    between atoms: C_5  and  C_6
REMARK    3  A    between atoms: C_8  and  C_9
REMARK    4  A    between atoms: N_16  and  C_17
REMARK    5  A    between atoms: C_20  and  S_21
REMARK    6  A    between atoms: S_21  and  N_22
REMARK                            x       y       z     vdW  Elec       q    Type
REMARK                         _______ _______ _______ _____ _____    ______ ____
ROOT
ATOM      1  C   UNL     1       0.564  12.398  19.625  0.00  0.00    +0.000 A 
ATOM      2  C   UNL     1       1.367  11.487  18.958  0.00  0.00    +0.000 A 
ATOM      3  C   UNL     1       1.092  10.215  19.513  0.00  0.00    +0.000 A 
ATOM      4  N   UNL     1       0.186  10.320  20.488  0.00  0.00    +0.000 NA
ATOM      5  N   UNL     1      -0.233  11.611  20.461  0.00  0.00    +0.000 N 
ENDROOT
BRANCH   1  10
ATOM      6  C   UNL     1       0.481  18.192  19.403  0.00  0.00    +0.000 C 
ATOM      7  C   UNL     1       0.520  16.697  19.419  0.00  0.00    +0.000 A 
ATOM      8  C   UNL     1      -0.336  15.935  18.616  0.00  0.00    +0.000 A 
ATOM      9  C   UNL     1      -0.312  14.535  18.680  0.00  0.00    +0.000 A 
ATOM     10  C   UNL     1       0.577  13.868  19.533  0.00  0.00    +0.000 A 
ATOM     11  C   UNL     1       1.484  14.645  20.270  0.00  0.00    +0.000 A 
ATOM     12  C   UNL     1       1.427  16.040  20.248  0.00  0.00    +0.000 A 
ENDBRANCH   1  10
BRANCH   3  13
ATOM     13  C   UNL     1       1.685   8.926  19.151  0.00  0.00    +0.000 A 
ATOM     14  C   UNL     1       1.728   7.870  20.071  0.00  0.00    +0.000 A 
ATOM     15  C   UNL     1       2.312   6.651  19.720  0.00  0.00    +0.000 A 
ATOM     16  C   UNL     1       2.861   6.475  18.451  0.00  0.00    +0.000 A 
ATOM     17  C   UNL     1       2.824   7.517  17.527  0.00  0.00    +0.000 A 
ATOM     18  C   UNL     1       2.236   8.739  17.876  0.00  0.00    +0.000 A 
ENDBRANCH   3  13
BRANCH   5  19
ATOM     19  C   UNL     1      -1.374  11.969  21.236  0.00  0.00    +0.000 A 
ATOM     20  C   UNL     1      -2.503  12.487  20.580  0.00  0.00    +0.000 A 
ATOM     21  C   UNL     1      -3.661  12.773  21.307  0.00  0.00    +0.000 A 
ATOM     22  C   UNL     1      -3.679  12.559  22.689  0.00  0.00    +0.000 A 
ATOM     23  C   UNL     1      -2.544  12.091  23.355  0.00  0.00    +0.000 A 
ATOM     24  C   UNL     1      -1.387  11.805  22.627  0.00  0.00    +0.000 A 
BRANCH  22  25
ATOM     25  S   UNL     1      -5.130  12.964  23.616  0.00  0.00    +0.000 S 
ATOM     26  O   UNL     1      -5.087  14.361  23.979  0.00  0.00    +0.000 OA
ATOM     27  O   UNL     1      -6.281  12.362  22.987  0.00  0.00    +0.000 OA
BRANCH  25  28
ATOM     28  N   UNL     1      -4.883  12.113  25.042  0.00  0.00    +0.000 NA
ATOM     29  H   UNL     1      -5.669  12.268  25.673  0.00  0.00    +0.000 HD
ATOM     30  H   UNL     1      -4.716  11.129  24.829  0.00  0.00    +0.000 HD
ENDBRANCH  25  28
ENDBRANCH  22  25
ENDBRANCH   5  19
TORSDOF 5
ENDMDL
MODEL 4
REMARK VINA RESULT:      -7.5      5.364      9.315
REMARK  Name = 
REMARK  6 active torsions:
REMARK  status: ('A' for Active; 'I' for Inactive)
REMARK    1  A    between atoms: C_1  and  C_2
REMARK    2  A    between atoms: C_5  and  C_6
REMARK    3  A    between atoms: C_8  and  C_9
REMARK    4  A    between atoms: N_16  and  C_17
REMARK    5  A    between atoms: C_20  and  S_21
REMARK    6  A    between atoms: S_21  and  N_22
REMARK                            x       y       z     vdW  Elec       q    Type
REMARK                         _______ _______ _______ _____ _____    ______ ____
ROOT
ATOM      1  C   UNL     1       0.525  12.405  19.753  0.00  0.00    +0.000 A 
ATOM      2  C   UNL     1       1.357  11.525  19.081  0.00  0.00    +0.000 A 
ATOM      3  C   UNL     1       1.077  10.232  19.583  0.00  0.00    +0.000 A 
ATOM      4  N   UNL     1       0.140  10.295  20.532  0.00  0.00    +0.000 NA
ATOM      5  N   UNL     1      -0.290  11.583  20.536  0.00  0.00    +0.000 N 
ENDROOT
BRANCH   1  10
ATOM      6  C   UNL     1       0.375  18.202  19.706  0.00  0.00    +0.000 C 
ATOM      7  C   UNL     1       0.439  16.707  19.681  0.00  0.00    +0.000 A 
ATOM      8  C   UNL     1      -0.237  15.964  18.708  0.00  0.00    +0.000 A 
ATOM      9  C   UNL     1      -0.200  14.563  18.731  0.00  0.00    +0.000 A 
ATOM     10  C   UNL     1       0.528  13.878  19.713  0.00  0.00    +0.000 A 
ATOM     11  C   UNL     1       1.266  14.639  20.631  0.00  0.00    +0.000 A 
ATOM     12  C   UNL     1       1.187  16.033  20.644  0.00  0.00    +0.000 A 
ENDBRANCH   1  10
BRANCH   3  13
ATOM     13  C   UNL     1       1.693   8.962  19.194  0.00  0.00    +0.000 A 
ATOM     14  C   UNL     1       2.216   8.780  17.907  0.00  0.00    +0.000 A 
ATOM     15  C   UNL     1       2.785   7.558  17.542  0.00  0.00    +0.000 A 
ATOM     16  C   UNL     1       2.834   6.506  18.455  0.00  0.00    +0.000 A 
ATOM     17  C   UNL     1       2.319   6.674  19.738  0.00  0.00    +0.000 A 
ATOM     18  C   UNL     1       1.751   7.900  20.107  0.00  0.00    +0.000 A 
ENDBRANCH   3  13
BRANCH   5  19
ATOM     19  C   UNL     1      -1.458  11.904  21.286  0.00  0.00    +0.000 A 
ATOM     20  C   UNL     1      -1.467  11.653  22.668  0.00  0.00    +0.000 A 
ATOM     21  C   UNL     1      -2.570  12.030  23.438  0.00  0.00    +0.000 A 
ATOM     22  C   UNL     1      -3.667  12.638  22.821  0.00  0.00    +0.000 A 
ATOM     23  C   UNL     1      -3.686  12.846  21.440  0.00  0.00    +0.000 A 
ATOM     24  C   UNL     1      -2.583  12.470  20.671  0.00  0.00    +0.000 A 
BRANCH  22  25
ATOM     25  S   UNL     1      -5.082  13.074  23.789  0.00  0.00    +0.000 S 
ATOM     26  O   UNL     1      -5.116  14.507  23.961  0.00  0.00    +0.000 OA
ATOM     27  O   UNL     1      -6.224  12.321  23.331  0.00  0.00    +0.000 OA
BRANCH  25  28
ATOM     28  N   UNL     1      -4.684  12.443  25.293  0.00  0.00    +0.000 NA
ATOM     29  H   UNL     1      -4.916  13.120  26.019  0.00  0.00    +0.000 HD
ATOM     30  H   UNL     1      -5.139  11.538  25.416  0.00  0.00    +0.000 HD
ENDBRANCH  25  28
ENDBRANCH  22  25
ENDBRANCH   5  19
TORSDOF 5
ENDMDL
MODEL 5
REMARK VINA RESULT:      -7.3      5.376      8.762
REMARK  Name = 
REMARK  6 active torsions:
REMARK  status: ('A' for Active; 'I' for Inactive)
REMARK    1  A    between atoms: C_1  and  C_2
REMARK    2  A    between atoms: C_5  and  C_6
REMARK    3  A    between atoms: C_8  and  C_9
REMARK    4  A    between atoms: N_16  and  C_17
REMARK    5  A    between atoms: C_20  and  S_21
REMARK    6  A    between atoms: S_21  and  N_22
REMARK                            x       y       z     vdW  Elec       q    Type
REMARK                         _______ _______ _______ _____ _____    ______ ____
ROOT
ATOM      1  C   UNL     1      -0.008  11.501  21.321  0.00  0.00    +0.000 A 
ATOM      2  C   UNL     1       0.295  10.151  21.396  0.00  0.00    +0.000 A 
ATOM      3  C   UNL     1       0.997   9.822  20.212  0.00  0.00    +0.000 A 
ATOM      4  N   UNL     1       1.111  10.896  19.426  0.00  0.00    +0.000 NA
ATOM      5  N   UNL     1       0.629  11.935  20.155  0.00  0.00    +0.000 N 
ENDROOT
BRANCH   1  10
ATOM      6  C   UNL     1      -3.438  14.721  24.710  0.00  0.00    +0.000 C 
ATOM      7  C   UNL     1      -2.524  13.885  23.871  0.00  0.00    +0.000 A 
ATOM      8  C   UNL     1      -1.283  14.367  23.442  0.00  0.00    +0.000 A 
ATOM      9  C   UNL     1      -0.463  13.583  22.619  0.00  0.00    +0.000 A 
ATOM     10  C   UNL     1      -0.857  12.298  22.222  0.00  0.00    +0.000 A 
ATOM     11  C   UNL     1      -2.067  11.800  22.727  0.00  0.00    +0.000 A 
ATOM     12  C   UNL     1      -2.911  12.598  23.503  0.00  0.00    +0.000 A 
ENDBRANCH   1  10
BRANCH   3  13
ATOM     13  C   UNL     1       1.533   8.519  19.814  0.00  0.00    +0.000 A 
ATOM     14  C   UNL     1       2.058   8.319  18.531  0.00  0.00    +0.000 A 
ATOM     15  C   UNL     1       2.550   7.066  18.156  0.00  0.00    +0.000 A 
ATOM     16  C   UNL     1       2.520   6.003  19.056  0.00  0.00    +0.000 A 
ATOM     17  C   UNL     1       2.001   6.188  20.336  0.00  0.00    +0.000 A 
ATOM     18  C   UNL     1       1.510   7.445  20.713  0.00  0.00    +0.000 A 
ENDBRANCH   3  13
BRANCH   5  19
ATOM     19  C   UNL     1       0.836  13.257  19.667  0.00  0.00    +0.000 A 
ATOM     20  C   UNL     1      -0.226  13.920  19.030  0.00  0.00    +0.000 A 
ATOM     21  C   UNL     1      -0.071  15.244  18.612  0.00  0.00    +0.000 A 
ATOM     22  C   UNL     1       1.150  15.894  18.815  0.00  0.00    +0.000 A 
ATOM     23  C   UNL     1       2.226  15.225  19.403  0.00  0.00    +0.000 A 
ATOM     24  C   UNL     1       2.071  13.903  19.821  0.00  0.00    +0.000 A 
BRANCH  22  25
ATOM     25  S   UNL     1       1.359  17.555  18.246  0.00  0.00    +0.000 S 
ATOM     26  O   UNL     1       0.217  17.931  17.446  0.00  0.00    +0.000 OA
ATOM     27  O   UNL     1       1.848  18.373  19.329  0.00  0.00    +0.000 OA
BRANCH  25  28
ATOM     28  N   UNL     1       2.639  17.397  17.170  0.00  0.00    +0.000 NA
ATOM     29  H   UNL     1       2.497  16.570  16.590  0.00  0.00    +0.000 HD
ATOM     30  H   UNL     1       2.745  18.259  16.635  0.00  0.00    +0.000 HD
ENDBRANCH  25  28
ENDBRANCH  22  25
ENDBRANCH   5  19
TORSDOF 5
ENDMDL
MODEL 6
REMARK VINA RESULT:      -7.3      5.364      9.295
REMARK  Name = 
REMARK  6 active torsions:
REMARK  status: ('A' for Active; 'I' for Inactive)
REMARK    1  A    between atoms: C_1  and  C_2
REMARK    2  A    between atoms: C_5  and  C_6
REMARK    3  A    between atoms: C_8  and  C_9
REMARK    4  A    between atoms: N_16  and  C_17
REMARK    5  A    between atoms: C_20  and  S_21
REMARK    6  A    between atoms: S_21  and  N_22
REMARK                            x       y       z     vdW  Elec       q    Type
REMARK                         _______ _______ _______ _____ _____    ______ ____
ROOT
ATOM      1  C   UNL     1       0.556  12.372  19.708  0.00  0.00    +0.000 A 
ATOM      2  C   UNL     1       1.393  11.499  19.032  0.00  0.00    +0.000 A 
ATOM      3  C   UNL     1       1.113  10.201  19.522  0.00  0.00    +0.000 A 
ATOM      4  N   UNL     1       0.170  10.255  20.467  0.00  0.00    +0.000 NA
ATOM      5  N   UNL     1      -0.262  11.542  20.480  0.00  0.00    +0.000 N 
ENDROOT
BRANCH   1  10
ATOM      6  C   UNL     1       0.395  18.169  19.709  0.00  0.00    +0.000 C 
ATOM      7  C   UNL     1       0.462  16.675  19.671  0.00  0.00    +0.000 A 
ATOM      8  C   UNL     1      -0.221  15.938  18.697  0.00  0.00    +0.000 A 
ATOM      9  C   UNL     1      -0.181  14.537  18.708  0.00  0.00    +0.000 A 
ATOM     10  C   UNL     1       0.555  13.845  19.679  0.00  0.00    +0.000 A 
ATOM     11  C   UNL     1       1.299  14.600  20.597  0.00  0.00    +0.000 A 
ATOM     12  C   UNL     1       1.219  15.994  20.622  0.00  0.00    +0.000 A 
ENDBRANCH   1  10
BRANCH   3  13
ATOM     13  C   UNL     1       1.733   8.936  19.127  0.00  0.00    +0.000 A 
ATOM     14  C   UNL     1       1.785   7.852  20.014  0.00  0.00    +0.000 A 
ATOM     15  C   UNL     1       2.396   6.655  19.633  0.00  0.00    +0.000 A 
ATOM     16  C   UNL     1       2.962   6.529  18.365  0.00  0.00    +0.000 A 
ATOM     17  C   UNL     1       2.915   7.598  17.473  0.00  0.00    +0.000 A 
ATOM     18  C   UNL     1       2.301   8.798  17.853  0.00  0.00    +0.000 A 
ENDBRANCH   3  13
BRANCH   5  19
ATOM     19  C   UNL     1      -1.434  11.855  21.227  0.00  0.00    +0.000 A 
ATOM     20  C   UNL     1      -1.460  11.567  22.601  0.00  0.00    +0.000 A 
ATOM     21  C   UNL     1      -2.566  11.934  23.370  0.00  0.00    +0.000 A 
ATOM     22  C   UNL     1      -3.652  12.570  22.758  0.00  0.00    +0.000 A 
ATOM     23  C   UNL     1      -3.654  12.814  21.383  0.00  0.00    +0.000 A 
ATOM     24  C   UNL     1      -2.547  12.448  20.616  0.00  0.00    +0.000 A 
BRANCH  22  25
ATOM     25  S   UNL     1      -5.072  12.994  23.723  0.00  0.00    +0.000 S 
ATOM     26  O   UNL     1      -5.151  12.113  24.865  0.00  0.00    +0.000 OA
ATOM     27  O   UNL     1      -5.154  14.429  23.845  0.00  0.00    +0.000 OA
BRANCH  25  28
ATOM     28  N   UNL     1      -6.331  12.542  22.709  0.00  0.00    +0.000 NA
ATOM     29  H   UNL     1      -6.210  12.983  21.798  0.00  0.00    +0.000 HD
ATOM     30  H   UNL     1      -6.389  11.524  22.667  0.00  0.00    +0.000 HD
ENDBRANCH  25  28
ENDBRANCH  22  25
ENDBRANCH   5  19
TORSDOF 5
ENDMDL
MODEL 7
REMARK VINA RESULT:      -7.3      5.207      9.149
REMARK  Name = 
REMARK  6 active torsions:
REMARK  status: ('A' for Active; 'I' for Inactive)
REMARK    1  A    between atoms: C_1  and  C_2
REMARK    2  A    between atoms: C_5  and  C_6
REMARK    3  A    between atoms: C_8  and  C_9
REMARK    4  A    between atoms: N_16  and  C_17
REMARK    5  A    between atoms: C_20  and  S_21
REMARK    6  A    between atoms: S_21  and  N_22
REMARK                            x       y       z     vdW  Elec       q    Type
REMARK                         _______ _______ _______ _____ _____    ______ ____
ROOT
ATOM      1  C   UNL     1       0.630  12.204  19.590  0.00  0.00    +0.000 A 
ATOM      2  C   UNL     1       1.432  11.286  18.932  0.00  0.00    +0.000 A 
ATOM      3  C   UNL     1       1.167  10.022  19.511  0.00  0.00    +0.000 A 
ATOM      4  N   UNL     1       0.267  10.139  20.491  0.00  0.00    +0.000 NA
ATOM      5  N   UNL     1      -0.157  11.427  20.445  0.00  0.00    +0.000 N 
ENDROOT
BRANCH   1  10
ATOM      6  C   UNL     1       0.524  17.993  19.275  0.00  0.00    +0.000 C 
ATOM      7  C   UNL     1       0.567  16.498  19.314  0.00  0.00    +0.000 A 
ATOM      8  C   UNL     1      -0.318  15.722  18.559  0.00  0.00    +0.000 A 
ATOM      9  C   UNL     1      -0.289  14.323  18.646  0.00  0.00    +0.000 A 
ATOM     10  C   UNL     1       0.636  13.672  19.473  0.00  0.00    +0.000 A 
ATOM     11  C   UNL     1       1.570  14.462  20.159  0.00  0.00    +0.000 A 
ATOM     12  C   UNL     1       1.509  15.857  20.117  0.00  0.00    +0.000 A 
ENDBRANCH   1  10
BRANCH   3  13
ATOM     13  C   UNL     1       1.763   8.730  19.165  0.00  0.00    +0.000 A 
ATOM     14  C   UNL     1       1.792   7.680  20.094  0.00  0.00    +0.000 A 
ATOM     15  C   UNL     1       2.379   6.457  19.760  0.00  0.00    +0.000 A 
ATOM     16  C   UNL     1       2.945   6.272  18.499  0.00  0.00    +0.000 A 
ATOM     17  C   UNL     1       2.921   7.307  17.567  0.00  0.00    +0.000 A 
ATOM     18  C   UNL     1       2.330   8.532  17.900  0.00  0.00    +0.000 A 
ENDBRANCH   3  13
BRANCH   5  19
ATOM     19  C   UNL     1      -1.294  11.793  21.222  0.00  0.00    +0.000 A 
ATOM     20  C   UNL     1      -1.282  11.539  22.603  0.00  0.00    +0.000 A 
ATOM     21  C   UNL     1      -2.351  11.958  23.398  0.00  0.00    +0.000 A 
ATOM     22  C   UNL     1      -3.437  12.612  22.807  0.00  0.00    +0.000 A 
ATOM     23  C   UNL     1      -3.478  12.824  21.427  0.00  0.00    +0.000 A 
ATOM     24  C   UNL     1      -2.409  12.406  20.633  0.00  0.00    +0.000 A 
BRANCH  22  25
ATOM     25  S   UNL     1      -4.811  13.102  23.807  0.00  0.00    +0.000 S 
ATOM     26  O   UNL     1      -5.692  13.938  23.027  0.00  0.00    +0.000 OA
ATOM     27  O   UNL     1      -5.285  11.964  24.557  0.00  0.00    +0.000 OA
BRANCH  25  28
ATOM     28  N   UNL     1      -4.083  14.122  24.925  0.00  0.00    +0.000 NA
ATOM     29  H   UNL     1      -3.104  14.262  24.672  0.00  0.00    +0.000 HD
ATOM     30  H   UNL     1      -4.616  14.989  24.995  0.00  0.00    +0.000 HD
ENDBRANCH  25  28
ENDBRANCH  22  25
ENDBRANCH   5  19
TORSDOF 5
ENDMDL
MODEL 8
REMARK VINA RESULT:      -7.3      5.328      8.570
REMARK  Name = 
REMARK  6 active torsions:
REMARK  status: ('A' for Active; 'I' for Inactive)
REMARK    1  A    between atoms: C_1  and  C_2
REMARK    2  A    between atoms: C_5  and  C_6
REMARK    3  A    between atoms: C_8  and  C_9
REMARK    4  A    between atoms: N_16  and  C_17
REMARK    5  A    between atoms: C_20  and  S_21
REMARK    6  A    between atoms: S_21  and  N_22
REMARK                            x       y       z     vdW  Elec       q    Type
REMARK                         _______ _______ _______ _____ _____    ______ ____
ROOT
ATOM      1  C   UNL     1      -0.490  11.327  20.632  0.00  0.00    +0.000 A 
ATOM      2  C   UNL     1      -0.072  10.007  20.583  0.00  0.00    +0.000 A 
ATOM      3  C   UNL     1       0.957   9.939  19.613  0.00  0.00    +0.000 A 
ATOM      4  N   UNL     1       1.160  11.141  19.066  0.00  0.00    +0.000 NA
ATOM      5  N   UNL     1       0.387  12.001  19.776  0.00  0.00    +0.000 N 
ENDROOT
BRANCH   1  10
ATOM      6  C   UNL     1      -5.082  13.395  23.505  0.00  0.00    +0.000 C 
ATOM      7  C   UNL     1      -3.887  12.904  22.752  0.00  0.00    +0.000 A 
ATOM      8  C   UNL     1      -3.841  12.937  21.354  0.00  0.00    +0.000 A 
ATOM      9  C   UNL     1      -2.728  12.430  20.668  0.00  0.00    +0.000 A 
ATOM     10  C   UNL     1      -1.634  11.897  21.363  0.00  0.00    +0.000 A 
ATOM     11  C   UNL     1      -1.663  11.947  22.764  0.00  0.00    +0.000 A 
ATOM     12  C   UNL     1      -2.791  12.402  23.450  0.00  0.00    +0.000 A 
ENDBRANCH   1  10
BRANCH   3  13
ATOM     13  C   UNL     1       1.721   8.764  19.190  0.00  0.00    +0.000 A 
ATOM     14  C   UNL     1       2.319   8.712  17.924  0.00  0.00    +0.000 A 
ATOM     15  C   UNL     1       3.031   7.578  17.525  0.00  0.00    +0.000 A 
ATOM     16  C   UNL     1       3.149   6.486  18.383  0.00  0.00    +0.000 A 
ATOM     17  C   UNL     1       2.561   6.526  19.645  0.00  0.00    +0.000 A 
ATOM     18  C   UNL     1       1.849   7.663  20.047  0.00  0.00    +0.000 A 
ENDBRANCH   3  13
BRANCH   5  19
ATOM     19  C   UNL     1       0.571  13.400  19.576  0.00  0.00    +0.000 A 
ATOM     20  C   UNL     1       1.705  14.020  20.125  0.00  0.00    +0.000 A 
ATOM     21  C   UNL     1       1.947  15.373  19.878  0.00  0.00    +0.000 A 
ATOM     22  C   UNL     1       1.045  16.106  19.100  0.00  0.00    +0.000 A 
ATOM     23  C   UNL     1      -0.110  15.507  18.592  0.00  0.00    +0.000 A 
ATOM     24  C   UNL     1      -0.352  14.155  18.839  0.00  0.00    +0.000 A 
BRANCH  22  25
ATOM     25  S   UNL     1       1.330  17.830  18.825  0.00  0.00    +0.000 S 
ATOM     26  O   UNL     1       1.917  18.012  17.518  0.00  0.00    +0.000 OA
ATOM     27  O   UNL     1       0.179  18.580  19.268  0.00  0.00    +0.000 OA
BRANCH  25  28
ATOM     28  N   UNL     1       2.552  18.162  19.927  0.00  0.00    +0.000 NA
ATOM     29  H   UNL     1       2.142  18.471  20.808  0.00  0.00    +0.000 HD
ATOM     30  H   UNL     1       3.160  17.348  20.020  0.00  0.00    +0.000 HD
ENDBRANCH  25  28
ENDBRANCH  22  25
ENDBRANCH   5  19
TORSDOF 5
ENDMDL
MODEL 9
REMARK VINA RESULT:      -7.3      5.407      8.651
REMARK  Name = 
REMARK  6 active torsions:
REMARK  status: ('A' for Active; 'I' for Inactive)
REMARK    1  A    between atoms: C_1  and  C_2
REMARK    2  A    between atoms: C_5  and  C_6
REMARK    3  A    between atoms: C_8  and  C_9
REMARK    4  A    between atoms: N_16  and  C_17
REMARK    5  A    between atoms: C_20  and  S_21
REMARK    6  A    between atoms: S_21  and  N_22
REMARK                            x       y       z     vdW  Elec       q    Type
REMARK                         _______ _______ _______ _____ _____    ______ ____
ROOT
ATOM      1  C   UNL     1      -0.578  11.353  20.659  0.00  0.00    +0.000 A 
ATOM      2  C   UNL     1      -0.175  10.030  20.585  0.00  0.00    +0.000 A 
ATOM      3  C   UNL     1       0.885   9.977  19.649  0.00  0.00    +0.000 A 
ATOM      4  N   UNL     1       1.123  11.191  19.146  0.00  0.00    +0.000 NA
ATOM      5  N   UNL     1       0.336  12.041  19.855  0.00  0.00    +0.000 N 
ENDROOT
BRANCH   1  10
ATOM      6  C   UNL     1      -5.056  13.740  23.466  0.00  0.00    +0.000 C 
ATOM      7  C   UNL     1      -3.917  13.083  22.753  0.00  0.00    +0.000 A 
ATOM      8  C   UNL     1      -2.899  12.426  23.453  0.00  0.00    +0.000 A 
ATOM      9  C   UNL     1      -1.818  11.857  22.766  0.00  0.00    +0.000 A 
ATOM     10  C   UNL     1      -1.740  11.917  21.368  0.00  0.00    +0.000 A 
ATOM     11  C   UNL     1      -2.809  12.507  20.678  0.00  0.00    +0.000 A 
ATOM     12  C   UNL     1      -3.860  13.122  21.361  0.00  0.00    +0.000 A 
ENDBRANCH   1  10
BRANCH   3  13
ATOM     13  C   UNL     1       1.649   8.805  19.218  0.00  0.00    +0.000 A 
ATOM     14  C   UNL     1       1.806   7.698  20.063  0.00  0.00    +0.000 A 
ATOM     15  C   UNL     1       2.552   6.592  19.649  0.00  0.00    +0.000 A 
ATOM     16  C   UNL     1       3.150   6.582  18.389  0.00  0.00    +0.000 A 
ATOM     17  C   UNL     1       3.000   7.675  17.539  0.00  0.00    +0.000 A 
ATOM     18  C   UNL     1       2.250   8.783  17.953  0.00  0.00    +0.000 A 
ENDBRANCH   3  13
BRANCH   5  19
ATOM     19  C   UNL     1       0.544  13.442  19.704  0.00  0.00    +0.000 A 
ATOM     20  C   UNL     1       1.584  14.055  20.422  0.00  0.00    +0.000 A 
ATOM     21  C   UNL     1       1.857  15.411  20.232  0.00  0.00    +0.000 A 
ATOM     22  C   UNL     1       1.078  16.154  19.340  0.00  0.00    +0.000 A 
ATOM     23  C   UNL     1       0.011  15.563  18.660  0.00  0.00    +0.000 A 
ATOM     24  C   UNL     1      -0.261  14.207  18.849  0.00  0.00    +0.000 A 
BRANCH  22  25
ATOM     25  S   UNL     1       1.396  17.882  19.134  0.00  0.00    +0.000 S 
ATOM     26  O   UNL     1       0.154  18.610  19.249  0.00  0.00    +0.000 OA
ATOM     27  O   UNL     1       2.577  18.242  19.880  0.00  0.00    +0.000 OA
BRANCH  25  28
ATOM     28  N   UNL     1       1.827  17.967  17.514  0.00  0.00    +0.000 NA
ATOM     29  H   UNL     1       1.669  18.913  17.168  0.00  0.00    +0.000 HD
ATOM     30  H   UNL     1       2.788  17.643  17.398  0.00  0.00    +0.000 HD
ENDBRANCH  25  28
ENDBRANCH  22  25
ENDBRANCH   5  19
TORSDOF 5
ENDMDL
