MODEL 1
REMARK VINA RESULT:      -8.9      0.000      0.000
REMARK  Name = 
REMARK  3 active torsions:
REMARK  status: ('A' for Active; 'I' for Inactive)
REMARK    1  A    between atoms: C_1  and  C_2
REMARK    2  A    between atoms: C_5  and  N_6
REMARK    3  A    between atoms: C_10  and  C_11
REMARK                            x       y       z     vdW  Elec       q    Type
REMARK                         _______ _______ _______ _____ _____    ______ ____
ROOT
ATOM      1  N   UNL     1       2.078   7.618  19.375  0.00  0.00    +0.000 N 
ATOM      2  C   UNL     1       2.638   8.176  18.214  0.00  0.00    +0.000 C 
ATOM      3  O   UNL     1       2.562   9.375  17.926  0.00  0.00    +0.000 OA
ATOM      4  C   UNL     1       3.362   7.260  17.237  0.00  0.00    +0.000 C 
ATOM      5  C   UNL     1       3.579   5.791  17.631  0.00  0.00    +0.000 C 
ATOM      6  C   UNL     1       2.855   5.434  18.864  0.00  0.00    +0.000 C 
ATOM      7  C   UNL     1       2.199   6.270  19.654  0.00  0.00    +0.000 C 
ATOM      8  C   UNL     1       1.566   5.540  20.775  0.00  0.00    +0.000 C 
ATOM      9  O   UNL     1       1.904   4.168  20.525  0.00  0.00    +0.000 OA
ATOM     10  C   UNL     1       2.659   4.087  19.393  0.00  0.00    +0.000 C 
ATOM     11  O   UNL     1       3.064   3.062  18.885  0.00  0.00    +0.000 OA
ENDROOT
BRANCH   1  16
ATOM     12  C   UNL     1      -0.893  11.061  22.893  0.00  0.00    +0.000 C 
ATOM     13  C   UNL     1      -0.119  10.184  21.950  0.00  0.00    +0.000 A 
ATOM     14  C   UNL     1       0.790   9.252  22.470  0.00  0.00    +0.000 A 
ATOM     15  C   UNL     1       1.513   8.414  21.620  0.00  0.00    +0.000 A 
ATOM     16  C   UNL     1       1.358   8.506  20.231  0.00  0.00    +0.000 A 
ATOM     17  C   UNL     1       0.456   9.431  19.701  0.00  0.00    +0.000 A 
ATOM     18  C   UNL     1      -0.287  10.252  20.557  0.00  0.00    +0.000 A 
ATOM     19 CL   UNL     1      -1.429  11.335  19.843  0.00  0.00    +0.000 Cl
ENDBRANCH   1  16
BRANCH   5  20
ATOM     20  C   UNL     1       5.060   5.481  17.721  0.00  0.00    +0.000 A 
ATOM     21  C   UNL     1       5.779   5.806  18.880  0.00  0.00    +0.000 A 
ATOM     22  C   UNL     1       7.127   5.460  18.994  0.00  0.00    +0.000 A 
ATOM     23  C   UNL     1       7.772   4.797  17.950  0.00  0.00    +0.000 A 
ATOM     24  C   UNL     1       7.078   4.501  16.778  0.00  0.00    +0.000 A 
ATOM     25  C   UNL     1       5.738   4.845  16.673  0.00  0.00    +0.000 A 
ATOM     26  F   UNL     1       5.081   4.536  15.545  0.00  0.00    +0.000 F 
ENDBRANCH   5  20
TORSDOF 2
ENDMDL
MODEL 2
REMARK VINA RESULT:      -8.6      3.525      7.234
REMARK  Name = 
REMARK  3 active torsions:
REMARK  status: ('A' for Active; 'I' for Inactive)
REMARK    1  A    between atoms: C_1  and  C_2
REMARK    2  A    between atoms: C_5  and  N_6
REMARK    3  A    between atoms: C_10  and  C_11
REMARK                            x       y       z     vdW  Elec       q    Type
REMARK                         _______ _______ _______ _____ _____    ______ ____
ROOT
ATOM      1  N   UNL     1       2.209   7.524  19.095  0.00  0.00    +0.000 N 
ATOM      2  C   UNL     1       2.438   8.213  17.892  0.00  0.00    +0.000 C 
ATOM      3  O   UNL     1       2.968   7.699  16.901  0.00  0.00    +0.000 OA
ATOM      4  C   UNL     1       2.035   9.678  17.797  0.00  0.00    +0.000 C 
ATOM      5  C   UNL     1       1.262  10.303  18.968  0.00  0.00    +0.000 C 
ATOM      6  C   UNL     1       1.191   9.402  20.132  0.00  0.00    +0.000 C 
ATOM      7  C   UNL     1       1.603   8.143  20.172  0.00  0.00    +0.000 C 
ATOM      8  C   UNL     1       1.405   7.573  21.522  0.00  0.00    +0.000 C 
ATOM      9  O   UNL     1       0.859   8.662  22.279  0.00  0.00    +0.000 OA
ATOM     10  C   UNL     1       0.735   9.755  21.474  0.00  0.00    +0.000 C 
ATOM     11  O   UNL     1       0.349  10.851  21.824  0.00  0.00    +0.000 OA
ENDROOT
BRANCH   1  16
ATOM     12  C   UNL     1       4.113   2.101  19.209  0.00  0.00    +0.000 C 
ATOM     13  C   UNL     1       3.586   3.508  19.189  0.00  0.00    +0.000 A 
ATOM     14  C   UNL     1       4.469   4.574  19.404  0.00  0.00    +0.000 A 
ATOM     15  C   UNL     1       4.011   5.893  19.377  0.00  0.00    +0.000 A 
ATOM     16  C   UNL     1       2.657   6.170  19.156  0.00  0.00    +0.000 A 
ATOM     17  C   UNL     1       1.767   5.115  18.940  0.00  0.00    +0.000 A 
ATOM     18  C   UNL     1       2.233   3.796  18.942  0.00  0.00    +0.000 A 
ATOM     19 CL   UNL     1       1.094   2.539  18.612  0.00  0.00    +0.000 Cl
ENDBRANCH   1  16
BRANCH   5  20
ATOM     20  C   UNL     1      -0.109  10.762  18.511  0.00  0.00    +0.000 A 
ATOM     21  C   UNL     1      -0.949   9.885  17.812  0.00  0.00    +0.000 A 
ATOM     22  C   UNL     1      -2.238  10.282  17.450  0.00  0.00    +0.000 A 
ATOM     23  C   UNL     1      -2.695  11.560  17.771  0.00  0.00    +0.000 A 
ATOM     24  C   UNL     1      -1.857  12.454  18.434  0.00  0.00    +0.000 A 
ATOM     25  C   UNL     1      -0.578  12.052  18.793  0.00  0.00    +0.000 A 
ATOM     26  F   UNL     1       0.210  12.919  19.447  0.00  0.00    +0.000 F 
ENDBRANCH   5  20
TORSDOF 2
ENDMDL
MODEL 3
REMARK VINA RESULT:      -8.3      1.016      1.379
REMARK  Name = 
REMARK  3 active torsions:
REMARK  status: ('A' for Active; 'I' for Inactive)
REMARK    1  A    between atoms: C_1  and  C_2
REMARK    2  A    between atoms: C_5  and  N_6
REMARK    3  A    between atoms: C_10  and  C_11
REMARK                            x       y       z     vdW  Elec       q    Type
REMARK                         _______ _______ _______ _____ _____    ______ ____
ROOT
ATOM      1  N   UNL     1       2.096   7.669  19.204  0.00  0.00    +0.000 N 
ATOM      2  C   UNL     1       2.686   8.131  18.015  0.00  0.00    +0.000 C 
ATOM      3  O   UNL     1       2.589   9.294  17.611  0.00  0.00    +0.000 OA
ATOM      4  C   UNL     1       3.471   7.148  17.157  0.00  0.00    +0.000 C 
ATOM      5  C   UNL     1       3.710   5.731  17.698  0.00  0.00    +0.000 C 
ATOM      6  C   UNL     1       2.950   5.471  18.933  0.00  0.00    +0.000 C 
ATOM      7  C   UNL     1       2.242   6.358  19.615  0.00  0.00    +0.000 C 
ATOM      8  C   UNL     1       1.587   5.720  20.778  0.00  0.00    +0.000 C 
ATOM      9  O   UNL     1       1.970   4.341  20.673  0.00  0.00    +0.000 OA
ATOM     10  C   UNL     1       2.769   4.175  19.582  0.00  0.00    +0.000 C 
ATOM     11  O   UNL     1       3.220   3.119  19.190  0.00  0.00    +0.000 OA
ENDROOT
BRANCH   1  16
ATOM     12  C   UNL     1      -0.922  11.588  22.134  0.00  0.00    +0.000 C 
ATOM     13  C   UNL     1      -0.140  10.542  21.392  0.00  0.00    +0.000 A 
ATOM     14  C   UNL     1      -0.029  10.629  19.997  0.00  0.00    +0.000 A 
ATOM     15  C   UNL     1       0.703   9.680  19.282  0.00  0.00    +0.000 A 
ATOM     16  C   UNL     1       1.321   8.612  19.944  0.00  0.00    +0.000 A 
ATOM     17  C   UNL     1       1.217   8.514  21.334  0.00  0.00    +0.000 A 
ATOM     18  C   UNL     1       0.504   9.481  22.051  0.00  0.00    +0.000 A 
ATOM     19 CL   UNL     1       0.461   9.337  23.772  0.00  0.00    +0.000 Cl
ENDBRANCH   1  16
BRANCH   5  20
ATOM     20  C   UNL     1       5.195   5.475  17.870  0.00  0.00    +0.000 A 
ATOM     21  C   UNL     1       5.839   5.838  19.061  0.00  0.00    +0.000 A 
ATOM     22  C   UNL     1       7.191   5.542  19.250  0.00  0.00    +0.000 A 
ATOM     23  C   UNL     1       7.914   4.892  18.250  0.00  0.00    +0.000 A 
ATOM     24  C   UNL     1       7.294   4.558  17.048  0.00  0.00    +0.000 A 
ATOM     25  C   UNL     1       5.950   4.853  16.867  0.00  0.00    +0.000 A 
ATOM     26  F   UNL     1       5.365   4.508  15.710  0.00  0.00    +0.000 F 
ENDBRANCH   5  20
TORSDOF 2
ENDMDL
MODEL 4
REMARK VINA RESULT:      -8.2      3.664      7.444
REMARK  Name = 
REMARK  3 active torsions:
REMARK  status: ('A' for Active; 'I' for Inactive)
REMARK    1  A    between atoms: C_1  and  C_2
REMARK    2  A    between atoms: C_5  and  N_6
REMARK    3  A    between atoms: C_10  and  C_11
REMARK                            x       y       z     vdW  Elec       q    Type
REMARK                         _______ _______ _______ _____ _____    ______ ____
ROOT
ATOM      1  N   UNL     1       2.135   7.718  18.807  0.00  0.00    +0.000 N 
ATOM      2  C   UNL     1       2.310   8.640  17.761  0.00  0.00    +0.000 C 
ATOM      3  O   UNL     1       2.801   8.347  16.666  0.00  0.00    +0.000 OA
ATOM      4  C   UNL     1       1.897  10.088  17.984  0.00  0.00    +0.000 C 
ATOM      5  C   UNL     1       1.170  10.450  19.288  0.00  0.00    +0.000 C 
ATOM      6  C   UNL     1       1.153   9.330  20.246  0.00  0.00    +0.000 C 
ATOM      7  C   UNL     1       1.572   8.096  20.010  0.00  0.00    +0.000 C 
ATOM      8  C   UNL     1       1.434   7.259  21.222  0.00  0.00    +0.000 C 
ATOM      9  O   UNL     1       0.915   8.164  22.207  0.00  0.00    +0.000 OA
ATOM     10  C   UNL     1       0.752   9.396  21.648  0.00  0.00    +0.000 C 
ATOM     11  O   UNL     1       0.376  10.392  22.230  0.00  0.00    +0.000 OA
ENDROOT
BRANCH   1  16
ATOM     12  C   UNL     1       3.865   2.299  17.969  0.00  0.00    +0.000 C 
ATOM     13  C   UNL     1       3.443   3.725  18.182  0.00  0.00    +0.000 A 
ATOM     14  C   UNL     1       2.121   4.099  17.906  0.00  0.00    +0.000 A 
ATOM     15  C   UNL     1       1.697   5.413  18.108  0.00  0.00    +0.000 A 
ATOM     16  C   UNL     1       2.592   6.386  18.571  0.00  0.00    +0.000 A 
ATOM     17  C   UNL     1       3.912   6.026  18.849  0.00  0.00    +0.000 A 
ATOM     18  C   UNL     1       4.329   4.702  18.670  0.00  0.00    +0.000 A 
ATOM     19 CL   UNL     1       5.958   4.307  19.087  0.00  0.00    +0.000 Cl
ENDBRANCH   1  16
BRANCH   5  20
ATOM     20  C   UNL     1      -0.221  10.976  18.990  0.00  0.00    +0.000 A 
ATOM     21  C   UNL     1      -1.085  10.248  18.160  0.00  0.00    +0.000 A 
ATOM     22  C   UNL     1      -2.390  10.694  17.938  0.00  0.00    +0.000 A 
ATOM     23  C   UNL     1      -2.840  11.872  18.534  0.00  0.00    +0.000 A 
ATOM     24  C   UNL     1      -1.980  12.622  19.332  0.00  0.00    +0.000 A 
ATOM     25  C   UNL     1      -0.684  12.173  19.550  0.00  0.00    +0.000 A 
ATOM     26  F   UNL     1       0.125  12.898  20.337  0.00  0.00    +0.000 F 
ENDBRANCH   5  20
TORSDOF 2
ENDMDL
MODEL 5
REMARK VINA RESULT:      -8.2      0.920      1.318
REMARK  Name = 
REMARK  3 active torsions:
REMARK  status: ('A' for Active; 'I' for Inactive)
REMARK    1  A    between atoms: C_1  and  C_2
REMARK    2  A    between atoms: C_5  and  N_6
REMARK    3  A    between atoms: C_10  and  C_11
REMARK                            x       y       z     vdW  Elec       q    Type
REMARK                         _______ _______ _______ _____ _____    ______ ____
ROOT
ATOM      1  N   UNL     1       2.110   7.488  19.273  0.00  0.00    +0.000 N 
ATOM      2  C   UNL     1       2.725   8.065  18.149  0.00  0.00    +0.000 C 
ATOM      3  O   UNL     1       2.717   9.278  17.913  0.00  0.00    +0.000 OA
ATOM      4  C   UNL     1       3.423   7.156  17.148  0.00  0.00    +0.000 C 
ATOM      5  C   UNL     1       3.555   5.662  17.482  0.00  0.00    +0.000 C 
ATOM      6  C   UNL     1       2.786   5.290  18.683  0.00  0.00    +0.000 C 
ATOM      7  C   UNL     1       2.156   6.125  19.496  0.00  0.00    +0.000 C 
ATOM      8  C   UNL     1       1.462   5.382  20.570  0.00  0.00    +0.000 C 
ATOM      9  O   UNL     1       1.734   4.007  20.267  0.00  0.00    +0.000 OA
ATOM     10  C   UNL     1       2.509   3.934  19.148  0.00  0.00    +0.000 C 
ATOM     11  O   UNL     1       2.872   2.912  18.605  0.00  0.00    +0.000 OA
ENDROOT
BRANCH   1  16
ATOM     12  C   UNL     1      -0.748  10.928  22.887  0.00  0.00    +0.000 C 
ATOM     13  C   UNL     1      -0.003  10.052  21.919  0.00  0.00    +0.000 A 
ATOM     14  C   UNL     1       0.923   9.121  22.409  0.00  0.00    +0.000 A 
ATOM     15  C   UNL     1       1.618   8.283  21.535  0.00  0.00    +0.000 A 
ATOM     16  C   UNL     1       1.418   8.375  20.152  0.00  0.00    +0.000 A 
ATOM     17  C   UNL     1       0.499   9.300  19.652  0.00  0.00    +0.000 A 
ATOM     18  C   UNL     1      -0.217  10.120  20.532  0.00  0.00    +0.000 A 
ATOM     19 CL   UNL     1      -1.382  11.202  19.856  0.00  0.00    +0.000 Cl
ENDBRANCH   1  16
BRANCH   5  20
ATOM     20  C   UNL     1       5.016   5.271  17.589  0.00  0.00    +0.000 A 
ATOM     21  C   UNL     1       5.683   4.730  16.481  0.00  0.00    +0.000 A 
ATOM     22  C   UNL     1       7.046   4.433  16.555  0.00  0.00    +0.000 A 
ATOM     23  C   UNL     1       7.752   4.663  17.736  0.00  0.00    +0.000 A 
ATOM     24  C   UNL     1       7.092   5.168  18.855  0.00  0.00    +0.000 A 
ATOM     25  C   UNL     1       5.738   5.463  18.774  0.00  0.00    +0.000 A 
ATOM     26  F   UNL     1       5.123   5.964  19.855  0.00  0.00    +0.000 F 
ENDBRANCH   5  20
TORSDOF 2
ENDMDL
MODEL 6
REMARK VINA RESULT:      -7.9      2.715      4.345
REMARK  Name = 
REMARK  3 active torsions:
REMARK  status: ('A' for Active; 'I' for Inactive)
REMARK    1  A    between atoms: C_1  and  C_2
REMARK    2  A    between atoms: C_5  and  N_6
REMARK    3  A    between atoms: C_10  and  C_11
REMARK                            x       y       z     vdW  Elec       q    Type
REMARK                         _______ _______ _______ _____ _____    ______ ____
ROOT
ATOM      1  N   UNL     1       1.439   8.642  19.598  0.00  0.00    +0.000 N 
ATOM      2  C   UNL     1       1.033   8.070  20.816  0.00  0.00    +0.000 C 
ATOM      3  O   UNL     1       0.230   8.604  21.588  0.00  0.00    +0.000 OA
ATOM      4  C   UNL     1       1.624   6.729  21.229  0.00  0.00    +0.000 C 
ATOM      5  C   UNL     1       2.526   5.987  20.231  0.00  0.00    +0.000 C 
ATOM      6  C   UNL     1       2.847   6.810  19.052  0.00  0.00    +0.000 C 
ATOM      7  C   UNL     1       2.334   7.998  18.766  0.00  0.00    +0.000 C 
ATOM      8  C   UNL     1       2.925   8.534  17.521  0.00  0.00    +0.000 C 
ATOM      9  O   UNL     1       3.873   7.530  17.131  0.00  0.00    +0.000 OA
ATOM     10  C   UNL     1       3.845   6.508  18.030  0.00  0.00    +0.000 C 
ATOM     11  O   UNL     1       4.562   5.529  18.010  0.00  0.00    +0.000 OA
ENDROOT
BRANCH   1  16
ATOM     12  C   UNL     1      -0.742  13.845  18.489  0.00  0.00    +0.000 C 
ATOM     13  C   UNL     1      -0.185  12.474  18.752  0.00  0.00    +0.000 A 
ATOM     14  C   UNL     1       0.997  12.343  19.493  0.00  0.00    +0.000 A 
ATOM     15  C   UNL     1       1.530  11.082  19.765  0.00  0.00    +0.000 A 
ATOM     16  C   UNL     1       0.902   9.927  19.282  0.00  0.00    +0.000 A 
ATOM     17  C   UNL     1      -0.276  10.044  18.542  0.00  0.00    +0.000 A 
ATOM     18  C   UNL     1      -0.822  11.308  18.293  0.00  0.00    +0.000 A 
ATOM     19 CL   UNL     1      -2.312  11.384  17.422  0.00  0.00    +0.000 Cl
ENDBRANCH   1  16
BRANCH   5  20
ATOM     20  C   UNL     1       1.911   4.653  19.854  0.00  0.00    +0.000 A 
ATOM     21  C   UNL     1       1.436   4.440  18.552  0.00  0.00    +0.000 A 
ATOM     22  C   UNL     1       0.932   3.191  18.182  0.00  0.00    +0.000 A 
ATOM     23  C   UNL     1       0.888   2.149  19.108  0.00  0.00    +0.000 A 
ATOM     24  C   UNL     1       1.325   2.359  20.415  0.00  0.00    +0.000 A 
ATOM     25  C   UNL     1       1.826   3.602  20.776  0.00  0.00    +0.000 A 
ATOM     26  F   UNL     1       2.259   3.781  22.033  0.00  0.00    +0.000 F 
ENDBRANCH   5  20
TORSDOF 2
ENDMDL
MODEL 7
REMARK VINA RESULT:      -7.9      4.129      6.535
REMARK  Name = 
REMARK  3 active torsions:
REMARK  status: ('A' for Active; 'I' for Inactive)
REMARK    1  A    between atoms: C_1  and  C_2
REMARK    2  A    between atoms: C_5  and  N_6
REMARK    3  A    between atoms: C_10  and  C_11
REMARK                            x       y       z     vdW  Elec       q    Type
REMARK                         _______ _______ _______ _____ _____    ______ ____
ROOT
ATOM      1  N   UNL     1      -1.335  12.499  20.753  0.00  0.00    +0.000 N 
ATOM      2  C   UNL     1       0.023  12.699  21.054  0.00  0.00    +0.000 C 
ATOM      3  O   UNL     1       0.420  13.418  21.976  0.00  0.00    +0.000 OA
ATOM      4  C   UNL     1       1.073  12.016  20.189  0.00  0.00    +0.000 C 
ATOM      5  C   UNL     1       0.606  11.020  19.117  0.00  0.00    +0.000 C 
ATOM      6  C   UNL     1      -0.859  11.021  18.957  0.00  0.00    +0.000 C 
ATOM      7  C   UNL     1      -1.726  11.676  19.715  0.00  0.00    +0.000 C 
ATOM      8  C   UNL     1      -3.106  11.468  19.225  0.00  0.00    +0.000 C 
ATOM      9  O   UNL     1      -2.938  10.638  18.067  0.00  0.00    +0.000 OA
ATOM     10  C   UNL     1      -1.614  10.373  17.889  0.00  0.00    +0.000 C 
ATOM     11  O   UNL     1      -1.137   9.738  16.971  0.00  0.00    +0.000 OA
ENDROOT
BRANCH   1  16
ATOM     12  C   UNL     1      -5.026  15.460  24.019  0.00  0.00    +0.000 C 
ATOM     13  C   UNL     1      -4.077  14.658  23.175  0.00  0.00    +0.000 A 
ATOM     14  C   UNL     1      -3.485  15.255  22.053  0.00  0.00    +0.000 A 
ATOM     15  C   UNL     1      -2.588  14.540  21.258  0.00  0.00    +0.000 A 
ATOM     16  C   UNL     1      -2.281  13.207  21.555  0.00  0.00    +0.000 A 
ATOM     17  C   UNL     1      -2.865  12.600  22.670  0.00  0.00    +0.000 A 
ATOM     18  C   UNL     1      -3.744  13.327  23.481  0.00  0.00    +0.000 A 
ATOM     19 CL   UNL     1      -4.387  12.541  24.878  0.00  0.00    +0.000 Cl
ENDBRANCH   1  16
BRANCH   5  20
ATOM     20  C   UNL     1       1.153   9.636  19.408  0.00  0.00    +0.000 A 
ATOM     21  C   UNL     1       0.928   9.037  20.656  0.00  0.00    +0.000 A 
ATOM     22  C   UNL     1       1.371   7.736  20.902  0.00  0.00    +0.000 A 
ATOM     23  C   UNL     1       2.050   7.025  19.913  0.00  0.00    +0.000 A 
ATOM     24  C   UNL     1       2.311   7.622  18.681  0.00  0.00    +0.000 A 
ATOM     25  C   UNL     1       1.866   8.915  18.441  0.00  0.00    +0.000 A 
ATOM     26  F   UNL     1       2.110   9.468  17.244  0.00  0.00    +0.000 F 
ENDBRANCH   5  20
TORSDOF 2
ENDMDL
MODEL 8
REMARK VINA RESULT:      -7.8      2.418      3.907
REMARK  Name = 
REMARK  3 active torsions:
REMARK  status: ('A' for Active; 'I' for Inactive)
REMARK    1  A    between atoms: C_1  and  C_2
REMARK    2  A    between atoms: C_5  and  N_6
REMARK    3  A    between atoms: C_10  and  C_11
REMARK                            x       y       z     vdW  Elec       q    Type
REMARK                         _______ _______ _______ _____ _____    ______ ____
ROOT
ATOM      1  N   UNL     1       1.740   8.115  19.454  0.00  0.00    +0.000 N 
ATOM      2  C   UNL     1       1.411   7.465  20.655  0.00  0.00    +0.000 C 
ATOM      3  O   UNL     1       0.582   7.897  21.462  0.00  0.00    +0.000 OA
ATOM      4  C   UNL     1       2.125   6.166  21.004  0.00  0.00    +0.000 C 
ATOM      5  C   UNL     1       3.066   5.543  19.962  0.00  0.00    +0.000 C 
ATOM      6  C   UNL     1       3.289   6.435  18.810  0.00  0.00    +0.000 C 
ATOM      7  C   UNL     1       2.669   7.583  18.581  0.00  0.00    +0.000 C 
ATOM      8  C   UNL     1       3.185   8.216  17.347  0.00  0.00    +0.000 C 
ATOM      9  O   UNL     1       4.207   7.313  16.900  0.00  0.00    +0.000 OA
ATOM     10  C   UNL     1       4.288   6.259  17.760  0.00  0.00    +0.000 C 
ATOM     11  O   UNL     1       5.086   5.348  17.688  0.00  0.00    +0.000 OA
ENDROOT
BRANCH   1  16
ATOM     12  C   UNL     1      -0.925  13.135  18.587  0.00  0.00    +0.000 C 
ATOM     13  C   UNL     1      -0.238  11.813  18.783  0.00  0.00    +0.000 A 
ATOM     14  C   UNL     1       0.872  11.737  19.635  0.00  0.00    +0.000 A 
ATOM     15  C   UNL     1       1.522  10.521  19.849  0.00  0.00    +0.000 A 
ATOM     16  C   UNL     1       1.088   9.359  19.198  0.00  0.00    +0.000 A 
ATOM     17  C   UNL     1      -0.017   9.422  18.346  0.00  0.00    +0.000 A 
ATOM     18  C   UNL     1      -0.683  10.638  18.154  0.00  0.00    +0.000 A 
ATOM     19 CL   UNL     1      -2.078  10.639  17.134  0.00  0.00    +0.000 Cl
ENDBRANCH   1  16
BRANCH   5  20
ATOM     20  C   UNL     1       2.560   4.176  19.544  0.00  0.00    +0.000 A 
ATOM     21  C   UNL     1       1.215   4.000  19.191  0.00  0.00    +0.000 A 
ATOM     22  C   UNL     1       0.762   2.759  18.739  0.00  0.00    +0.000 A 
ATOM     23  C   UNL     1       1.642   1.681  18.645  0.00  0.00    +0.000 A 
ATOM     24  C   UNL     1       2.973   1.834  19.027  0.00  0.00    +0.000 A 
ATOM     25  C   UNL     1       3.418   3.071  19.473  0.00  0.00    +0.000 A 
ATOM     26  F   UNL     1       4.708   3.205  19.819  0.00  0.00    +0.000 F 
ENDBRANCH   5  20
TORSDOF 2
ENDMDL
MODEL 9
REMARK VINA RESULT:      -7.8      4.346      6.693
REMARK  Name = 
REMARK  3 active torsions:
REMARK  status: ('A' for Active; 'I' for Inactive)
REMARK    1  A    between atoms: C_1  and  C_2
REMARK    2  A    between atoms: C_5  and  N_6
REMARK    3  A    between atoms: C_10  and  C_11
REMARK                            x       y       z     vdW  Elec       q    Type
REMARK                         _______ _______ _______ _____ _____    ______ ____
ROOT
ATOM      1  N   UNL     1      -1.288  12.509  20.667  0.00  0.00    +0.000 N 
ATOM      2  C   UNL     1       0.084  12.693  20.911  0.00  0.00    +0.000 C 
ATOM      3  O   UNL     1       0.527  13.401  21.821  0.00  0.00    +0.000 OA
ATOM      4  C   UNL     1       1.089  12.005  19.998  0.00  0.00    +0.000 C 
ATOM      5  C   UNL     1       0.566  11.022  18.940  0.00  0.00    +0.000 C 
ATOM      6  C   UNL     1      -0.904  11.040  18.843  0.00  0.00    +0.000 C 
ATOM      7  C   UNL     1      -1.732  11.699  19.641  0.00  0.00    +0.000 C 
ATOM      8  C   UNL     1      -3.134  11.509  19.209  0.00  0.00    +0.000 C 
ATOM      9  O   UNL     1      -3.024  10.686  18.039  0.00  0.00    +0.000 OA
ATOM     10  C   UNL     1      -1.711  10.407  17.803  0.00  0.00    +0.000 C 
ATOM     11  O   UNL     1      -1.281   9.774  16.861  0.00  0.00    +0.000 OA
ENDROOT
BRANCH   1  16
ATOM     12  C   UNL     1      -4.801  15.480  24.115  0.00  0.00    +0.000 C 
ATOM     13  C   UNL     1      -3.899  14.677  23.222  0.00  0.00    +0.000 A 
ATOM     14  C   UNL     1      -3.293  15.298  22.121  0.00  0.00    +0.000 A 
ATOM     15  C   UNL     1      -2.439  14.580  21.282  0.00  0.00    +0.000 A 
ATOM     16  C   UNL     1      -2.191  13.222  21.513  0.00  0.00    +0.000 A 
ATOM     17  C   UNL     1      -2.790  12.591  22.606  0.00  0.00    +0.000 A 
ATOM     18  C   UNL     1      -3.626  13.319  23.461  0.00  0.00    +0.000 A 
ATOM     19 CL   UNL     1      -4.290  12.498  24.828  0.00  0.00    +0.000 Cl
ENDBRANCH   1  16
BRANCH   5  20
ATOM     20  C   UNL     1       1.109   9.630  19.198  0.00  0.00    +0.000 A 
ATOM     21  C   UNL     1       1.857   8.972  18.212  0.00  0.00    +0.000 A 
ATOM     22  C   UNL     1       2.417   7.719  18.471  0.00  0.00    +0.000 A 
ATOM     23  C   UNL     1       2.228   7.108  19.710  0.00  0.00    +0.000 A 
ATOM     24  C   UNL     1       1.457   7.735  20.686  0.00  0.00    +0.000 A 
ATOM     25  C   UNL     1       0.905   8.982  20.423  0.00  0.00    +0.000 A 
ATOM     26  F   UNL     1       0.180   9.580  21.381  0.00  0.00    +0.000 F 
ENDBRANCH   5  20
TORSDOF 2
ENDMDL
