MODEL 1
REMARK VINA RESULT:      -6.9      0.000      0.000
REMARK  Name = 
REMARK  2 active torsions:
REMARK  status: ('A' for Active; 'I' for Inactive)
REMARK    1  A    between atoms: C_2  and  C_3
REMARK    2  A    between atoms: N_23  and  C_24
REMARK                            x       y       z     vdW  Elec       q    Type
REMARK                         _______ _______ _______ _____ _____    ______ ____
ROOT
ATOM      1  O   UNL     1       8.892  10.885  21.961  0.00  0.00    +0.000 OA
ATOM      2  C   UNL     1       9.345  11.947  21.540  0.00  0.00    +0.000 C 
ATOM      3  N   UNL     1       9.155  13.176  22.188  0.00  0.00    +0.000 N 
ATOM      4  C   UNL     1       8.518  13.180  23.503  0.00  0.00    +0.000 C 
ATOM      5  C   UNL     1       7.351  14.162  23.578  0.00  0.00    +0.000 C 
ATOM      6  C   UNL     1       7.724  15.539  23.029  0.00  0.00    +0.000 C 
ATOM      7  C   UNL     1       8.385  15.461  21.636  0.00  0.00    +0.000 C 
ATOM      8  C   UNL     1       8.833  16.875  21.171  0.00  0.00    +0.000 C 
ATOM      9  C   UNL     1       7.915  17.226  19.998  0.00  0.00    +0.000 C 
ATOM     10  N   UNL     1       6.817  16.286  20.116  0.00  0.00    +0.000 N 
ATOM     11  C   UNL     1       5.624  16.583  19.492  0.00  0.00    +0.000 C 
ATOM     12  O   UNL     1       5.579  17.545  18.713  0.00  0.00    +0.000 OA
ATOM     13  N   UNL     1       4.479  15.843  19.766  0.00  0.00    +0.000 N 
ATOM     14  C   UNL     1       4.382  14.767  20.731  0.00  0.00    +0.000 C 
ATOM     15  C   UNL     1       3.347  14.818  21.835  0.00  0.00    +0.000 C 
ATOM     16  C   UNL     1       1.902  15.171  21.554  0.00  0.00    +0.000 C 
ATOM     17  N   UNL     1       1.384  15.084  20.199  0.00  0.00    +0.000 NA
ATOM     18  C   UNL     1       1.964  16.107  19.323  0.00  0.00    +0.000 C 
ATOM     19  C   UNL     1       3.395  15.936  18.781  0.00  0.00    +0.000 C 
ATOM     20  C   UNL     1       7.428  15.024  20.513  0.00  0.00    +0.000 C 
ATOM     21  C   UNL     1       9.556  14.493  21.698  0.00  0.00    +0.000 C 
ENDROOT
BRANCH   2  22
ATOM     22  C   UNL     1      10.080  11.894  20.234  0.00  0.00    +0.000 A 
ATOM     23  C   UNL     1       9.345  11.873  19.042  0.00  0.00    +0.000 A 
ATOM     24  C   UNL     1      10.004  11.940  17.812  0.00  0.00    +0.000 A 
ATOM     25  C   UNL     1      11.393  12.060  17.769  0.00  0.00    +0.000 A 
ATOM     26  C   UNL     1      12.132  12.021  18.948  0.00  0.00    +0.000 A 
ATOM     27  C   UNL     1      11.478  11.867  20.169  0.00  0.00    +0.000 A 
ENDBRANCH   2  22
BRANCH  17  28
ATOM     28  C   UNL     1       1.377  13.726  19.654  0.00  0.00    +0.000 C 
ATOM     29  C   UNL     1       0.491  12.821  20.557  0.00  0.00    +0.000 C 
ATOM     30  C   UNL     1      -0.121  12.248  19.267  0.00  0.00    +0.000 C 
ATOM     31  C   UNL     1       0.267  13.576  18.582  0.00  0.00    +0.000 C 
ENDBRANCH  17  28
TORSDOF 2
ENDMDL
MODEL 2
REMARK VINA RESULT:      -6.9      0.723      1.137
REMARK  Name = 
REMARK  2 active torsions:
REMARK  status: ('A' for Active; 'I' for Inactive)
REMARK    1  A    between atoms: C_2  and  C_3
REMARK    2  A    between atoms: N_23  and  C_24
REMARK                            x       y       z     vdW  Elec       q    Type
REMARK                         _______ _______ _______ _____ _____    ______ ____
ROOT
ATOM      1  O   UNL     1       8.721  11.192  22.058  0.00  0.00    +0.000 OA
ATOM      2  C   UNL     1       9.065  12.249  21.533  0.00  0.00    +0.000 C 
ATOM      3  N   UNL     1       8.746  13.509  22.060  0.00  0.00    +0.000 N 
ATOM      4  C   UNL     1       8.107  13.575  23.372  0.00  0.00    +0.000 C 
ATOM      5  C   UNL     1       6.844  14.434  23.359  0.00  0.00    +0.000 C 
ATOM      6  C   UNL     1       7.076  15.782  22.678  0.00  0.00    +0.000 C 
ATOM      7  C   UNL     1       7.748  15.638  21.295  0.00  0.00    +0.000 C 
ATOM      8  C   UNL     1       8.050  17.039  20.692  0.00  0.00    +0.000 C 
ATOM      9  C   UNL     1       7.106  17.179  19.496  0.00  0.00    +0.000 C 
ATOM     10  N   UNL     1       6.110  16.147  19.711  0.00  0.00    +0.000 N 
ATOM     11  C   UNL     1       4.896  16.258  19.067  0.00  0.00    +0.000 C 
ATOM     12  O   UNL     1       4.755  17.130  18.200  0.00  0.00    +0.000 OA
ATOM     13  N   UNL     1       3.832  15.434  19.419  0.00  0.00    +0.000 N 
ATOM     14  C   UNL     1       3.841  14.453  20.483  0.00  0.00    +0.000 C 
ATOM     15  C   UNL     1       2.802  14.503  21.583  0.00  0.00    +0.000 C 
ATOM     16  C   UNL     1       1.330  14.676  21.277  0.00  0.00    +0.000 C 
ATOM     17  N   UNL     1       0.829  14.407  19.940  0.00  0.00    +0.000 NA
ATOM     18  C   UNL     1       1.304  15.394  18.966  0.00  0.00    +0.000 C 
ATOM     19  C   UNL     1       2.748  15.319  18.435  0.00  0.00    +0.000 C 
ATOM     20  C   UNL     1       6.846  14.999  20.224  0.00  0.00    +0.000 C 
ATOM     21  C   UNL     1       9.012  14.807  21.443  0.00  0.00    +0.000 C 
ENDROOT
BRANCH   2  22
ATOM     22  C   UNL     1       9.807  12.146  20.235  0.00  0.00    +0.000 A 
ATOM     23  C   UNL     1      11.202  12.011  20.259  0.00  0.00    +0.000 A 
ATOM     24  C   UNL     1      11.904  11.798  19.071  0.00  0.00    +0.000 A 
ATOM     25  C   UNL     1      11.218  11.687  17.862  0.00  0.00    +0.000 A 
ATOM     26  C   UNL     1       9.840  11.881  17.825  0.00  0.00    +0.000 A 
ATOM     27  C   UNL     1       9.151  12.179  18.999  0.00  0.00    +0.000 A 
ENDBRANCH   2  22
BRANCH  17  28
ATOM     28  C   UNL     1       0.965  13.008  19.529  0.00  0.00    +0.000 C 
ATOM     29  C   UNL     1       0.255  12.101  20.574  0.00  0.00    +0.000 C 
ATOM     30  C   UNL     1      -0.353  11.328  19.391  0.00  0.00    +0.000 C 
ATOM     31  C   UNL     1      -0.178  12.615  18.556  0.00  0.00    +0.000 C 
ENDBRANCH  17  28
TORSDOF 2
ENDMDL
MODEL 3
REMARK VINA RESULT:      -6.9      5.545     11.297
REMARK  Name = 
REMARK  2 active torsions:
REMARK  status: ('A' for Active; 'I' for Inactive)
REMARK    1  A    between atoms: C_2  and  C_3
REMARK    2  A    between atoms: N_23  and  C_24
REMARK                            x       y       z     vdW  Elec       q    Type
REMARK                         _______ _______ _______ _____ _____    ______ ____
ROOT
ATOM      1  O   UNL     1      -5.898  15.207  19.821  0.00  0.00    +0.000 OA
ATOM      2  C   UNL     1      -5.658  14.181  20.456  0.00  0.00    +0.000 C 
ATOM      3  N   UNL     1      -5.026  14.181  21.707  0.00  0.00    +0.000 N 
ATOM      4  C   UNL     1      -4.775  15.463  22.362  0.00  0.00    +0.000 C 
ATOM      5  C   UNL     1      -3.321  15.610  22.808  0.00  0.00    +0.000 C 
ATOM      6  C   UNL     1      -2.829  14.380  23.571  0.00  0.00    +0.000 C 
ATOM      7  C   UNL     1      -3.121  13.063  22.820  0.00  0.00    +0.000 C 
ATOM      8  C   UNL     1      -2.691  11.843  23.681  0.00  0.00    +0.000 C 
ATOM      9  C   UNL     1      -1.491  11.234  22.953  0.00  0.00    +0.000 C 
ATOM     10  N   UNL     1      -1.064  12.279  22.042  0.00  0.00    +0.000 N 
ATOM     11  C   UNL     1       0.220  12.234  21.544  0.00  0.00    +0.000 C 
ATOM     12  O   UNL     1       0.907  11.223  21.745  0.00  0.00    +0.000 OA
ATOM     13  N   UNL     1       0.753  13.325  20.864  0.00  0.00    +0.000 N 
ATOM     14  C   UNL     1       0.089  14.595  20.658  0.00  0.00    +0.000 C 
ATOM     15  C   UNL     1       0.743  15.885  21.106  0.00  0.00    +0.000 C 
ATOM     16  C   UNL     1       2.193  16.190  20.795  0.00  0.00    +0.000 C 
ATOM     17  N   UNL     1       2.879  15.461  19.741  0.00  0.00    +0.000 NA
ATOM     18  C   UNL     1       3.092  14.055  20.095  0.00  0.00    +0.000 C 
ATOM     19  C   UNL     1       1.923  13.055  20.019  0.00  0.00    +0.000 C 
ATOM     20  C   UNL     1      -2.292  12.877  21.536  0.00  0.00    +0.000 C 
ATOM     21  C   UNL     1      -4.600  13.010  22.470  0.00  0.00    +0.000 C 
ENDROOT
BRANCH   2  22
ATOM     22  C   UNL     1      -6.018  12.883  19.798  0.00  0.00    +0.000 A 
ATOM     23  C   UNL     1      -5.198  12.390  18.774  0.00  0.00    +0.000 A 
ATOM     24  C   UNL     1      -5.446  11.130  18.225  0.00  0.00    +0.000 A 
ATOM     25  C   UNL     1      -6.490  10.346  18.715  0.00  0.00    +0.000 A 
ATOM     26  C   UNL     1      -7.344  10.856  19.689  0.00  0.00    +0.000 A 
ATOM     27  C   UNL     1      -7.147  12.147  20.175  0.00  0.00    +0.000 A 
ENDBRANCH   2  22
BRANCH  17  28
ATOM     28  C   UNL     1       2.325  15.691  18.405  0.00  0.00    +0.000 C 
ATOM     29  C   UNL     1       2.175  17.223  18.176  0.00  0.00    +0.000 C 
ATOM     30  C   UNL     1       2.776  17.003  16.776  0.00  0.00    +0.000 C 
ATOM     31  C   UNL     1       3.459  15.743  17.349  0.00  0.00    +0.000 C 
ENDBRANCH  17  28
TORSDOF 2
ENDMDL
MODEL 4
REMARK VINA RESULT:      -6.8      5.404      9.490
REMARK  Name = 
REMARK  2 active torsions:
REMARK  status: ('A' for Active; 'I' for Inactive)
REMARK    1  A    between atoms: C_2  and  C_3
REMARK    2  A    between atoms: N_23  and  C_24
REMARK                            x       y       z     vdW  Elec       q    Type
REMARK                         _______ _______ _______ _____ _____    ______ ____
ROOT
ATOM      1  O   UNL     1       1.784  13.418  17.970  0.00  0.00    +0.000 OA
ATOM      2  C   UNL     1       1.719  13.137  19.165  0.00  0.00    +0.000 C 
ATOM      3  N   UNL     1       1.208  11.922  19.644  0.00  0.00    +0.000 N 
ATOM      4  C   UNL     1       0.878  10.876  18.679  0.00  0.00    +0.000 C 
ATOM      5  C   UNL     1      -0.536  10.332  18.877  0.00  0.00    +0.000 C 
ATOM      6  C   UNL     1      -0.816   9.984  20.338  0.00  0.00    +0.000 C 
ATOM      7  C   UNL     1      -0.451  11.134  21.300  0.00  0.00    +0.000 C 
ATOM      8  C   UNL     1      -0.661  10.692  22.776  0.00  0.00    +0.000 C 
ATOM      9  C   UNL     1      -1.848  11.515  23.281  0.00  0.00    +0.000 C 
ATOM     10  N   UNL     1      -2.471  12.016  22.070  0.00  0.00    +0.000 N 
ATOM     11  C   UNL     1      -3.782  12.436  22.129  0.00  0.00    +0.000 C 
ATOM     12  O   UNL     1      -4.331  12.536  23.234  0.00  0.00    +0.000 OA
ATOM     13  N   UNL     1      -4.492  12.698  20.961  0.00  0.00    +0.000 N 
ATOM     14  C   UNL     1      -3.996  12.516  19.614  0.00  0.00    +0.000 C 
ATOM     15  C   UNL     1      -4.745  11.642  18.631  0.00  0.00    +0.000 C 
ATOM     16  C   UNL     1      -6.242  11.763  18.441  0.00  0.00    +0.000 C 
ATOM     17  N   UNL     1      -6.937  12.959  18.887  0.00  0.00    +0.000 NA
ATOM     18  C   UNL     1      -6.959  13.068  20.349  0.00  0.00    +0.000 C 
ATOM     19  C   UNL     1      -5.698  13.523  21.107  0.00  0.00    +0.000 C 
ATOM     20  C   UNL     1      -1.368  12.364  21.183  0.00  0.00    +0.000 C 
ATOM     21  C   UNL     1       0.987  11.558  21.042  0.00  0.00    +0.000 C 
ENDROOT
BRANCH   2  22
ATOM     22  C   UNL     1       2.159  14.197  20.130  0.00  0.00    +0.000 A 
ATOM     23  C   UNL     1       1.268  15.227  20.459  0.00  0.00    +0.000 A 
ATOM     24  C   UNL     1       1.610  16.160  21.441  0.00  0.00    +0.000 A 
ATOM     25  C   UNL     1       2.825  16.051  22.118  0.00  0.00    +0.000 A 
ATOM     26  C   UNL     1       3.738  15.066  21.752  0.00  0.00    +0.000 A 
ATOM     27  C   UNL     1       3.431  14.189  20.714  0.00  0.00    +0.000 A 
ENDBRANCH   2  22
BRANCH  17  28
ATOM     28  C   UNL     1      -6.537  14.175  18.177  0.00  0.00    +0.000 C 
ATOM     29  C   UNL     1      -6.859  14.007  16.664  0.00  0.00    +0.000 C 
ATOM     30  C   UNL     1      -7.430  15.436  16.697  0.00  0.00    +0.000 C 
ATOM     31  C   UNL     1      -7.681  15.221  18.204  0.00  0.00    +0.000 C 
ENDBRANCH  17  28
TORSDOF 2
ENDMDL
MODEL 5
REMARK VINA RESULT:      -6.5      1.375      1.762
REMARK  Name = 
REMARK  2 active torsions:
REMARK  status: ('A' for Active; 'I' for Inactive)
REMARK    1  A    between atoms: C_2  and  C_3
REMARK    2  A    between atoms: N_23  and  C_24
REMARK                            x       y       z     vdW  Elec       q    Type
REMARK                         _______ _______ _______ _____ _____    ______ ____
ROOT
ATOM      1  O   UNL     1       8.640  12.229  23.224  0.00  0.00    +0.000 OA
ATOM      2  C   UNL     1       8.893  13.004  22.305  0.00  0.00    +0.000 C 
ATOM      3  N   UNL     1       8.451  14.335  22.277  0.00  0.00    +0.000 N 
ATOM      4  C   UNL     1       7.788  14.875  23.461  0.00  0.00    +0.000 C 
ATOM      5  C   UNL     1       6.452  15.535  23.127  0.00  0.00    +0.000 C 
ATOM      6  C   UNL     1       6.569  16.500  21.947  0.00  0.00    +0.000 C 
ATOM      7  C   UNL     1       7.272  15.863  20.729  0.00  0.00    +0.000 C 
ATOM      8  C   UNL     1       7.454  16.914  19.599  0.00  0.00    +0.000 C 
ATOM      9  C   UNL     1       6.519  16.466  18.473  0.00  0.00    +0.000 C 
ATOM     10  N   UNL     1       5.619  15.527  19.116  0.00  0.00    +0.000 N 
ATOM     11  C   UNL     1       4.411  15.254  18.512  0.00  0.00    +0.000 C 
ATOM     12  O   UNL     1       4.204  15.677  17.367  0.00  0.00    +0.000 OA
ATOM     13  N   UNL     1       3.422  14.554  19.195  0.00  0.00    +0.000 N 
ATOM     14  C   UNL     1       3.505  14.101  20.568  0.00  0.00    +0.000 C 
ATOM     15  C   UNL     1       2.449  14.504  21.575  0.00  0.00    +0.000 C 
ATOM     16  C   UNL     1       0.972  14.403  21.260  0.00  0.00    +0.000 C 
ATOM     17  N   UNL     1       0.518  13.564  20.163  0.00  0.00    +0.000 NA
ATOM     18  C   UNL     1       0.916  14.103  18.859  0.00  0.00    +0.000 C 
ATOM     19  C   UNL     1       2.368  13.948  18.371  0.00  0.00    +0.000 C 
ATOM     20  C   UNL     1       6.450  14.762  20.037  0.00  0.00    +0.000 C 
ATOM     21  C   UNL     1       8.606  15.283  21.175  0.00  0.00    +0.000 C 
ENDROOT
BRANCH   2  22
ATOM     22  C   UNL     1       9.661  12.445  21.145  0.00  0.00    +0.000 A 
ATOM     23  C   UNL     1       9.191  11.286  20.515  0.00  0.00    +0.000 A 
ATOM     24  C   UNL     1       9.822  10.810  19.363  0.00  0.00    +0.000 A 
ATOM     25  C   UNL     1      10.902  11.506  18.820  0.00  0.00    +0.000 A 
ATOM     26  C   UNL     1      11.411  12.623  19.476  0.00  0.00    +0.000 A 
ATOM     27  C   UNL     1      10.833  13.046  20.671  0.00  0.00    +0.000 A 
ENDBRANCH   2  22
BRANCH  17  28
ATOM     28  C   UNL     1       0.789  12.139  20.358  0.00  0.00    +0.000 C 
ATOM     29  C   UNL     1      -0.120  11.602  21.501  0.00  0.00    +0.000 C 
ATOM     30  C   UNL     1      -0.408  10.383  20.607  0.00  0.00    +0.000 C 
ATOM     31  C   UNL     1      -0.081  11.285  19.398  0.00  0.00    +0.000 C 
ENDBRANCH  17  28
TORSDOF 2
ENDMDL
MODEL 6
REMARK VINA RESULT:      -6.3      1.720      7.996
REMARK  Name = 
REMARK  2 active torsions:
REMARK  status: ('A' for Active; 'I' for Inactive)
REMARK    1  A    between atoms: C_2  and  C_3
REMARK    2  A    between atoms: N_23  and  C_24
REMARK                            x       y       z     vdW  Elec       q    Type
REMARK                         _______ _______ _______ _____ _____    ______ ____
ROOT
ATOM      1  O   UNL     1       3.539  17.131  18.108  0.00  0.00    +0.000 OA
ATOM      2  C   UNL     1       3.274  16.542  19.154  0.00  0.00    +0.000 C 
ATOM      3  N   UNL     1       3.863  16.858  20.386  0.00  0.00    +0.000 N 
ATOM      4  C   UNL     1       4.721  18.039  20.467  0.00  0.00    +0.000 C 
ATOM      5  C   UNL     1       6.077  17.728  21.097  0.00  0.00    +0.000 C 
ATOM      6  C   UNL     1       5.937  16.933  22.394  0.00  0.00    +0.000 C 
ATOM      7  C   UNL     1       5.025  15.697  22.236  0.00  0.00    +0.000 C 
ATOM      8  C   UNL     1       4.838  14.984  23.604  0.00  0.00    +0.000 C 
ATOM      9  C   UNL     1       5.573  13.650  23.471  0.00  0.00    +0.000 C 
ATOM     10  N   UNL     1       6.425  13.831  22.311  0.00  0.00    +0.000 N 
ATOM     11  C   UNL     1       7.513  12.999  22.155  0.00  0.00    +0.000 C 
ATOM     12  O   UNL     1       7.633  12.022  22.906  0.00  0.00    +0.000 OA
ATOM     13  N   UNL     1       8.486  13.279  21.201  0.00  0.00    +0.000 N 
ATOM     14  C   UNL     1       8.511  14.443  20.340  0.00  0.00    +0.000 C 
ATOM     15  C   UNL     1       9.719  15.356  20.318  0.00  0.00    +0.000 C 
ATOM     16  C   UNL     1      11.126  14.808  20.212  0.00  0.00    +0.000 C 
ATOM     17  N   UNL     1      11.344  13.452  19.737  0.00  0.00    +0.000 NA
ATOM     18  C   UNL     1      10.863  12.451  20.694  0.00  0.00    +0.000 C 
ATOM     19  C   UNL     1       9.356  12.161  20.813  0.00  0.00    +0.000 C 
ATOM     20  C   UNL     1       5.623  14.586  21.356  0.00  0.00    +0.000 C 
ATOM     21  C   UNL     1       3.694  16.138  21.646  0.00  0.00    +0.000 C 
ENDROOT
BRANCH   2  22
ATOM     22  C   UNL     1       2.313  15.395  19.055  0.00  0.00    +0.000 A 
ATOM     23  C   UNL     1       0.939  15.650  19.157  0.00  0.00    +0.000 A 
ATOM     24  C   UNL     1       0.019  14.619  18.954  0.00  0.00    +0.000 A 
ATOM     25  C   UNL     1       0.465  13.340  18.619  0.00  0.00    +0.000 A 
ATOM     26  C   UNL     1       1.829  13.068  18.576  0.00  0.00    +0.000 A 
ATOM     27  C   UNL     1       2.745  14.078  18.864  0.00  0.00    +0.000 A 
ENDBRANCH   2  22
BRANCH  17  28
ATOM     28  C   UNL     1      10.932  13.238  18.349  0.00  0.00    +0.000 C 
ATOM     29  C   UNL     1      11.735  14.200  17.427  0.00  0.00    +0.000 C 
ATOM     30  C   UNL     1      11.945  13.006  16.479  0.00  0.00    +0.000 C 
ATOM     31  C   UNL     1      11.756  12.092  17.708  0.00  0.00    +0.000 C 
ENDBRANCH  17  28
TORSDOF 2
ENDMDL
MODEL 7
REMARK VINA RESULT:      -6.2      5.194      9.423
REMARK  Name = 
REMARK  2 active torsions:
REMARK  status: ('A' for Active; 'I' for Inactive)
REMARK    1  A    between atoms: C_2  and  C_3
REMARK    2  A    between atoms: N_23  and  C_24
REMARK                            x       y       z     vdW  Elec       q    Type
REMARK                         _______ _______ _______ _____ _____    ______ ____
ROOT
ATOM      1  O   UNL     1       1.715  14.124  18.410  0.00  0.00    +0.000 OA
ATOM      2  C   UNL     1       1.746  13.558  19.501  0.00  0.00    +0.000 C 
ATOM      3  N   UNL     1       1.234  12.270  19.715  0.00  0.00    +0.000 N 
ATOM      4  C   UNL     1       0.780  11.499  18.560  0.00  0.00    +0.000 C 
ATOM      5  C   UNL     1      -0.630  10.944  18.752  0.00  0.00    +0.000 C 
ATOM      6  C   UNL     1      -0.792  10.251  20.105  0.00  0.00    +0.000 C 
ATOM      7  C   UNL     1      -0.300  11.123  21.280  0.00  0.00    +0.000 C 
ATOM      8  C   UNL     1      -0.395  10.334  22.616  0.00  0.00    +0.000 C 
ATOM      9  C   UNL     1      -1.500  11.024  23.417  0.00  0.00    +0.000 C 
ATOM     10  N   UNL     1      -2.209  11.817  22.430  0.00  0.00    +0.000 N 
ATOM     11  C   UNL     1      -3.493  12.228  22.714  0.00  0.00    +0.000 C 
ATOM     12  O   UNL     1      -3.937  12.062  23.857  0.00  0.00    +0.000 OA
ATOM     13  N   UNL     1      -4.294  12.781  21.719  0.00  0.00    +0.000 N 
ATOM     14  C   UNL     1      -3.926  12.930  20.327  0.00  0.00    +0.000 C 
ATOM     15  C   UNL     1      -4.792  12.336  19.236  0.00  0.00    +0.000 C 
ATOM     16  C   UNL     1      -6.294  12.522  19.225  0.00  0.00    +0.000 C 
ATOM     17  N   UNL     1      -6.901  13.581  20.014  0.00  0.00    +0.000 NA
ATOM     18  C   UNL     1      -6.789  13.327  21.453  0.00  0.00    +0.000 C 
ATOM     19  C   UNL     1      -5.450  13.562  22.176  0.00  0.00    +0.000 C 
ATOM     20  C   UNL     1      -1.177  12.357  21.554  0.00  0.00    +0.000 C 
ATOM     21  C   UNL     1       1.124  11.576  20.996  0.00  0.00    +0.000 C 
ENDROOT
BRANCH   2  22
ATOM     22  C   UNL     1       2.309  14.341  20.649  0.00  0.00    +0.000 A 
ATOM     23  C   UNL     1       3.672  14.217  20.951  0.00  0.00    +0.000 A 
ATOM     24  C   UNL     1       4.245  15.021  21.939  0.00  0.00    +0.000 A 
ATOM     25  C   UNL     1       3.470  15.969  22.607  0.00  0.00    +0.000 A 
ATOM     26  C   UNL     1       2.104  16.053  22.354  0.00  0.00    +0.000 A 
ATOM     27  C   UNL     1       1.517  15.191  21.429  0.00  0.00    +0.000 A 
ENDBRANCH   2  22
BRANCH  17  28
ATOM     28  C   UNL     1      -6.520  14.929  19.587  0.00  0.00    +0.000 C 
ATOM     29  C   UNL     1      -6.903  15.114  18.090  0.00  0.00    +0.000 C 
ATOM     30  C   UNL     1      -7.461  16.495  18.474  0.00  0.00    +0.000 C 
ATOM     31  C   UNL     1      -7.655  15.939  19.901  0.00  0.00    +0.000 C 
ENDBRANCH  17  28
TORSDOF 2
ENDMDL
MODEL 8
REMARK VINA RESULT:      -6.0      1.846      7.980
REMARK  Name = 
REMARK  2 active torsions:
REMARK  status: ('A' for Active; 'I' for Inactive)
REMARK    1  A    between atoms: C_2  and  C_3
REMARK    2  A    between atoms: N_23  and  C_24
REMARK                            x       y       z     vdW  Elec       q    Type
REMARK                         _______ _______ _______ _____ _____    ______ ____
ROOT
ATOM      1  O   UNL     1       3.397  16.850  19.961  0.00  0.00    +0.000 OA
ATOM      2  C   UNL     1       3.307  16.089  20.923  0.00  0.00    +0.000 C 
ATOM      3  N   UNL     1       4.091  16.212  22.078  0.00  0.00    +0.000 N 
ATOM      4  C   UNL     1       4.950  17.386  22.216  0.00  0.00    +0.000 C 
ATOM      5  C   UNL     1       6.392  17.013  22.556  0.00  0.00    +0.000 C 
ATOM      6  C   UNL     1       6.467  16.010  23.707  0.00  0.00    +0.000 C 
ATOM      7  C   UNL     1       5.541  14.793  23.493  0.00  0.00    +0.000 C 
ATOM      8  C   UNL     1       5.582  13.858  24.734  0.00  0.00    +0.000 C 
ATOM      9  C   UNL     1       6.285  12.585  24.261  0.00  0.00    +0.000 C 
ATOM     10  N   UNL     1       6.934  12.979  23.024  0.00  0.00    +0.000 N 
ATOM     11  C   UNL     1       7.982  12.216  22.557  0.00  0.00    +0.000 C 
ATOM     12  O   UNL     1       8.223  11.131  23.103  0.00  0.00    +0.000 OA
ATOM     13  N   UNL     1       8.784  12.677  21.518  0.00  0.00    +0.000 N 
ATOM     14  C   UNL     1       8.668  13.967  20.873  0.00  0.00    +0.000 C 
ATOM     15  C   UNL     1       9.856  14.904  20.810  0.00  0.00    +0.000 C 
ATOM     16  C   UNL     1      11.226  14.421  20.386  0.00  0.00    +0.000 C 
ATOM     17  N   UNL     1      11.363  13.169  19.661  0.00  0.00    +0.000 NA
ATOM     18  C   UNL     1      11.046  12.010  20.501  0.00  0.00    +0.000 C 
ATOM     19  C   UNL     1       9.578  11.663  20.812  0.00  0.00    +0.000 C 
ATOM     20  C   UNL     1       5.986  13.860  22.353  0.00  0.00    +0.000 C 
ATOM     21  C   UNL     1       4.131  15.288  23.209  0.00  0.00    +0.000 C 
ENDROOT
BRANCH   2  22
ATOM     22  C   UNL     1       2.343  14.948  20.790  0.00  0.00    +0.000 A 
ATOM     23  C   UNL     1       1.067  15.068  21.356  0.00  0.00    +0.000 A 
ATOM     24  C   UNL     1       0.113  14.070  21.148  0.00  0.00    +0.000 A 
ATOM     25  C   UNL     1       0.417  12.966  20.351  0.00  0.00    +0.000 A 
ATOM     26  C   UNL     1       1.701  12.813  19.836  0.00  0.00    +0.000 A 
ATOM     27  C   UNL     1       2.677  13.768  20.116  0.00  0.00    +0.000 A 
ENDBRANCH   2  22
BRANCH  17  28
ATOM     28  C   UNL     1      10.728  13.177  18.342  0.00  0.00    +0.000 C 
ATOM     29  C   UNL     1      11.303  14.358  17.508  0.00  0.00    +0.000 C 
ATOM     30  C   UNL     1      11.411  13.381  16.325  0.00  0.00    +0.000 C 
ATOM     31  C   UNL     1      11.491  12.244  17.366  0.00  0.00    +0.000 C 
ENDBRANCH  17  28
TORSDOF 2
ENDMDL
MODEL 9
REMARK VINA RESULT:      -6.0      1.240      1.643
REMARK  Name = 
REMARK  2 active torsions:
REMARK  status: ('A' for Active; 'I' for Inactive)
REMARK    1  A    between atoms: C_2  and  C_3
REMARK    2  A    between atoms: N_23  and  C_24
REMARK                            x       y       z     vdW  Elec       q    Type
REMARK                         _______ _______ _______ _____ _____    ______ ____
ROOT
ATOM      1  O   UNL     1       8.950  10.711  19.975  0.00  0.00    +0.000 OA
ATOM      2  C   UNL     1       9.499  11.791  20.179  0.00  0.00    +0.000 C 
ATOM      3  N   UNL     1       9.374  12.503  21.381  0.00  0.00    +0.000 N 
ATOM      4  C   UNL     1       8.683  11.867  22.500  0.00  0.00    +0.000 C 
ATOM      5  C   UNL     1       7.590  12.757  23.088  0.00  0.00    +0.000 C 
ATOM      6  C   UNL     1       8.089  14.178  23.351  0.00  0.00    +0.000 C 
ATOM      7  C   UNL     1       8.801  14.791  22.127  0.00  0.00    +0.000 C 
ATOM      8  C   UNL     1       9.374  16.192  22.480  0.00  0.00    +0.000 C 
ATOM      9  C   UNL     1       8.537  17.188  21.675  0.00  0.00    +0.000 C 
ATOM     10  N   UNL     1       7.367  16.427  21.280  0.00  0.00    +0.000 N 
ATOM     11  C   UNL     1       6.228  17.111  20.912  0.00  0.00    +0.000 C 
ATOM     12  O   UNL     1       6.289  18.338  20.762  0.00  0.00    +0.000 OA
ATOM     13  N   UNL     1       5.020  16.439  20.756  0.00  0.00    +0.000 N 
ATOM     14  C   UNL     1       4.801  15.030  21.004  0.00  0.00    +0.000 C 
ATOM     15  C   UNL     1       3.726  14.579  21.970  0.00  0.00    +0.000 C 
ATOM     16  C   UNL     1       2.325  15.150  21.923  0.00  0.00    +0.000 C 
ATOM     17  N   UNL     1       1.861  15.838  20.730  0.00  0.00    +0.000 NA
ATOM     18  C   UNL     1       2.553  17.114  20.528  0.00  0.00    +0.000 C 
ATOM     19  C   UNL     1       3.989  17.132  19.973  0.00  0.00    +0.000 C 
ATOM     20  C   UNL     1       7.864  15.098  20.945  0.00  0.00    +0.000 C 
ATOM     21  C   UNL     1       9.893  13.840  21.662  0.00  0.00    +0.000 C 
ENDROOT
BRANCH   2  22
ATOM     22  C   UNL     1      10.284  12.373  19.042  0.00  0.00    +0.000 A 
ATOM     23  C   UNL     1      11.617  11.979  18.865  0.00  0.00    +0.000 A 
ATOM     24  C   UNL     1      12.333  12.416  17.749  0.00  0.00    +0.000 A 
ATOM     25  C   UNL     1      11.715  13.221  16.791  0.00  0.00    +0.000 A 
ATOM     26  C   UNL     1      10.411  13.664  16.993  0.00  0.00    +0.000 A 
ATOM     27  C   UNL     1       9.727  13.297  18.150  0.00  0.00    +0.000 A 
ENDBRANCH   2  22
BRANCH  17  28
ATOM     28  C   UNL     1       1.776  14.979  19.548  0.00  0.00    +0.000 C 
ATOM     29  C   UNL     1       1.048  13.658  19.931  0.00  0.00    +0.000 C 
ATOM     30  C   UNL     1       0.243  13.803  18.627  0.00  0.00    +0.000 C 
ATOM     31  C   UNL     1       0.511  15.321  18.718  0.00  0.00    +0.000 C 
ENDBRANCH  17  28
TORSDOF 2
ENDMDL
