MODEL 1
REMARK VINA RESULT:      -8.3      0.000      0.000
REMARK  Name = 
REMARK  8 active torsions:
REMARK  status: ('A' for Active; 'I' for Inactive)
REMARK    1  A    between atoms: C_2  and  C_3
REMARK    2  A    between atoms: C_3  and  C_4
REMARK    3  A    between atoms: C_3  and  N_8
REMARK    4  A    between atoms: C_4  and  C_5
REMARK    5  A    between atoms: C_9  and  C_11
REMARK    6  A    between atoms: N_15  and  S_16
REMARK    7  A    between atoms: S_16  and  C_19
REMARK    8  A    between atoms: C_22  and  C_23
REMARK                            x       y       z     vdW  Elec       q    Type
REMARK                         _______ _______ _______ _____ _____    ______ ____
ROOT
ATOM      1  C   UNL     1       4.745   4.543  16.554  0.00  0.00    +0.000 C 
ATOM      2  C   UNL     1       5.240   3.260  15.906  0.00  0.00    +0.000 C 
ATOM      3  C   UNL     1       6.062   3.786  14.738  0.00  0.00    +0.000 C 
ATOM      4  C   UNL     1       6.562   5.171  15.172  0.00  0.00    +0.000 C 
ATOM      5  N   UNL     1       5.957   5.432  16.530  0.00  0.00    +0.000 NA
ENDROOT
BRANCH   1   7
ATOM      6  N   UNL     1       4.311   3.204  18.540  0.00  0.00    +0.000 N 
ATOM      7  C   UNL     1       3.961   4.348  17.848  0.00  0.00    +0.000 C 
ATOM      8  O   UNL     1       3.172   5.175  18.297  0.00  0.00    +0.000 OA
ATOM      9  H   UNL     1       4.983   2.570  18.125  0.00  0.00    +0.000 HD
BRANCH   6  10
ATOM     10  C   UNL     1       3.744   2.877  19.860  0.00  0.00    +0.000 C 
BRANCH  10  12
ATOM     11  N   UNL     1       5.417   1.293  21.158  0.00  0.00    +0.000 NA
ATOM     12  C   UNL     1       4.678   1.962  20.555  0.00  0.00    +0.000 C 
ENDBRANCH  10  12
BRANCH  10  13
ATOM     13  C   UNL     1       2.351   2.252  19.726  0.00  0.00    +0.000 C 
BRANCH  13  14
ATOM     14  C   UNL     1       1.404   2.772  20.784  0.00  0.00    +0.000 C 
ATOM     15  N   UNL     1       0.484   3.675  20.338  0.00  0.00    +0.000 N 
ATOM     16  O   UNL     1       1.413   2.421  21.956  0.00  0.00    +0.000 OA
ATOM     17  H   UNL     1       0.610   4.193  19.479  0.00  0.00    +0.000 HD
ATOM     18  H   UNL     1      -0.126   4.082  21.040  0.00  0.00    +0.000 HD
ENDBRANCH  13  14
ENDBRANCH  10  13
ENDBRANCH   6  10
ENDBRANCH   1   7
BRANCH   5  19
ATOM     19  S   UNL     1       7.078   5.241  17.823  0.00  0.00    +0.000 S 
ATOM     20  O   UNL     1       6.340   4.935  19.029  0.00  0.00    +0.000 OA
ATOM     21  O   UNL     1       8.163   4.393  17.379  0.00  0.00    +0.000 OA
BRANCH  19  22
ATOM     22  C   UNL     1       7.720   6.891  18.046  0.00  0.00    +0.000 A 
ATOM     23  C   UNL     1       7.294   7.905  17.185  0.00  0.00    +0.000 A 
ATOM     24  C   UNL     1       7.735   9.222  17.373  0.00  0.00    +0.000 A 
ATOM     25  C   UNL     1       8.597   9.570  18.430  0.00  0.00    +0.000 A 
ATOM     26  C   UNL     1       8.977   8.530  19.304  0.00  0.00    +0.000 A 
ATOM     27  C   UNL     1       8.546   7.205  19.123  0.00  0.00    +0.000 A 
BRANCH  25  28
ATOM     28  C   UNL     1       9.103  10.961  18.598  0.00  0.00    +0.000 A 
ATOM     29  C   UNL     1       9.950  11.327  19.664  0.00  0.00    +0.000 A 
ATOM     30  C   UNL     1      10.364  12.653  19.855  0.00  0.00    +0.000 A 
ATOM     31  C   UNL     1       9.955  13.642  18.968  0.00  0.00    +0.000 A 
ATOM     32 CL   UNL     1      10.434  15.275  19.214  0.00  0.00    +0.000 Cl
ATOM     33  C   UNL     1       9.147  13.313  17.887  0.00  0.00    +0.000 A 
ATOM     34  C   UNL     1       8.725  11.988  17.710  0.00  0.00    +0.000 A 
ENDBRANCH  25  28
ENDBRANCH  19  22
ENDBRANCH   5  19
TORSDOF 8
ENDMDL
MODEL 2
REMARK VINA RESULT:      -7.9      5.662      7.660
REMARK  Name = 
REMARK  8 active torsions:
REMARK  status: ('A' for Active; 'I' for Inactive)
REMARK    1  A    between atoms: C_2  and  C_3
REMARK    2  A    between atoms: C_3  and  C_4
REMARK    3  A    between atoms: C_3  and  N_8
REMARK    4  A    between atoms: C_4  and  C_5
REMARK    5  A    between atoms: C_9  and  C_11
REMARK    6  A    between atoms: N_15  and  S_16
REMARK    7  A    between atoms: S_16  and  C_19
REMARK    8  A    between atoms: C_22  and  C_23
REMARK                            x       y       z     vdW  Elec       q    Type
REMARK                         _______ _______ _______ _____ _____    ______ ____
ROOT
ATOM      1  C   UNL     1       4.398   4.209  19.527  0.00  0.00    +0.000 C 
ATOM      2  C   UNL     1       3.728   3.153  18.662  0.00  0.00    +0.000 C 
ATOM      3  C   UNL     1       2.365   3.013  19.323  0.00  0.00    +0.000 C 
ATOM      4  C   UNL     1       2.080   4.372  19.980  0.00  0.00    +0.000 C 
ATOM      5  N   UNL     1       3.307   5.220  19.746  0.00  0.00    +0.000 NA
ENDROOT
BRANCH   1   7
ATOM      6  N   UNL     1       5.969   4.480  17.687  0.00  0.00    +0.000 N 
ATOM      7  C   UNL     1       5.774   4.657  19.044  0.00  0.00    +0.000 C 
ATOM      8  O   UNL     1       6.596   5.223  19.758  0.00  0.00    +0.000 OA
ATOM      9  H   UNL     1       5.244   4.023  17.146  0.00  0.00    +0.000 HD
BRANCH   6  10
ATOM     10  C   UNL     1       7.190   4.935  17.000  0.00  0.00    +0.000 C 
BRANCH  10  12
ATOM     11  N   UNL     1       7.440   7.549  17.306  0.00  0.00    +0.000 NA
ATOM     12  C   UNL     1       7.330   6.393  17.213  0.00  0.00    +0.000 C 
ENDBRANCH  10  12
BRANCH  10  13
ATOM     13  C   UNL     1       7.144   4.594  15.505  0.00  0.00    +0.000 C 
BRANCH  13  14
ATOM     14  C   UNL     1       5.789   4.898  14.907  0.00  0.00    +0.000 C 
ATOM     15  N   UNL     1       5.377   4.024  13.945  0.00  0.00    +0.000 N 
ATOM     16  O   UNL     1       5.075   5.833  15.246  0.00  0.00    +0.000 OA
ATOM     17  H   UNL     1       6.023   3.427  13.447  0.00  0.00    +0.000 HD
ATOM     18  H   UNL     1       4.496   4.239  13.488  0.00  0.00    +0.000 HD
ENDBRANCH  13  14
ENDBRANCH  10  13
ENDBRANCH   6  10
ENDBRANCH   1   7
BRANCH   5  19
ATOM     19  S   UNL     1       3.093   6.402  18.513  0.00  0.00    +0.000 S 
ATOM     20  O   UNL     1       4.376   7.005  18.226  0.00  0.00    +0.000 OA
ATOM     21  O   UNL     1       2.286   5.832  17.455  0.00  0.00    +0.000 OA
BRANCH  19  22
ATOM     22  C   UNL     1       2.128   7.663  19.327  0.00  0.00    +0.000 A 
ATOM     23  C   UNL     1       1.726   8.784  18.596  0.00  0.00    +0.000 A 
ATOM     24  C   UNL     1       0.916   9.762  19.192  0.00  0.00    +0.000 A 
ATOM     25  C   UNL     1       0.473   9.644  20.522  0.00  0.00    +0.000 A 
ATOM     26  C   UNL     1       0.864   8.482  21.219  0.00  0.00    +0.000 A 
ATOM     27  C   UNL     1       1.679   7.498  20.634  0.00  0.00    +0.000 A 
BRANCH  25  28
ATOM     28  C   UNL     1      -0.346  10.709  21.168  0.00  0.00    +0.000 A 
ATOM     29  C   UNL     1      -0.686  11.902  20.498  0.00  0.00    +0.000 A 
ATOM     30  C   UNL     1      -1.397  12.929  21.137  0.00  0.00    +0.000 A 
ATOM     31  C   UNL     1      -1.802  12.774  22.458  0.00  0.00    +0.000 A 
ATOM     32 CL   UNL     1      -2.646  14.041  23.256  0.00  0.00    +0.000 Cl
ATOM     33  C   UNL     1      -1.513  11.598  23.138  0.00  0.00    +0.000 A 
ATOM     34  C   UNL     1      -0.790  10.582  22.499  0.00  0.00    +0.000 A 
ENDBRANCH  25  28
ENDBRANCH  19  22
ENDBRANCH   5  19
TORSDOF 8
ENDMDL
MODEL 3
REMARK VINA RESULT:      -7.9      1.242      1.569
REMARK  Name = 
REMARK  8 active torsions:
REMARK  status: ('A' for Active; 'I' for Inactive)
REMARK    1  A    between atoms: C_2  and  C_3
REMARK    2  A    between atoms: C_3  and  C_4
REMARK    3  A    between atoms: C_3  and  N_8
REMARK    4  A    between atoms: C_4  and  C_5
REMARK    5  A    between atoms: C_9  and  C_11
REMARK    6  A    between atoms: N_15  and  S_16
REMARK    7  A    between atoms: S_16  and  C_19
REMARK    8  A    between atoms: C_22  and  C_23
REMARK                            x       y       z     vdW  Elec       q    Type
REMARK                         _______ _______ _______ _____ _____    ______ ____
ROOT
ATOM      1  C   UNL     1       4.577   5.197  16.516  0.00  0.00    +0.000 C 
ATOM      2  C   UNL     1       4.715   3.766  16.018  0.00  0.00    +0.000 C 
ATOM      3  C   UNL     1       5.598   3.936  14.791  0.00  0.00    +0.000 C 
ATOM      4  C   UNL     1       6.442   5.192  15.057  0.00  0.00    +0.000 C 
ATOM      5  N   UNL     1       5.970   5.745  16.379  0.00  0.00    +0.000 NA
ENDROOT
BRANCH   1   7
ATOM      6  N   UNL     1       3.625   4.157  18.500  0.00  0.00    +0.000 N 
ATOM      7  C   UNL     1       3.817   5.350  17.829  0.00  0.00    +0.000 C 
ATOM      8  O   UNL     1       3.498   6.433  18.309  0.00  0.00    +0.000 OA
ATOM      9  H   UNL     1       3.928   3.295  18.060  0.00  0.00    +0.000 HD
BRANCH   6  10
ATOM     10  C   UNL     1       2.999   4.093  19.832  0.00  0.00    +0.000 C 
BRANCH  10  12
ATOM     11  N   UNL     1       4.054   2.086  21.193  0.00  0.00    +0.000 NA
ATOM     12  C   UNL     1       3.575   2.943  20.564  0.00  0.00    +0.000 C 
ENDBRANCH  10  12
BRANCH  10  13
ATOM     13  C   UNL     1       1.474   3.974  19.723  0.00  0.00    +0.000 C 
BRANCH  13  14
ATOM     14  C   UNL     1       1.062   3.247  18.462  0.00  0.00    +0.000 C 
ATOM     15  N   UNL     1       0.685   1.949  18.644  0.00  0.00    +0.000 N 
ATOM     16  O   UNL     1       1.034   3.753  17.348  0.00  0.00    +0.000 OA
ATOM     17  H   UNL     1       0.952   1.421  19.463  0.00  0.00    +0.000 HD
ATOM     18  H   UNL     1       0.459   1.423  17.806  0.00  0.00    +0.000 HD
ENDBRANCH  13  14
ENDBRANCH  10  13
ENDBRANCH   6  10
ENDBRANCH   1   7
BRANCH   5  19
ATOM     19  S   UNL     1       7.054   5.425  17.678  0.00  0.00    +0.000 S 
ATOM     20  O   UNL     1       6.280   5.079  18.850  0.00  0.00    +0.000 OA
ATOM     21  O   UNL     1       8.110   4.557  17.202  0.00  0.00    +0.000 OA
BRANCH  19  22
ATOM     22  C   UNL     1       7.765   7.027  18.014  0.00  0.00    +0.000 A 
ATOM     23  C   UNL     1       7.455   8.095  17.169  0.00  0.00    +0.000 A 
ATOM     24  C   UNL     1       7.949   9.378  17.442  0.00  0.00    +0.000 A 
ATOM     25  C   UNL     1       8.751   9.637  18.569  0.00  0.00    +0.000 A 
ATOM     26  C   UNL     1       9.013   8.545  19.424  0.00  0.00    +0.000 A 
ATOM     27  C   UNL     1       8.527   7.254  19.157  0.00  0.00    +0.000 A 
BRANCH  25  28
ATOM     28  C   UNL     1       9.316  10.991  18.830  0.00  0.00    +0.000 A 
ATOM     29  C   UNL     1       9.181  12.049  17.908  0.00  0.00    +0.000 A 
ATOM     30  C   UNL     1       9.777  13.300  18.129  0.00  0.00    +0.000 A 
ATOM     31  C   UNL     1      10.504  13.526  19.292  0.00  0.00    +0.000 A 
ATOM     32 CL   UNL     1      11.261  15.046  19.555  0.00  0.00    +0.000 Cl
ATOM     33  C   UNL     1      10.630  12.516  20.239  0.00  0.00    +0.000 A 
ATOM     34  C   UNL     1      10.044  11.264  20.005  0.00  0.00    +0.000 A 
ENDBRANCH  25  28
ENDBRANCH  19  22
ENDBRANCH   5  19
TORSDOF 8
ENDMDL
MODEL 4
REMARK VINA RESULT:      -7.8      1.024      1.606
REMARK  Name = 
REMARK  8 active torsions:
REMARK  status: ('A' for Active; 'I' for Inactive)
REMARK    1  A    between atoms: C_2  and  C_3
REMARK    2  A    between atoms: C_3  and  C_4
REMARK    3  A    between atoms: C_3  and  N_8
REMARK    4  A    between atoms: C_4  and  C_5
REMARK    5  A    between atoms: C_9  and  C_11
REMARK    6  A    between atoms: N_15  and  S_16
REMARK    7  A    between atoms: S_16  and  C_19
REMARK    8  A    between atoms: C_22  and  C_23
REMARK                            x       y       z     vdW  Elec       q    Type
REMARK                         _______ _______ _______ _____ _____    ______ ____
ROOT
ATOM      1  C   UNL     1       4.708   4.437  16.095  0.00  0.00    +0.000 C 
ATOM      2  C   UNL     1       5.272   3.259  15.315  0.00  0.00    +0.000 C 
ATOM      3  C   UNL     1       6.140   3.949  14.273  0.00  0.00    +0.000 C 
ATOM      4  C   UNL     1       6.579   5.276  14.911  0.00  0.00    +0.000 C 
ATOM      5  N   UNL     1       5.896   5.345  16.255  0.00  0.00    +0.000 NA
ENDROOT
BRANCH   1   7
ATOM      6  N   UNL     1       3.995   2.736  17.684  0.00  0.00    +0.000 N 
ATOM      7  C   UNL     1       3.862   4.059  17.307  0.00  0.00    +0.000 C 
ATOM      8  O   UNL     1       3.208   4.867  17.960  0.00  0.00    +0.000 OA
ATOM      9  H   UNL     1       4.566   2.121  17.115  0.00  0.00    +0.000 HD
BRANCH   6  10
ATOM     10  C   UNL     1       3.341   2.189  18.885  0.00  0.00    +0.000 C 
BRANCH  10  12
ATOM     11  N   UNL     1       0.722   2.282  18.530  0.00  0.00    +0.000 NA
ATOM     12  C   UNL     1       1.877   2.203  18.667  0.00  0.00    +0.000 C 
ENDBRANCH  10  12
BRANCH  10  13
ATOM     13  C   UNL     1       3.723   2.987  20.137  0.00  0.00    +0.000 C 
BRANCH  13  14
ATOM     14  C   UNL     1       2.536   3.189  21.052  0.00  0.00    +0.000 C 
ATOM     15  N   UNL     1       1.836   4.340  20.838  0.00  0.00    +0.000 N 
ATOM     16  O   UNL     1       2.183   2.397  21.915  0.00  0.00    +0.000 OA
ATOM     17  H   UNL     1       2.235   5.131  20.351  0.00  0.00    +0.000 HD
ATOM     18  H   UNL     1       1.069   4.526  21.476  0.00  0.00    +0.000 HD
ENDBRANCH  13  14
ENDBRANCH  10  13
ENDBRANCH   6  10
ENDBRANCH   1   7
BRANCH   5  19
ATOM     19  S   UNL     1       6.951   5.008  17.574  0.00  0.00    +0.000 S 
ATOM     20  O   UNL     1       6.151   4.635  18.719  0.00  0.00    +0.000 OA
ATOM     21  O   UNL     1       8.024   4.157  17.107  0.00  0.00    +0.000 OA
BRANCH  19  22
ATOM     22  C   UNL     1       7.640   6.610  17.957  0.00  0.00    +0.000 A 
ATOM     23  C   UNL     1       7.322   7.696  17.138  0.00  0.00    +0.000 A 
ATOM     24  C   UNL     1       7.800   8.977  17.449  0.00  0.00    +0.000 A 
ATOM     25  C   UNL     1       8.591   9.215  18.588  0.00  0.00    +0.000 A 
ATOM     26  C   UNL     1       8.859   8.104  19.415  0.00  0.00    +0.000 A 
ATOM     27  C   UNL     1       8.391   6.815  19.111  0.00  0.00    +0.000 A 
BRANCH  25  28
ATOM     28  C   UNL     1       9.137  10.568  18.889  0.00  0.00    +0.000 A 
ATOM     29  C   UNL     1       9.252  11.567  17.899  0.00  0.00    +0.000 A 
ATOM     30  C   UNL     1       9.833  12.813  18.174  0.00  0.00    +0.000 A 
ATOM     31  C   UNL     1      10.294  13.096  19.455  0.00  0.00    +0.000 A 
ATOM     32 CL   UNL     1      11.035  14.611  19.791  0.00  0.00    +0.000 Cl
ATOM     33  C   UNL     1      10.167  12.149  20.463  0.00  0.00    +0.000 A 
ATOM     34  C   UNL     1       9.599  10.899  20.178  0.00  0.00    +0.000 A 
ENDBRANCH  25  28
ENDBRANCH  19  22
ENDBRANCH   5  19
TORSDOF 8
ENDMDL
MODEL 5
REMARK VINA RESULT:      -7.8      5.472      7.612
REMARK  Name = 
REMARK  8 active torsions:
REMARK  status: ('A' for Active; 'I' for Inactive)
REMARK    1  A    between atoms: C_2  and  C_3
REMARK    2  A    between atoms: C_3  and  C_4
REMARK    3  A    between atoms: C_3  and  N_8
REMARK    4  A    between atoms: C_4  and  C_5
REMARK    5  A    between atoms: C_9  and  C_11
REMARK    6  A    between atoms: N_15  and  S_16
REMARK    7  A    between atoms: S_16  and  C_19
REMARK    8  A    between atoms: C_22  and  C_23
REMARK                            x       y       z     vdW  Elec       q    Type
REMARK                         _______ _______ _______ _____ _____    ______ ____
ROOT
ATOM      1  C   UNL     1       4.402   3.991  19.720  0.00  0.00    +0.000 C 
ATOM      2  C   UNL     1       3.811   2.829  18.937  0.00  0.00    +0.000 C 
ATOM      3  C   UNL     1       2.472   2.622  19.629  0.00  0.00    +0.000 C 
ATOM      4  C   UNL     1       2.084   3.993  20.201  0.00  0.00    +0.000 C 
ATOM      5  N   UNL     1       3.233   4.921  19.892  0.00  0.00    +0.000 NA
ENDROOT
BRANCH   1   7
ATOM      6  N   UNL     1       5.979   4.162  17.873  0.00  0.00    +0.000 N 
ATOM      7  C   UNL     1       5.730   4.517  19.186  0.00  0.00    +0.000 C 
ATOM      8  O   UNL     1       6.464   5.275  19.813  0.00  0.00    +0.000 OA
ATOM      9  H   UNL     1       5.324   3.548  17.402  0.00  0.00    +0.000 HD
BRANCH   6  10
ATOM     10  C   UNL     1       7.158   4.646  17.135  0.00  0.00    +0.000 C 
BRANCH  10  12
ATOM     11  N   UNL     1       7.043   7.287  17.069  0.00  0.00    +0.000 NA
ATOM     12  C   UNL     1       7.126   6.126  17.125  0.00  0.00    +0.000 C 
ENDBRANCH  10  12
BRANCH  10  13
ATOM     13  C   UNL     1       7.190   4.082  15.710  0.00  0.00    +0.000 C 
BRANCH  13  14
ATOM     14  C   UNL     1       6.927   5.157  14.680  0.00  0.00    +0.000 C 
ATOM     15  N   UNL     1       5.652   5.643  14.668  0.00  0.00    +0.000 N 
ATOM     16  O   UNL     1       7.769   5.602  13.911  0.00  0.00    +0.000 OA
ATOM     17  H   UNL     1       4.878   5.131  15.069  0.00  0.00    +0.000 HD
ATOM     18  H   UNL     1       5.436   6.324  13.948  0.00  0.00    +0.000 HD
ENDBRANCH  13  14
ENDBRANCH  10  13
ENDBRANCH   6  10
ENDBRANCH   1   7
BRANCH   5  19
ATOM     19  S   UNL     1       2.908   5.998  18.589  0.00  0.00    +0.000 S 
ATOM     20  O   UNL     1       4.164   6.534  18.111  0.00  0.00    +0.000 OA
ATOM     21  O   UNL     1       1.976   5.364  17.681  0.00  0.00    +0.000 OA
BRANCH  19  22
ATOM     22  C   UNL     1       2.067   7.355  19.388  0.00  0.00    +0.000 A 
ATOM     23  C   UNL     1       1.788   7.267  20.754  0.00  0.00    +0.000 A 
ATOM     24  C   UNL     1       1.183   8.341  21.421  0.00  0.00    +0.000 A 
ATOM     25  C   UNL     1       0.854   9.535  20.753  0.00  0.00    +0.000 A 
ATOM     26  C   UNL     1       1.186   9.606  19.384  0.00  0.00    +0.000 A 
ATOM     27  C   UNL     1       1.788   8.534  18.703  0.00  0.00    +0.000 A 
BRANCH  25  28
ATOM     28  C   UNL     1       0.167  10.656  21.454  0.00  0.00    +0.000 A 
ATOM     29  C   UNL     1      -0.689  10.440  22.554  0.00  0.00    +0.000 A 
ATOM     30  C   UNL     1      -1.388  11.493  23.162  0.00  0.00    +0.000 A 
ATOM     31  C   UNL     1      -1.227  12.793  22.695  0.00  0.00    +0.000 A 
ATOM     32 CL   UNL     1      -2.104  14.083  23.417  0.00  0.00    +0.000 Cl
ATOM     33  C   UNL     1      -0.367  13.048  21.635  0.00  0.00    +0.000 A 
ATOM     34  C   UNL     1       0.317  11.989  21.022  0.00  0.00    +0.000 A 
ENDBRANCH  25  28
ENDBRANCH  19  22
ENDBRANCH   5  19
TORSDOF 8
ENDMDL
MODEL 6
REMARK VINA RESULT:      -7.7      5.640      7.897
REMARK  Name = 
REMARK  8 active torsions:
REMARK  status: ('A' for Active; 'I' for Inactive)
REMARK    1  A    between atoms: C_2  and  C_3
REMARK    2  A    between atoms: C_3  and  C_4
REMARK    3  A    between atoms: C_3  and  N_8
REMARK    4  A    between atoms: C_4  and  C_5
REMARK    5  A    between atoms: C_9  and  C_11
REMARK    6  A    between atoms: N_15  and  S_16
REMARK    7  A    between atoms: S_16  and  C_19
REMARK    8  A    between atoms: C_22  and  C_23
REMARK                            x       y       z     vdW  Elec       q    Type
REMARK                         _______ _______ _______ _____ _____    ______ ____
ROOT
ATOM      1  C   UNL     1       4.400   4.124  19.560  0.00  0.00    +0.000 C 
ATOM      2  C   UNL     1       3.422   3.036  19.147  0.00  0.00    +0.000 C 
ATOM      3  C   UNL     1       2.305   3.202  20.167  0.00  0.00    +0.000 C 
ATOM      4  C   UNL     1       2.338   4.681  20.581  0.00  0.00    +0.000 C 
ATOM      5  N   UNL     1       3.507   5.298  19.853  0.00  0.00    +0.000 NA
ENDROOT
BRANCH   1   7
ATOM      6  N   UNL     1       5.278   4.314  17.297  0.00  0.00    +0.000 N 
ATOM      7  C   UNL     1       5.605   4.287  18.639  0.00  0.00    +0.000 C 
ATOM      8  O   UNL     1       6.748   4.487  19.042  0.00  0.00    +0.000 OA
ATOM      9  H   UNL     1       4.313   4.162  17.027  0.00  0.00    +0.000 HD
BRANCH   6  10
ATOM     10  C   UNL     1       6.279   4.559  16.245  0.00  0.00    +0.000 C 
BRANCH  10  12
ATOM     11  N   UNL     1       7.519   6.834  16.774  0.00  0.00    +0.000 NA
ATOM     12  C   UNL     1       6.998   5.812  16.569  0.00  0.00    +0.000 C 
ENDBRANCH  10  12
BRANCH  10  13
ATOM     13  C   UNL     1       5.623   4.637  14.862  0.00  0.00    +0.000 C 
BRANCH  13  14
ATOM     14  C   UNL     1       6.640   4.476  13.754  0.00  0.00    +0.000 C 
ATOM     15  N   UNL     1       7.695   5.338  13.812  0.00  0.00    +0.000 N 
ATOM     16  O   UNL     1       6.570   3.636  12.867  0.00  0.00    +0.000 OA
ATOM     17  H   UNL     1       7.656   6.202  14.336  0.00  0.00    +0.000 HD
ATOM     18  H   UNL     1       8.361   5.287  13.049  0.00  0.00    +0.000 HD
ENDBRANCH  13  14
ENDBRANCH  10  13
ENDBRANCH   6  10
ENDBRANCH   1   7
BRANCH   5  19
ATOM     19  S   UNL     1       3.039   6.264  18.507  0.00  0.00    +0.000 S 
ATOM     20  O   UNL     1       4.211   6.943  17.999  0.00  0.00    +0.000 OA
ATOM     21  O   UNL     1       2.201   5.473  17.633  0.00  0.00    +0.000 OA
BRANCH  19  22
ATOM     22  C   UNL     1       2.024   7.529  19.253  0.00  0.00    +0.000 A 
ATOM     23  C   UNL     1       1.667   7.403  20.598  0.00  0.00    +0.000 A 
ATOM     24  C   UNL     1       0.921   8.410  21.227  0.00  0.00    +0.000 A 
ATOM     25  C   UNL     1       0.524   9.574  20.543  0.00  0.00    +0.000 A 
ATOM     26  C   UNL     1       0.935   9.687  19.197  0.00  0.00    +0.000 A 
ATOM     27  C   UNL     1       1.679   8.683  18.555  0.00  0.00    +0.000 A 
BRANCH  25  28
ATOM     28  C   UNL     1      -0.310  10.619  21.200  0.00  0.00    +0.000 A 
ATOM     29  C   UNL     1      -0.745  11.771  20.513  0.00  0.00    +0.000 A 
ATOM     30  C   UNL     1      -1.470  12.784  21.159  0.00  0.00    +0.000 A 
ATOM     31  C   UNL     1      -1.794  12.654  22.504  0.00  0.00    +0.000 A 
ATOM     32 CL   UNL     1      -2.656  13.906  23.309  0.00  0.00    +0.000 Cl
ATOM     33  C   UNL     1      -1.410  11.517  23.204  0.00  0.00    +0.000 A 
ATOM     34  C   UNL     1      -0.673  10.516  22.557  0.00  0.00    +0.000 A 
ENDBRANCH  25  28
ENDBRANCH  19  22
ENDBRANCH   5  19
TORSDOF 8
ENDMDL
MODEL 7
REMARK VINA RESULT:      -7.7      5.725      7.628
REMARK  Name = 
REMARK  8 active torsions:
REMARK  status: ('A' for Active; 'I' for Inactive)
REMARK    1  A    between atoms: C_2  and  C_3
REMARK    2  A    between atoms: C_3  and  C_4
REMARK    3  A    between atoms: C_3  and  N_8
REMARK    4  A    between atoms: C_4  and  C_5
REMARK    5  A    between atoms: C_9  and  C_11
REMARK    6  A    between atoms: N_15  and  S_16
REMARK    7  A    between atoms: S_16  and  C_19
REMARK    8  A    between atoms: C_22  and  C_23
REMARK                            x       y       z     vdW  Elec       q    Type
REMARK                         _______ _______ _______ _____ _____    ______ ____
ROOT
ATOM      1  C   UNL     1       3.102   3.852  19.348  0.00  0.00    +0.000 C 
ATOM      2  C   UNL     1       1.673   3.334  19.305  0.00  0.00    +0.000 C 
ATOM      3  C   UNL     1       1.067   3.955  20.554  0.00  0.00    +0.000 C 
ATOM      4  C   UNL     1       1.859   5.248  20.800  0.00  0.00    +0.000 C 
ATOM      5  N   UNL     1       2.934   5.293  19.743  0.00  0.00    +0.000 NA
ENDROOT
BRANCH   1   7
ATOM      6  N   UNL     1       4.998   4.360  17.908  0.00  0.00    +0.000 N 
ATOM      7  C   UNL     1       3.957   3.481  18.140  0.00  0.00    +0.000 C 
ATOM      8  O   UNL     1       3.812   2.447  17.496  0.00  0.00    +0.000 OA
ATOM      9  H   UNL     1       5.076   5.188  18.487  0.00  0.00    +0.000 HD
BRANCH   6  10
ATOM     10  C   UNL     1       5.999   4.134  16.851  0.00  0.00    +0.000 C 
BRANCH  10  12
ATOM     11  N   UNL     1       8.381   4.444  17.957  0.00  0.00    +0.000 NA
ATOM     12  C   UNL     1       7.346   4.328  17.435  0.00  0.00    +0.000 C 
ENDBRANCH  10  12
BRANCH  10  13
ATOM     13  C   UNL     1       5.770   5.073  15.661  0.00  0.00    +0.000 C 
BRANCH  13  14
ATOM     14  C   UNL     1       6.683   4.736  14.503  0.00  0.00    +0.000 C 
ATOM     15  N   UNL     1       6.340   3.614  13.809  0.00  0.00    +0.000 N 
ATOM     16  O   UNL     1       7.653   5.403  14.168  0.00  0.00    +0.000 OA
ATOM     17  H   UNL     1       5.743   2.898  14.201  0.00  0.00    +0.000 HD
ATOM     18  H   UNL     1       6.970   3.334  13.063  0.00  0.00    +0.000 HD
ENDBRANCH  13  14
ENDBRANCH  10  13
ENDBRANCH   6  10
ENDBRANCH   1   7
BRANCH   5  19
ATOM     19  S   UNL     1       2.596   6.405  18.473  0.00  0.00    +0.000 S 
ATOM     20  O   UNL     1       3.849   6.909  17.956  0.00  0.00    +0.000 OA
ATOM     21  O   UNL     1       1.609   5.820  17.591  0.00  0.00    +0.000 OA
BRANCH  19  22
ATOM     22  C   UNL     1       1.832   7.773  19.328  0.00  0.00    +0.000 A 
ATOM     23  C   UNL     1       1.690   7.708  20.716  0.00  0.00    +0.000 A 
ATOM     24  C   UNL     1       1.150   8.792  21.422  0.00  0.00    +0.000 A 
ATOM     25  C   UNL     1       0.751   9.974  20.770  0.00  0.00    +0.000 A 
ATOM     26  C   UNL     1       0.944  10.022  19.373  0.00  0.00    +0.000 A 
ATOM     27  C   UNL     1       1.480   8.940  18.655  0.00  0.00    +0.000 A 
BRANCH  25  28
ATOM     28  C   UNL     1       0.131  11.105  21.516  0.00  0.00    +0.000 A 
ATOM     29  C   UNL     1      -0.844  10.899  22.514  0.00  0.00    +0.000 A 
ATOM     30  C   UNL     1      -1.474  11.973  23.162  0.00  0.00    +0.000 A 
ATOM     31  C   UNL     1      -1.124  13.279  22.839  0.00  0.00    +0.000 A 
ATOM     32 CL   UNL     1      -1.914  14.599  23.607  0.00  0.00    +0.000 Cl
ATOM     33  C   UNL     1      -0.144  13.519  21.884  0.00  0.00    +0.000 A 
ATOM     34  C   UNL     1       0.471  12.442  21.230  0.00  0.00    +0.000 A 
ENDBRANCH  25  28
ENDBRANCH  19  22
ENDBRANCH   5  19
TORSDOF 8
ENDMDL
MODEL 8
REMARK VINA RESULT:      -7.7      5.811      7.742
REMARK  Name = 
REMARK  8 active torsions:
REMARK  status: ('A' for Active; 'I' for Inactive)
REMARK    1  A    between atoms: C_2  and  C_3
REMARK    2  A    between atoms: C_3  and  C_4
REMARK    3  A    between atoms: C_3  and  N_8
REMARK    4  A    between atoms: C_4  and  C_5
REMARK    5  A    between atoms: C_9  and  C_11
REMARK    6  A    between atoms: N_15  and  S_16
REMARK    7  A    between atoms: S_16  and  C_19
REMARK    8  A    between atoms: C_22  and  C_23
REMARK                            x       y       z     vdW  Elec       q    Type
REMARK                         _______ _______ _______ _____ _____    ______ ____
ROOT
ATOM      1  C   UNL     1       3.119   3.679  19.682  0.00  0.00    +0.000 C 
ATOM      2  C   UNL     1       1.912   3.127  18.941  0.00  0.00    +0.000 C 
ATOM      3  C   UNL     1       0.759   3.572  19.828  0.00  0.00    +0.000 C 
ATOM      4  C   UNL     1       1.245   4.848  20.532  0.00  0.00    +0.000 C 
ATOM      5  N   UNL     1       2.674   5.054  20.094  0.00  0.00    +0.000 NA
ENDROOT
BRANCH   1   7
ATOM      6  N   UNL     1       4.546   4.167  17.770  0.00  0.00    +0.000 N 
ATOM      7  C   UNL     1       4.454   3.485  18.969  0.00  0.00    +0.000 C 
ATOM      8  O   UNL     1       5.403   2.875  19.454  0.00  0.00    +0.000 OA
ATOM      9  H   UNL     1       3.733   4.668  17.431  0.00  0.00    +0.000 HD
BRANCH   6  10
ATOM     10  C   UNL     1       5.783   4.193  16.971  0.00  0.00    +0.000 C 
BRANCH  10  12
ATOM     11  N   UNL     1       7.766   4.981  18.532  0.00  0.00    +0.000 NA
ATOM     12  C   UNL     1       6.886   4.674  17.832  0.00  0.00    +0.000 C 
ENDBRANCH  10  12
BRANCH  10  13
ATOM     13  C   UNL     1       5.621   5.077  15.729  0.00  0.00    +0.000 C 
BRANCH  13  14
ATOM     14  C   UNL     1       6.529   4.630  14.606  0.00  0.00    +0.000 C 
ATOM     15  N   UNL     1       7.589   5.454  14.361  0.00  0.00    +0.000 N 
ATOM     16  O   UNL     1       6.375   3.605  13.955  0.00  0.00    +0.000 OA
ATOM     17  H   UNL     1       7.602   6.418  14.664  0.00  0.00    +0.000 HD
ATOM     18  H   UNL     1       8.181   5.206  13.575  0.00  0.00    +0.000 HD
ENDBRANCH  13  14
ENDBRANCH  10  13
ENDBRANCH   6  10
ENDBRANCH   1   7
BRANCH   5  19
ATOM     19  S   UNL     1       2.854   6.304  18.923  0.00  0.00    +0.000 S 
ATOM     20  O   UNL     1       4.239   6.717  18.900  0.00  0.00    +0.000 OA
ATOM     21  O   UNL     1       2.175   5.907  17.708  0.00  0.00    +0.000 OA
BRANCH  19  22
ATOM     22  C   UNL     1       1.948   7.663  19.644  0.00  0.00    +0.000 A 
ATOM     23  C   UNL     1       1.513   8.700  18.815  0.00  0.00    +0.000 A 
ATOM     24  C   UNL     1       0.748   9.751  19.342  0.00  0.00    +0.000 A 
ATOM     25  C   UNL     1       0.383   9.791  20.701  0.00  0.00    +0.000 A 
ATOM     26  C   UNL     1       0.806   8.708  21.501  0.00  0.00    +0.000 A 
ATOM     27  C   UNL     1       1.577   7.653  20.985  0.00  0.00    +0.000 A 
BRANCH  25  28
ATOM     28  C   UNL     1      -0.388  10.933  21.268  0.00  0.00    +0.000 A 
ATOM     29  C   UNL     1      -0.761  10.983  22.627  0.00  0.00    +0.000 A 
ATOM     30  C   UNL     1      -1.547  12.027  23.137  0.00  0.00    +0.000 A 
ATOM     31  C   UNL     1      -1.959  13.058  22.299  0.00  0.00    +0.000 A 
ATOM     32 CL   UNL     1      -2.948  14.324  22.911  0.00  0.00    +0.000 Cl
ATOM     33  C   UNL     1      -1.583  13.058  20.962  0.00  0.00    +0.000 A 
ATOM     34  C   UNL     1      -0.809  12.004  20.456  0.00  0.00    +0.000 A 
ENDBRANCH  25  28
ENDBRANCH  19  22
ENDBRANCH   5  19
TORSDOF 8
ENDMDL
MODEL 9
REMARK VINA RESULT:      -7.7      4.819      5.981
REMARK  Name = 
REMARK  8 active torsions:
REMARK  status: ('A' for Active; 'I' for Inactive)
REMARK    1  A    between atoms: C_2  and  C_3
REMARK    2  A    between atoms: C_3  and  C_4
REMARK    3  A    between atoms: C_3  and  N_8
REMARK    4  A    between atoms: C_4  and  C_5
REMARK    5  A    between atoms: C_9  and  C_11
REMARK    6  A    between atoms: N_15  and  S_16
REMARK    7  A    between atoms: S_16  and  C_19
REMARK    8  A    between atoms: C_22  and  C_23
REMARK                            x       y       z     vdW  Elec       q    Type
REMARK                         _______ _______ _______ _____ _____    ______ ____
ROOT
ATOM      1  C   UNL     1       4.308   4.009  16.537  0.00  0.00    +0.000 C 
ATOM      2  C   UNL     1       5.664   3.333  16.408  0.00  0.00    +0.000 C 
ATOM      3  C   UNL     1       6.224   3.972  15.146  0.00  0.00    +0.000 C 
ATOM      4  C   UNL     1       5.571   5.360  15.059  0.00  0.00    +0.000 C 
ATOM      5  N   UNL     1       4.608   5.447  16.217  0.00  0.00    +0.000 NA
ENDROOT
BRANCH   1   7
ATOM      6  N   UNL     1       4.294   3.024  18.763  0.00  0.00    +0.000 N 
ATOM      7  C   UNL     1       3.528   3.650  17.797  0.00  0.00    +0.000 C 
ATOM      8  O   UNL     1       2.361   3.977  17.993  0.00  0.00    +0.000 OA
ATOM      9  H   UNL     1       5.258   2.796  18.549  0.00  0.00    +0.000 HD
BRANCH   6  10
ATOM     10  C   UNL     1       3.760   2.679  20.092  0.00  0.00    +0.000 C 
BRANCH  10  12
ATOM     11  N   UNL     1       5.545   1.144  21.296  0.00  0.00    +0.000 NA
ATOM     12  C   UNL     1       4.730   1.789  20.768  0.00  0.00    +0.000 C 
ENDBRANCH  10  12
BRANCH  10  13
ATOM     13  C   UNL     1       2.382   2.016  19.980  0.00  0.00    +0.000 C 
BRANCH  13  14
ATOM     14  C   UNL     1       1.382   2.650  20.921  0.00  0.00    +0.000 C 
ATOM     15  N   UNL     1       0.397   3.370  20.312  0.00  0.00    +0.000 N 
ATOM     16  O   UNL     1       1.406   2.533  22.139  0.00  0.00    +0.000 OA
ATOM     17  H   UNL     1       0.491   3.721  19.368  0.00  0.00    +0.000 HD
ATOM     18  H   UNL     1      -0.254   3.852  20.924  0.00  0.00    +0.000 HD
ENDBRANCH  13  14
ENDBRANCH  10  13
ENDBRANCH   6  10
ENDBRANCH   1   7
BRANCH   5  19
ATOM     19  S   UNL     1       5.188   6.420  17.513  0.00  0.00    +0.000 S 
ATOM     20  O   UNL     1       5.443   5.565  18.651  0.00  0.00    +0.000 OA
ATOM     21  O   UNL     1       6.209   7.311  17.007  0.00  0.00    +0.000 OA
BRANCH  19  22
ATOM     22  C   UNL     1       3.762   7.403  17.948  0.00  0.00    +0.000 A 
ATOM     23  C   UNL     1       3.074   7.110  19.128  0.00  0.00    +0.000 A 
ATOM     24  C   UNL     1       1.987   7.902  19.526  0.00  0.00    +0.000 A 
ATOM     25  C   UNL     1       1.566   9.013  18.772  0.00  0.00    +0.000 A 
ATOM     26  C   UNL     1       2.308   9.304  17.607  0.00  0.00    +0.000 A 
ATOM     27  C   UNL     1       3.395   8.515  17.195  0.00  0.00    +0.000 A 
BRANCH  25  28
ATOM     28  C   UNL     1       0.381   9.823  19.171  0.00  0.00    +0.000 A 
ATOM     29  C   UNL     1      -0.627  10.179  18.252  0.00  0.00    +0.000 A 
ATOM     30  C   UNL     1      -1.703  11.001  18.620  0.00  0.00    +0.000 A 
ATOM     31  C   UNL     1      -1.804  11.468  19.925  0.00  0.00    +0.000 A 
ATOM     32 CL   UNL     1      -3.103  12.501  20.374  0.00  0.00    +0.000 Cl
ATOM     33  C   UNL     1      -0.846  11.111  20.866  0.00  0.00    +0.000 A 
ATOM     34  C   UNL     1       0.234  10.301  20.488  0.00  0.00    +0.000 A 
ENDBRANCH  25  28
ENDBRANCH  19  22
ENDBRANCH   5  19
TORSDOF 8
ENDMDL
