MODEL 1
REMARK VINA RESULT:      -6.4      0.000      0.000
REMARK  Name = 
REMARK  18 active torsions:
REMARK  status: ('A' for Active; 'I' for Inactive)
REMARK    1  A    between atoms: C_2  and  O_3
REMARK    2  A    between atoms: C_2  and  C_4
REMARK    3  A    between atoms: C_4  and  C_5
REMARK    4  A    between atoms: C_5  and  C_6
REMARK    5  A    between atoms: C_6  and  C_7
REMARK    6  A    between atoms: C_7  and  C_8
REMARK    7  A    between atoms: C_8  and  C_9
REMARK    8  A    between atoms: C_9  and  C_10
REMARK    9  A    between atoms: C_10  and  C_11
REMARK   10  A    between atoms: C_11  and  C_12
REMARK   11  A    between atoms: C_12  and  C_13
REMARK   12  A    between atoms: C_13  and  C_14
REMARK   13  A    between atoms: C_14  and  C_15
REMARK   14  A    between atoms: C_15  and  C_16
REMARK   15  A    between atoms: C_16  and  C_17
REMARK   16  A    between atoms: C_17  and  C_18
REMARK   17  A    between atoms: C_18  and  N_19
REMARK   18  A    between atoms: N_22  and  C_23
REMARK                            x       y       z     vdW  Elec       q    Type
REMARK                         _______ _______ _______ _____ _____    ______ ____
ROOT
ATOM      1  C   UNL     1       2.914   7.930  17.966  0.00  0.00    +0.000 C 
ENDROOT
BRANCH   1   2
ATOM      2  C   UNL     1       2.555   6.533  18.467  0.00  0.00    +0.000 C 
BRANCH   2   3
ATOM      3  C   UNL     1       2.059   6.590  19.909  0.00  0.00    +0.000 C 
BRANCH   3   4
ATOM      4  C   UNL     1       2.160   5.221  20.572  0.00  0.00    +0.000 C 
BRANCH   4   5
ATOM      5  C   UNL     1       1.028   4.314  20.105  0.00  0.00    +0.000 C 
BRANCH   5   6
ATOM      6  C   UNL     1       1.343   3.732  18.734  0.00  0.00    +0.000 C 
BRANCH   6   7
ATOM      7  C   UNL     1       2.051   2.391  18.871  0.00  0.00    +0.000 C 
BRANCH   7   8
ATOM      8  C   UNL     1       3.412   2.431  18.187  0.00  0.00    +0.000 C 
BRANCH   8   9
ATOM      9  C   UNL     1       4.448   3.076  19.098  0.00  0.00    +0.000 C 
BRANCH   9  10
ATOM     10  C   UNL     1       5.289   4.097  18.338  0.00  0.00    +0.000 C 
BRANCH  10  11
ATOM     11  C   UNL     1       4.883   4.138  16.868  0.00  0.00    +0.000 C 
BRANCH  11  12
ATOM     12  C   UNL     1       5.316   5.443  16.203  0.00  0.00    +0.000 C 
BRANCH  12  14
ATOM     13  O   UNL     1       7.472   6.488  16.616  0.00  0.00    +0.000 OA
ATOM     14  C   UNL     1       6.822   5.566  16.147  0.00  0.00    +0.000 C 
BRANCH  14  15
ATOM     15  O   UNL     1       7.402   4.526  15.508  0.00  0.00    +0.000 OA
ATOM     16  H   UNL     1       6.769   3.861  15.179  0.00  0.00    +0.000 HD
ENDBRANCH  14  15
ENDBRANCH  12  14
ENDBRANCH  11  12
ENDBRANCH  10  11
ENDBRANCH   9  10
ENDBRANCH   8   9
ENDBRANCH   7   8
ENDBRANCH   6   7
ENDBRANCH   5   6
ENDBRANCH   4   5
ENDBRANCH   3   4
ENDBRANCH   2   3
ENDBRANCH   1   2
BRANCH   1  17
ATOM     17  C   UNL     1       1.681   8.828  17.920  0.00  0.00    +0.000 C 
BRANCH  17  18
ATOM     18  C   UNL     1       2.061  10.310  17.952  0.00  0.00    +0.000 C 
BRANCH  18  19
ATOM     19  C   UNL     1       1.154  11.066  18.920  0.00  0.00    +0.000 C 
BRANCH  19  20
ATOM     20  N   UNL     1      -0.049  11.577  18.286  0.00  0.00    +0.000 N 
ATOM     21  C   UNL     1      -1.264  11.418  18.908  0.00  0.00    +0.000 C 
ATOM     22  O   UNL     1      -1.358  10.866  19.992  0.00  0.00    +0.000 OA
ATOM     23  N   UNL     1      -2.320  11.882  18.155  0.00  0.00    +0.000 N 
ATOM     24  H   UNL     1       0.042  12.260  17.551  0.00  0.00    +0.000 HD
ATOM     25  H   UNL     1      -2.127  12.010  17.173  0.00  0.00    +0.000 HD
BRANCH  23  26
ATOM     26  C   UNL     1      -3.672  11.794  18.576  0.00  0.00    +0.000 A 
ATOM     27  C   UNL     1      -4.139  12.481  19.709  0.00  0.00    +0.000 A 
ATOM     28  C   UNL     1      -5.442  12.315  20.171  0.00  0.00    +0.000 A 
ATOM     29  C   UNL     1      -6.305  11.482  19.482  0.00  0.00    +0.000 A 
ATOM     30  F   UNL     1      -7.551  11.307  19.933  0.00  0.00    +0.000 F 
ATOM     31  C   UNL     1      -5.887  10.826  18.328  0.00  0.00    +0.000 A 
ATOM     32  C   UNL     1      -4.575  10.986  17.867  0.00  0.00    +0.000 A 
ENDBRANCH  23  26
ENDBRANCH  19  20
ENDBRANCH  18  19
ENDBRANCH  17  18
ENDBRANCH   1  17
TORSDOF 18
ENDMDL
MODEL 2
REMARK VINA RESULT:      -6.3      4.772     10.054
REMARK  Name = 
REMARK  18 active torsions:
REMARK  status: ('A' for Active; 'I' for Inactive)
REMARK    1  A    between atoms: C_2  and  O_3
REMARK    2  A    between atoms: C_2  and  C_4
REMARK    3  A    between atoms: C_4  and  C_5
REMARK    4  A    between atoms: C_5  and  C_6
REMARK    5  A    between atoms: C_6  and  C_7
REMARK    6  A    between atoms: C_7  and  C_8
REMARK    7  A    between atoms: C_8  and  C_9
REMARK    8  A    between atoms: C_9  and  C_10
REMARK    9  A    between atoms: C_10  and  C_11
REMARK   10  A    between atoms: C_11  and  C_12
REMARK   11  A    between atoms: C_12  and  C_13
REMARK   12  A    between atoms: C_13  and  C_14
REMARK   13  A    between atoms: C_14  and  C_15
REMARK   14  A    between atoms: C_15  and  C_16
REMARK   15  A    between atoms: C_16  and  C_17
REMARK   16  A    between atoms: C_17  and  C_18
REMARK   17  A    between atoms: C_18  and  N_19
REMARK   18  A    between atoms: N_22  and  C_23
REMARK                            x       y       z     vdW  Elec       q    Type
REMARK                         _______ _______ _______ _____ _____    ______ ____
ROOT
ATOM      1  C   UNL     1       0.601   3.767  19.824  0.00  0.00    +0.000 C 
ENDROOT
BRANCH   1   2
ATOM      2  C   UNL     1       1.568   3.872  21.001  0.00  0.00    +0.000 C 
BRANCH   2   3
ATOM      3  C   UNL     1       2.284   5.219  20.989  0.00  0.00    +0.000 C 
BRANCH   3   4
ATOM      4  C   UNL     1       1.727   6.121  19.894  0.00  0.00    +0.000 C 
BRANCH   4   5
ATOM      5  C   UNL     1       1.981   7.586  20.227  0.00  0.00    +0.000 C 
BRANCH   5   6
ATOM      6  C   UNL     1       1.155   8.009  21.435  0.00  0.00    +0.000 C 
BRANCH   6   7
ATOM      7  C   UNL     1       0.076   9.002  21.026  0.00  0.00    +0.000 C 
BRANCH   7   8
ATOM      8  C   UNL     1       0.610  10.427  21.081  0.00  0.00    +0.000 C 
BRANCH   8   9
ATOM      9  C   UNL     1       0.359  11.142  19.760  0.00  0.00    +0.000 C 
BRANCH   9  10
ATOM     10  C   UNL     1      -0.215  10.187  18.718  0.00  0.00    +0.000 C 
BRANCH  10  11
ATOM     11  C   UNL     1      -1.479  10.771  18.095  0.00  0.00    +0.000 C 
BRANCH  11  12
ATOM     12  C   UNL     1      -1.948   9.944  16.899  0.00  0.00    +0.000 C 
BRANCH  12  14
ATOM     13  O   UNL     1      -4.244  10.705  17.140  0.00  0.00    +0.000 OA
ATOM     14  C   UNL     1      -3.312  10.385  16.418  0.00  0.00    +0.000 C 
BRANCH  14  15
ATOM     15  O   UNL     1      -3.408  10.391  15.071  0.00  0.00    +0.000 OA
ATOM     16  H   UNL     1      -4.267  10.708  14.736  0.00  0.00    +0.000 HD
ENDBRANCH  14  15
ENDBRANCH  12  14
ENDBRANCH  11  12
ENDBRANCH  10  11
ENDBRANCH   9  10
ENDBRANCH   8   9
ENDBRANCH   7   8
ENDBRANCH   6   7
ENDBRANCH   5   6
ENDBRANCH   4   5
ENDBRANCH   3   4
ENDBRANCH   2   3
ENDBRANCH   1   2
BRANCH   1  17
ATOM     17  C   UNL     1       0.870   2.508  19.005  0.00  0.00    +0.000 C 
BRANCH  17  18
ATOM     18  C   UNL     1       2.322   2.047  19.137  0.00  0.00    +0.000 C 
BRANCH  18  19
ATOM     19  C   UNL     1       2.979   1.969  17.761  0.00  0.00    +0.000 C 
BRANCH  19  20
ATOM     20  N   UNL     1       4.376   2.369  17.777  0.00  0.00    +0.000 N 
ATOM     21  C   UNL     1       4.699   3.700  17.886  0.00  0.00    +0.000 C 
ATOM     22  O   UNL     1       3.838   4.559  17.984  0.00  0.00    +0.000 OA
ATOM     23  N   UNL     1       6.055   3.933  17.810  0.00  0.00    +0.000 N 
ATOM     24  H   UNL     1       5.077   1.673  17.974  0.00  0.00    +0.000 HD
ATOM     25  H   UNL     1       6.600   3.183  17.414  0.00  0.00    +0.000 HD
BRANCH  23  26
ATOM     26  C   UNL     1       6.624   5.232  17.864  0.00  0.00    +0.000 A 
ATOM     27  C   UNL     1       6.321   6.211  16.903  0.00  0.00    +0.000 A 
ATOM     28  C   UNL     1       6.956   7.451  16.908  0.00  0.00    +0.000 A 
ATOM     29  C   UNL     1       7.879   7.736  17.898  0.00  0.00    +0.000 A 
ATOM     30  F   UNL     1       8.503   8.918  17.895  0.00  0.00    +0.000 F 
ATOM     31  C   UNL     1       8.164   6.805  18.893  0.00  0.00    +0.000 A 
ATOM     32  C   UNL     1       7.532   5.555  18.884  0.00  0.00    +0.000 A 
ENDBRANCH  23  26
ENDBRANCH  19  20
ENDBRANCH  18  19
ENDBRANCH  17  18
ENDBRANCH   1  17
TORSDOF 18
ENDMDL
MODEL 3
REMARK VINA RESULT:      -6.3      6.938     10.817
REMARK  Name = 
REMARK  18 active torsions:
REMARK  status: ('A' for Active; 'I' for Inactive)
REMARK    1  A    between atoms: C_2  and  O_3
REMARK    2  A    between atoms: C_2  and  C_4
REMARK    3  A    between atoms: C_4  and  C_5
REMARK    4  A    between atoms: C_5  and  C_6
REMARK    5  A    between atoms: C_6  and  C_7
REMARK    6  A    between atoms: C_7  and  C_8
REMARK    7  A    between atoms: C_8  and  C_9
REMARK    8  A    between atoms: C_9  and  C_10
REMARK    9  A    between atoms: C_10  and  C_11
REMARK   10  A    between atoms: C_11  and  C_12
REMARK   11  A    between atoms: C_12  and  C_13
REMARK   12  A    between atoms: C_13  and  C_14
REMARK   13  A    between atoms: C_14  and  C_15
REMARK   14  A    between atoms: C_15  and  C_16
REMARK   15  A    between atoms: C_16  and  C_17
REMARK   16  A    between atoms: C_17  and  C_18
REMARK   17  A    between atoms: C_18  and  N_19
REMARK   18  A    between atoms: N_22  and  C_23
REMARK                            x       y       z     vdW  Elec       q    Type
REMARK                         _______ _______ _______ _____ _____    ______ ____
ROOT
ATOM      1  C   UNL     1       8.459   9.405  17.952  0.00  0.00    +0.000 C 
ENDROOT
BRANCH   1   2
ATOM      2  C   UNL     1       8.955  10.577  18.796  0.00  0.00    +0.000 C 
BRANCH   2   3
ATOM      3  C   UNL     1      10.090  11.309  18.087  0.00  0.00    +0.000 C 
BRANCH   3   4
ATOM      4  C   UNL     1      11.260  11.547  19.034  0.00  0.00    +0.000 C 
BRANCH   4   5
ATOM      5  C   UNL     1      10.765  12.088  20.370  0.00  0.00    +0.000 C 
BRANCH   5   6
ATOM      6  C   UNL     1      10.529  13.590  20.281  0.00  0.00    +0.000 C 
BRANCH   6   7
ATOM      7  C   UNL     1       9.079  13.924  20.605  0.00  0.00    +0.000 C 
BRANCH   7   8
ATOM      8  C   UNL     1       8.679  13.328  21.949  0.00  0.00    +0.000 C 
BRANCH   8   9
ATOM      9  C   UNL     1       8.886  14.343  23.065  0.00  0.00    +0.000 C 
BRANCH   9  10
ATOM     10  C   UNL     1       8.462  13.772  24.415  0.00  0.00    +0.000 C 
BRANCH  10  11
ATOM     11  C   UNL     1       8.173  12.279  24.297  0.00  0.00    +0.000 C 
BRANCH  11  12
ATOM     12  C   UNL     1       7.251  11.796  25.415  0.00  0.00    +0.000 C 
BRANCH  12  14
ATOM     13  O   UNL     1       5.089  10.686  25.478  0.00  0.00    +0.000 OA
ATOM     14  C   UNL     1       5.899  11.379  24.882  0.00  0.00    +0.000 C 
BRANCH  14  15
ATOM     15  O   UNL     1       5.663  11.859  23.641  0.00  0.00    +0.000 OA
ATOM     16  H   UNL     1       4.740  11.754  23.345  0.00  0.00    +0.000 HD
ENDBRANCH  14  15
ENDBRANCH  12  14
ENDBRANCH  11  12
ENDBRANCH  10  11
ENDBRANCH   9  10
ENDBRANCH   8   9
ENDBRANCH   7   8
ENDBRANCH   6   7
ENDBRANCH   5   6
ENDBRANCH   4   5
ENDBRANCH   3   4
ENDBRANCH   2   3
ENDBRANCH   1   2
BRANCH   1  17
ATOM     17  C   UNL     1       8.500   8.103  18.745  0.00  0.00    +0.000 C 
BRANCH  17  18
ATOM     18  C   UNL     1       7.727   6.987  18.040  0.00  0.00    +0.000 C 
BRANCH  18  19
ATOM     19  C   UNL     1       7.941   5.658  18.761  0.00  0.00    +0.000 C 
BRANCH  19  20
ATOM     20  N   UNL     1       7.105   4.591  18.240  0.00  0.00    +0.000 N 
ATOM     21  C   UNL     1       5.779   4.534  18.595  0.00  0.00    +0.000 C 
ATOM     22  O   UNL     1       5.279   5.370  19.330  0.00  0.00    +0.000 OA
ATOM     23  N   UNL     1       5.132   3.428  18.089  0.00  0.00    +0.000 N 
ATOM     24  H   UNL     1       7.423   4.073  17.436  0.00  0.00    +0.000 HD
ATOM     25  H   UNL     1       5.734   2.680  17.781  0.00  0.00    +0.000 HD
BRANCH  23  26
ATOM     26  C   UNL     1       3.767   3.139  18.349  0.00  0.00    +0.000 A 
ATOM     27  C   UNL     1       2.738   3.642  17.535  0.00  0.00    +0.000 A 
ATOM     28  C   UNL     1       1.398   3.434  17.851  0.00  0.00    +0.000 A 
ATOM     29  C   UNL     1       1.073   2.689  18.970  0.00  0.00    +0.000 A 
ATOM     30  F   UNL     1      -0.213   2.503  19.286  0.00  0.00    +0.000 F 
ATOM     31  C   UNL     1       2.070   2.136  19.769  0.00  0.00    +0.000 A 
ATOM     32  C   UNL     1       3.417   2.351  19.457  0.00  0.00    +0.000 A 
ENDBRANCH  23  26
ENDBRANCH  19  20
ENDBRANCH  18  19
ENDBRANCH  17  18
ENDBRANCH   1  17
TORSDOF 18
ENDMDL
MODEL 4
REMARK VINA RESULT:      -6.3      3.814      4.748
REMARK  Name = 
REMARK  18 active torsions:
REMARK  status: ('A' for Active; 'I' for Inactive)
REMARK    1  A    between atoms: C_2  and  O_3
REMARK    2  A    between atoms: C_2  and  C_4
REMARK    3  A    between atoms: C_4  and  C_5
REMARK    4  A    between atoms: C_5  and  C_6
REMARK    5  A    between atoms: C_6  and  C_7
REMARK    6  A    between atoms: C_7  and  C_8
REMARK    7  A    between atoms: C_8  and  C_9
REMARK    8  A    between atoms: C_9  and  C_10
REMARK    9  A    between atoms: C_10  and  C_11
REMARK   10  A    between atoms: C_11  and  C_12
REMARK   11  A    between atoms: C_12  and  C_13
REMARK   12  A    between atoms: C_13  and  C_14
REMARK   13  A    between atoms: C_14  and  C_15
REMARK   14  A    between atoms: C_15  and  C_16
REMARK   15  A    between atoms: C_16  and  C_17
REMARK   16  A    between atoms: C_17  and  C_18
REMARK   17  A    between atoms: C_18  and  N_19
REMARK   18  A    between atoms: N_22  and  C_23
REMARK                            x       y       z     vdW  Elec       q    Type
REMARK                         _______ _______ _______ _____ _____    ______ ____
ROOT
ATOM      1  C   UNL     1       1.935   5.514  20.273  0.00  0.00    +0.000 C 
ENDROOT
BRANCH   1   2
ATOM      2  C   UNL     1       0.980   4.331  20.404  0.00  0.00    +0.000 C 
BRANCH   2   3
ATOM      3  C   UNL     1       1.582   3.250  21.297  0.00  0.00    +0.000 C 
BRANCH   3   4
ATOM      4  C   UNL     1       2.693   2.502  20.570  0.00  0.00    +0.000 C 
BRANCH   4   5
ATOM      5  C   UNL     1       2.303   2.239  19.121  0.00  0.00    +0.000 C 
BRANCH   5   6
ATOM      6  C   UNL     1       3.536   1.922  18.286  0.00  0.00    +0.000 C 
BRANCH   6   7
ATOM      7  C   UNL     1       4.436   3.145  18.174  0.00  0.00    +0.000 C 
BRANCH   7   8
ATOM      8  C   UNL     1       4.090   3.953  16.929  0.00  0.00    +0.000 C 
BRANCH   8   9
ATOM      9  C   UNL     1       3.728   5.384  17.307  0.00  0.00    +0.000 C 
BRANCH   9  10
ATOM     10  C   UNL     1       4.860   6.052  18.081  0.00  0.00    +0.000 C 
BRANCH  10  11
ATOM     11  C   UNL     1       5.990   6.453  17.139  0.00  0.00    +0.000 C 
BRANCH  11  12
ATOM     12  C   UNL     1       7.319   6.584  17.881  0.00  0.00    +0.000 C 
BRANCH  12  14
ATOM     13  O   UNL     1       7.542   5.417  20.002  0.00  0.00    +0.000 OA
ATOM     14  C   UNL     1       7.573   5.396  18.780  0.00  0.00    +0.000 C 
BRANCH  14  15
ATOM     15  O   UNL     1       7.848   4.271  18.085  0.00  0.00    +0.000 OA
ATOM     16  H   UNL     1       7.264   3.519  18.299  0.00  0.00    +0.000 HD
ENDBRANCH  14  15
ENDBRANCH  12  14
ENDBRANCH  11  12
ENDBRANCH  10  11
ENDBRANCH   9  10
ENDBRANCH   8   9
ENDBRANCH   7   8
ENDBRANCH   6   7
ENDBRANCH   5   6
ENDBRANCH   4   5
ENDBRANCH   3   4
ENDBRANCH   2   3
ENDBRANCH   1   2
BRANCH   1  17
ATOM     17  C   UNL     1       1.378   6.749  20.976  0.00  0.00    +0.000 C 
BRANCH  17  18
ATOM     18  C   UNL     1       1.782   8.038  20.259  0.00  0.00    +0.000 C 
BRANCH  18  19
ATOM     19  C   UNL     1       0.640   9.050  20.308  0.00  0.00    +0.000 C 
BRANCH  19  20
ATOM     20  N   UNL     1       0.714  10.038  19.246  0.00  0.00    +0.000 N 
ATOM     21  C   UNL     1       0.995  11.347  19.556  0.00  0.00    +0.000 C 
ATOM     22  O   UNL     1       1.199  11.700  20.706  0.00  0.00    +0.000 OA
ATOM     23  N   UNL     1       0.956  12.181  18.461  0.00  0.00    +0.000 N 
ATOM     24  H   UNL     1       0.823   9.723  18.295  0.00  0.00    +0.000 HD
ATOM     25  H   UNL     1       0.469  11.815  17.657  0.00  0.00    +0.000 HD
BRANCH  23  26
ATOM     26  C   UNL     1       1.180  13.580  18.541  0.00  0.00    +0.000 A 
ATOM     27  C   UNL     1       0.137  14.480  18.817  0.00  0.00    +0.000 A 
ATOM     28  C   UNL     1       0.345  15.857  18.799  0.00  0.00    +0.000 A 
ATOM     29  C   UNL     1       1.612  16.348  18.537  0.00  0.00    +0.000 A 
ATOM     30  F   UNL     1       1.810  17.670  18.502  0.00  0.00    +0.000 F 
ATOM     31  C   UNL     1       2.676  15.481  18.309  0.00  0.00    +0.000 A 
ATOM     32  C   UNL     1       2.466  14.097  18.318  0.00  0.00    +0.000 A 
ENDBRANCH  23  26
ENDBRANCH  19  20
ENDBRANCH  18  19
ENDBRANCH  17  18
ENDBRANCH   1  17
TORSDOF 18
ENDMDL
MODEL 5
REMARK VINA RESULT:      -6.1      3.283      5.144
REMARK  Name = 
REMARK  18 active torsions:
REMARK  status: ('A' for Active; 'I' for Inactive)
REMARK    1  A    between atoms: C_2  and  O_3
REMARK    2  A    between atoms: C_2  and  C_4
REMARK    3  A    between atoms: C_4  and  C_5
REMARK    4  A    between atoms: C_5  and  C_6
REMARK    5  A    between atoms: C_6  and  C_7
REMARK    6  A    between atoms: C_7  and  C_8
REMARK    7  A    between atoms: C_8  and  C_9
REMARK    8  A    between atoms: C_9  and  C_10
REMARK    9  A    between atoms: C_10  and  C_11
REMARK   10  A    between atoms: C_11  and  C_12
REMARK   11  A    between atoms: C_12  and  C_13
REMARK   12  A    between atoms: C_13  and  C_14
REMARK   13  A    between atoms: C_14  and  C_15
REMARK   14  A    between atoms: C_15  and  C_16
REMARK   15  A    between atoms: C_16  and  C_17
REMARK   16  A    between atoms: C_17  and  C_18
REMARK   17  A    between atoms: C_18  and  N_19
REMARK   18  A    between atoms: N_22  and  C_23
REMARK                            x       y       z     vdW  Elec       q    Type
REMARK                         _______ _______ _______ _____ _____    ______ ____
ROOT
ATOM      1  C   UNL     1       0.697   2.972  20.349  0.00  0.00    +0.000 C 
ENDROOT
BRANCH   1   2
ATOM      2  C   UNL     1       1.457   2.034  19.415  0.00  0.00    +0.000 C 
BRANCH   2   3
ATOM      3  C   UNL     1       1.889   2.769  18.150  0.00  0.00    +0.000 C 
BRANCH   3   4
ATOM      4  C   UNL     1       3.326   2.418  17.781  0.00  0.00    +0.000 C 
BRANCH   4   5
ATOM      5  C   UNL     1       3.847   3.357  16.701  0.00  0.00    +0.000 C 
BRANCH   5   6
ATOM      6  C   UNL     1       4.379   4.641  17.322  0.00  0.00    +0.000 C 
BRANCH   6   7
ATOM      7  C   UNL     1       5.754   4.411  17.933  0.00  0.00    +0.000 C 
BRANCH   7   8
ATOM      8  C   UNL     1       6.823   5.158  17.146  0.00  0.00    +0.000 C 
BRANCH   8   9
ATOM      9  C   UNL     1       6.321   5.487  15.746  0.00  0.00    +0.000 C 
BRANCH   9  10
ATOM     10  C   UNL     1       6.893   4.519  14.715  0.00  0.00    +0.000 C 
BRANCH  10  11
ATOM     11  C   UNL     1       5.824   4.121  13.703  0.00  0.00    +0.000 C 
BRANCH  11  12
ATOM     12  C   UNL     1       6.442   3.521  12.441  0.00  0.00    +0.000 C 
BRANCH  12  14
ATOM     13  O   UNL     1       4.339   2.927  11.376  0.00  0.00    +0.000 OA
ATOM     14  C   UNL     1       5.469   2.615  11.721  0.00  0.00    +0.000 C 
BRANCH  14  15
ATOM     15  O   UNL     1       5.982   1.388  11.486  0.00  0.00    +0.000 OA
ATOM     16  H   UNL     1       5.700   0.995  10.639  0.00  0.00    +0.000 HD
ENDBRANCH  14  15
ENDBRANCH  12  14
ENDBRANCH  11  12
ENDBRANCH  10  11
ENDBRANCH   9  10
ENDBRANCH   8   9
ENDBRANCH   7   8
ENDBRANCH   6   7
ENDBRANCH   5   6
ENDBRANCH   4   5
ENDBRANCH   3   4
ENDBRANCH   2   3
ENDBRANCH   1   2
BRANCH   1  17
ATOM     17  C   UNL     1       1.653   3.917  21.072  0.00  0.00    +0.000 C 
BRANCH  17  18
ATOM     18  C   UNL     1       1.432   5.372  20.655  0.00  0.00    +0.000 C 
BRANCH  18  19
ATOM     19  C   UNL     1       2.715   5.951  20.062  0.00  0.00    +0.000 C 
BRANCH  19  20
ATOM     20  N   UNL     1       2.463   6.945  19.033  0.00  0.00    +0.000 N 
ATOM     21  C   UNL     1       1.892   8.147  19.376  0.00  0.00    +0.000 C 
ATOM     22  O   UNL     1       1.600   8.407  20.532  0.00  0.00    +0.000 OA
ATOM     23  N   UNL     1       1.643   8.955  18.289  0.00  0.00    +0.000 N 
ATOM     24  H   UNL     1       2.940   6.861  18.149  0.00  0.00    +0.000 HD
ATOM     25  H   UNL     1       1.637   8.488  17.396  0.00  0.00    +0.000 HD
BRANCH  23  26
ATOM     26  C   UNL     1       1.027  10.230  18.393  0.00  0.00    +0.000 A 
ATOM     27  C   UNL     1       1.783  11.412  18.454  0.00  0.00    +0.000 A 
ATOM     28  C   UNL     1       1.177  12.650  18.652  0.00  0.00    +0.000 A 
ATOM     29  C   UNL     1      -0.201  12.721  18.759  0.00  0.00    +0.000 A 
ATOM     30  F   UNL     1      -0.784  13.906  18.967  0.00  0.00    +0.000 F 
ATOM     31  C   UNL     1      -0.981  11.573  18.654  0.00  0.00    +0.000 A 
ATOM     32  C   UNL     1      -0.371  10.327  18.462  0.00  0.00    +0.000 A 
ENDBRANCH  23  26
ENDBRANCH  19  20
ENDBRANCH  18  19
ENDBRANCH  17  18
ENDBRANCH   1  17
TORSDOF 18
ENDMDL
MODEL 6
REMARK VINA RESULT:      -6.1      2.448      3.322
REMARK  Name = 
REMARK  18 active torsions:
REMARK  status: ('A' for Active; 'I' for Inactive)
REMARK    1  A    between atoms: C_2  and  O_3
REMARK    2  A    between atoms: C_2  and  C_4
REMARK    3  A    between atoms: C_4  and  C_5
REMARK    4  A    between atoms: C_5  and  C_6
REMARK    5  A    between atoms: C_6  and  C_7
REMARK    6  A    between atoms: C_7  and  C_8
REMARK    7  A    between atoms: C_8  and  C_9
REMARK    8  A    between atoms: C_9  and  C_10
REMARK    9  A    between atoms: C_10  and  C_11
REMARK   10  A    between atoms: C_11  and  C_12
REMARK   11  A    between atoms: C_12  and  C_13
REMARK   12  A    between atoms: C_13  and  C_14
REMARK   13  A    between atoms: C_14  and  C_15
REMARK   14  A    between atoms: C_15  and  C_16
REMARK   15  A    between atoms: C_16  and  C_17
REMARK   16  A    between atoms: C_17  and  C_18
REMARK   17  A    between atoms: C_18  and  N_19
REMARK   18  A    between atoms: N_22  and  C_23
REMARK                            x       y       z     vdW  Elec       q    Type
REMARK                         _______ _______ _______ _____ _____    ______ ____
ROOT
ATOM      1  C   UNL     1       1.228   6.787  21.259  0.00  0.00    +0.000 C 
ENDROOT
BRANCH   1   2
ATOM      2  C   UNL     1       1.879   5.684  20.430  0.00  0.00    +0.000 C 
BRANCH   2   3
ATOM      3  C   UNL     1       0.983   4.451  20.378  0.00  0.00    +0.000 C 
BRANCH   3   4
ATOM      4  C   UNL     1       1.480   3.462  19.329  0.00  0.00    +0.000 C 
BRANCH   4   5
ATOM      5  C   UNL     1       2.832   2.886  19.734  0.00  0.00    +0.000 C 
BRANCH   5   6
ATOM      6  C   UNL     1       3.667   2.570  18.501  0.00  0.00    +0.000 C 
BRANCH   6   7
ATOM      7  C   UNL     1       3.188   3.384  17.307  0.00  0.00    +0.000 C 
BRANCH   7   8
ATOM      8  C   UNL     1       4.310   4.264  16.772  0.00  0.00    +0.000 C 
BRANCH   8   9
ATOM      9  C   UNL     1       4.226   5.660  17.374  0.00  0.00    +0.000 C 
BRANCH   9  10
ATOM     10  C   UNL     1       5.134   6.636  16.632  0.00  0.00    +0.000 C 
BRANCH  10  11
ATOM     11  C   UNL     1       6.579   6.148  16.659  0.00  0.00    +0.000 C 
BRANCH  11  12
ATOM     12  C   UNL     1       7.292   6.579  17.940  0.00  0.00    +0.000 C 
BRANCH  12  14
ATOM     13  O   UNL     1       7.617   5.439  20.061  0.00  0.00    +0.000 OA
ATOM     14  C   UNL     1       7.579   5.400  18.841  0.00  0.00    +0.000 C 
BRANCH  14  15
ATOM     15  O   UNL     1       7.797   4.261  18.148  0.00  0.00    +0.000 OA
ATOM     16  H   UNL     1       7.907   3.471  18.709  0.00  0.00    +0.000 HD
ENDBRANCH  14  15
ENDBRANCH  12  14
ENDBRANCH  11  12
ENDBRANCH  10  11
ENDBRANCH   9  10
ENDBRANCH   8   9
ENDBRANCH   7   8
ENDBRANCH   6   7
ENDBRANCH   5   6
ENDBRANCH   4   5
ENDBRANCH   3   4
ENDBRANCH   2   3
ENDBRANCH   1   2
BRANCH   1  17
ATOM     17  C   UNL     1       1.498   8.161  20.651  0.00  0.00    +0.000 C 
BRANCH  17  18
ATOM     18  C   UNL     1       1.471   9.263  21.711  0.00  0.00    +0.000 C 
BRANCH  18  19
ATOM     19  C   UNL     1       0.793  10.513  21.155  0.00  0.00    +0.000 C 
BRANCH  19  20
ATOM     20  N   UNL     1      -0.546  10.255  20.654  0.00  0.00    +0.000 N 
ATOM     21  C   UNL     1      -0.793  10.336  19.305  0.00  0.00    +0.000 C 
ATOM     22  O   UNL     1       0.092  10.608  18.510  0.00  0.00    +0.000 OA
ATOM     23  N   UNL     1      -2.119  10.144  18.987  0.00  0.00    +0.000 N 
ATOM     24  H   UNL     1      -1.201   9.771  21.247  0.00  0.00    +0.000 HD
ATOM     25  H   UNL     1      -2.767  10.250  19.752  0.00  0.00    +0.000 HD
BRANCH  23  26
ATOM     26  C   UNL     1      -2.618  10.214  17.660  0.00  0.00    +0.000 A 
ATOM     27  C   UNL     1      -2.051   9.463  16.617  0.00  0.00    +0.000 A 
ATOM     28  C   UNL     1      -2.483   9.609  15.301  0.00  0.00    +0.000 A 
ATOM     29  C   UNL     1      -3.515  10.487  15.020  0.00  0.00    +0.000 A 
ATOM     30  F   UNL     1      -3.919  10.642  13.755  0.00  0.00    +0.000 F 
ATOM     31  C   UNL     1      -4.130  11.208  16.039  0.00  0.00    +0.000 A 
ATOM     32  C   UNL     1      -3.691  11.068  17.361  0.00  0.00    +0.000 A 
ENDBRANCH  23  26
ENDBRANCH  19  20
ENDBRANCH  18  19
ENDBRANCH  17  18
ENDBRANCH   1  17
TORSDOF 18
ENDMDL
MODEL 7
REMARK VINA RESULT:      -6.1      2.305      2.900
REMARK  Name = 
REMARK  18 active torsions:
REMARK  status: ('A' for Active; 'I' for Inactive)
REMARK    1  A    between atoms: C_2  and  O_3
REMARK    2  A    between atoms: C_2  and  C_4
REMARK    3  A    between atoms: C_4  and  C_5
REMARK    4  A    between atoms: C_5  and  C_6
REMARK    5  A    between atoms: C_6  and  C_7
REMARK    6  A    between atoms: C_7  and  C_8
REMARK    7  A    between atoms: C_8  and  C_9
REMARK    8  A    between atoms: C_9  and  C_10
REMARK    9  A    between atoms: C_10  and  C_11
REMARK   10  A    between atoms: C_11  and  C_12
REMARK   11  A    between atoms: C_12  and  C_13
REMARK   12  A    between atoms: C_13  and  C_14
REMARK   13  A    between atoms: C_14  and  C_15
REMARK   14  A    between atoms: C_15  and  C_16
REMARK   15  A    between atoms: C_16  and  C_17
REMARK   16  A    between atoms: C_17  and  C_18
REMARK   17  A    between atoms: C_18  and  N_19
REMARK   18  A    between atoms: N_22  and  C_23
REMARK                            x       y       z     vdW  Elec       q    Type
REMARK                         _______ _______ _______ _____ _____    ______ ____
ROOT
ATOM      1  C   UNL     1       2.494   6.834  18.178  0.00  0.00    +0.000 C 
ENDROOT
BRANCH   1   2
ATOM      2  C   UNL     1       2.536   6.877  19.704  0.00  0.00    +0.000 C 
BRANCH   2   3
ATOM      3  C   UNL     1       1.937   5.605  20.294  0.00  0.00    +0.000 C 
BRANCH   3   4
ATOM      4  C   UNL     1       1.276   4.761  19.210  0.00  0.00    +0.000 C 
BRANCH   4   5
ATOM      5  C   UNL     1       0.920   3.381  19.749  0.00  0.00    +0.000 C 
BRANCH   5   6
ATOM      6  C   UNL     1       1.249   2.306  18.721  0.00  0.00    +0.000 C 
BRANCH   6   7
ATOM      7  C   UNL     1       2.589   1.657  19.035  0.00  0.00    +0.000 C 
BRANCH   7   8
ATOM      8  C   UNL     1       3.713   2.351  18.276  0.00  0.00    +0.000 C 
BRANCH   8   9
ATOM      9  C   UNL     1       4.605   3.126  19.236  0.00  0.00    +0.000 C 
BRANCH   9  10
ATOM     10  C   UNL     1       5.222   4.343  18.552  0.00  0.00    +0.000 C 
BRANCH  10  11
ATOM     11  C   UNL     1       4.909   4.335  17.059  0.00  0.00    +0.000 C 
BRANCH  11  12
ATOM     12  C   UNL     1       5.673   5.432  16.320  0.00  0.00    +0.000 C 
BRANCH  12  14
ATOM     13  O   UNL     1       6.925   4.748  14.352  0.00  0.00    +0.000 OA
ATOM     14  C   UNL     1       6.858   4.873  15.566  0.00  0.00    +0.000 C 
BRANCH  14  15
ATOM     15  O   UNL     1       7.869   4.513  16.385  0.00  0.00    +0.000 OA
ATOM     16  H   UNL     1       8.506   3.894  15.981  0.00  0.00    +0.000 HD
ENDBRANCH  14  15
ENDBRANCH  12  14
ENDBRANCH  11  12
ENDBRANCH  10  11
ENDBRANCH   9  10
ENDBRANCH   8   9
ENDBRANCH   7   8
ENDBRANCH   6   7
ENDBRANCH   5   6
ENDBRANCH   4   5
ENDBRANCH   3   4
ENDBRANCH   2   3
ENDBRANCH   1   2
BRANCH   1  17
ATOM     17  C   UNL     1       2.430   8.241  17.592  0.00  0.00    +0.000 C 
BRANCH  17  18
ATOM     18  C   UNL     1       1.767   9.225  18.558  0.00  0.00    +0.000 C 
BRANCH  18  19
ATOM     19  C   UNL     1       0.419   9.681  18.004  0.00  0.00    +0.000 C 
BRANCH  19  20
ATOM     20  N   UNL     1       0.024  10.993  18.485  0.00  0.00    +0.000 N 
ATOM     21  C   UNL     1      -0.510  11.121  19.745  0.00  0.00    +0.000 C 
ATOM     22  O   UNL     1      -0.649  10.157  20.480  0.00  0.00    +0.000 OA
ATOM     23  N   UNL     1      -0.908  12.408  20.034  0.00  0.00    +0.000 N 
ATOM     24  H   UNL     1       0.380  11.810  18.016  0.00  0.00    +0.000 HD
ATOM     25  H   UNL     1      -1.027  13.012  19.236  0.00  0.00    +0.000 HD
BRANCH  23  26
ATOM     26  C   UNL     1      -1.518  12.776  21.261  0.00  0.00    +0.000 A 
ATOM     27  C   UNL     1      -2.909  12.703  21.446  0.00  0.00    +0.000 A 
ATOM     28  C   UNL     1      -3.508  13.155  22.618  0.00  0.00    +0.000 A 
ATOM     29  C   UNL     1      -2.716  13.656  23.636  0.00  0.00    +0.000 A 
ATOM     30  F   UNL     1      -3.290  14.108  24.755  0.00  0.00    +0.000 F 
ATOM     31  C   UNL     1      -1.331  13.696  23.502  0.00  0.00    +0.000 A 
ATOM     32  C   UNL     1      -0.728  13.249  22.321  0.00  0.00    +0.000 A 
ENDBRANCH  23  26
ENDBRANCH  19  20
ENDBRANCH  18  19
ENDBRANCH  17  18
ENDBRANCH   1  17
TORSDOF 18
ENDMDL
MODEL 8
REMARK VINA RESULT:      -6.1      4.286      6.465
REMARK  Name = 
REMARK  18 active torsions:
REMARK  status: ('A' for Active; 'I' for Inactive)
REMARK    1  A    between atoms: C_2  and  O_3
REMARK    2  A    between atoms: C_2  and  C_4
REMARK    3  A    between atoms: C_4  and  C_5
REMARK    4  A    between atoms: C_5  and  C_6
REMARK    5  A    between atoms: C_6  and  C_7
REMARK    6  A    between atoms: C_7  and  C_8
REMARK    7  A    between atoms: C_8  and  C_9
REMARK    8  A    between atoms: C_9  and  C_10
REMARK    9  A    between atoms: C_10  and  C_11
REMARK   10  A    between atoms: C_11  and  C_12
REMARK   11  A    between atoms: C_12  and  C_13
REMARK   12  A    between atoms: C_13  and  C_14
REMARK   13  A    between atoms: C_14  and  C_15
REMARK   14  A    between atoms: C_15  and  C_16
REMARK   15  A    between atoms: C_16  and  C_17
REMARK   16  A    between atoms: C_17  and  C_18
REMARK   17  A    between atoms: C_18  and  N_19
REMARK   18  A    between atoms: N_22  and  C_23
REMARK                            x       y       z     vdW  Elec       q    Type
REMARK                         _______ _______ _______ _____ _____    ______ ____
ROOT
ATOM      1  C   UNL     1       2.874   2.539  17.673  0.00  0.00    +0.000 C 
ENDROOT
BRANCH   1   2
ATOM      2  C   UNL     1       3.886   3.472  17.015  0.00  0.00    +0.000 C 
BRANCH   2   3
ATOM      3  C   UNL     1       3.736   4.892  17.550  0.00  0.00    +0.000 C 
BRANCH   3   4
ATOM      4  C   UNL     1       4.830   5.210  18.563  0.00  0.00    +0.000 C 
BRANCH   4   5
ATOM      5  C   UNL     1       6.117   4.473  18.210  0.00  0.00    +0.000 C 
BRANCH   5   6
ATOM      6  C   UNL     1       7.206   5.462  17.817  0.00  0.00    +0.000 C 
BRANCH   6   7
ATOM      7  C   UNL     1       6.979   5.973  16.401  0.00  0.00    +0.000 C 
BRANCH   7   8
ATOM      8  C   UNL     1       7.228   4.865  15.384  0.00  0.00    +0.000 C 
BRANCH   8   9
ATOM      9  C   UNL     1       7.672   5.455  14.052  0.00  0.00    +0.000 C 
BRANCH   9  10
ATOM     10  C   UNL     1       7.208   4.588  12.885  0.00  0.00    +0.000 C 
BRANCH  10  11
ATOM     11  C   UNL     1       6.141   3.599  13.343  0.00  0.00    +0.000 C 
BRANCH  11  12
ATOM     12  C   UNL     1       4.815   3.830  12.619  0.00  0.00    +0.000 C 
BRANCH  12  14
ATOM     13  O   UNL     1       3.689   2.845  10.703  0.00  0.00    +0.000 OA
ATOM     14  C   UNL     1       4.599   2.818  11.517  0.00  0.00    +0.000 C 
BRANCH  14  15
ATOM     15  O   UNL     1       5.538   1.846  11.517  0.00  0.00    +0.000 OA
ATOM     16  H   UNL     1       6.436   2.163  11.730  0.00  0.00    +0.000 HD
ENDBRANCH  14  15
ENDBRANCH  12  14
ENDBRANCH  11  12
ENDBRANCH  10  11
ENDBRANCH   9  10
ENDBRANCH   8   9
ENDBRANCH   7   8
ENDBRANCH   6   7
ENDBRANCH   5   6
ENDBRANCH   4   5
ENDBRANCH   3   4
ENDBRANCH   2   3
ENDBRANCH   1   2
BRANCH   1  17
ATOM     17  C   UNL     1       3.139   2.413  19.171  0.00  0.00    +0.000 C 
BRANCH  17  18
ATOM     18  C   UNL     1       1.876   2.017  19.937  0.00  0.00    +0.000 C 
BRANCH  18  19
ATOM     19  C   UNL     1       1.764   2.827  21.226  0.00  0.00    +0.000 C 
BRANCH  19  20
ATOM     20  N   UNL     1       2.403   4.129  21.133  0.00  0.00    +0.000 N 
ATOM     21  C   UNL     1       1.691   5.201  20.654  0.00  0.00    +0.000 C 
ATOM     22  O   UNL     1       0.524   5.092  20.315  0.00  0.00    +0.000 OA
ATOM     23  N   UNL     1       2.448   6.348  20.550  0.00  0.00    +0.000 N 
ATOM     24  H   UNL     1       3.250   4.292  21.654  0.00  0.00    +0.000 HD
ATOM     25  H   UNL     1       3.446   6.208  20.557  0.00  0.00    +0.000 HD
BRANCH  23  26
ATOM     26  C   UNL     1       1.937   7.574  20.049  0.00  0.00    +0.000 A 
ATOM     27  C   UNL     1       1.125   8.411  20.834  0.00  0.00    +0.000 A 
ATOM     28  C   UNL     1       0.550   9.564  20.305  0.00  0.00    +0.000 A 
ATOM     29  C   UNL     1       0.808   9.909  18.991  0.00  0.00    +0.000 A 
ATOM     30  F   UNL     1       0.243  11.005  18.476  0.00  0.00    +0.000 F 
ATOM     31  C   UNL     1       1.647   9.127  18.203  0.00  0.00    +0.000 A 
ATOM     32  C   UNL     1       2.220   7.963  18.731  0.00  0.00    +0.000 A 
ENDBRANCH  23  26
ENDBRANCH  19  20
ENDBRANCH  18  19
ENDBRANCH  17  18
ENDBRANCH   1  17
TORSDOF 18
ENDMDL
MODEL 9
REMARK VINA RESULT:      -6.1      6.622      9.657
REMARK  Name = 
REMARK  18 active torsions:
REMARK  status: ('A' for Active; 'I' for Inactive)
REMARK    1  A    between atoms: C_2  and  O_3
REMARK    2  A    between atoms: C_2  and  C_4
REMARK    3  A    between atoms: C_4  and  C_5
REMARK    4  A    between atoms: C_5  and  C_6
REMARK    5  A    between atoms: C_6  and  C_7
REMARK    6  A    between atoms: C_7  and  C_8
REMARK    7  A    between atoms: C_8  and  C_9
REMARK    8  A    between atoms: C_9  and  C_10
REMARK    9  A    between atoms: C_10  and  C_11
REMARK   10  A    between atoms: C_11  and  C_12
REMARK   11  A    between atoms: C_12  and  C_13
REMARK   12  A    between atoms: C_13  and  C_14
REMARK   13  A    between atoms: C_14  and  C_15
REMARK   14  A    between atoms: C_15  and  C_16
REMARK   15  A    between atoms: C_16  and  C_17
REMARK   16  A    between atoms: C_17  and  C_18
REMARK   17  A    between atoms: C_18  and  N_19
REMARK   18  A    between atoms: N_22  and  C_23
REMARK                            x       y       z     vdW  Elec       q    Type
REMARK                         _______ _______ _______ _____ _____    ______ ____
ROOT
ATOM      1  C   UNL     1       7.499   4.574  16.941  0.00  0.00    +0.000 C 
ENDROOT
BRANCH   1   2
ATOM      2  C   UNL     1       6.359   4.083  16.053  0.00  0.00    +0.000 C 
BRANCH   2   3
ATOM      3  C   UNL     1       5.020   4.227  16.768  0.00  0.00    +0.000 C 
BRANCH   3   4
ATOM      4  C   UNL     1       4.550   5.677  16.754  0.00  0.00    +0.000 C 
BRANCH   4   5
ATOM      5  C   UNL     1       3.262   5.830  17.555  0.00  0.00    +0.000 C 
BRANCH   5   6
ATOM      6  C   UNL     1       3.389   6.973  18.554  0.00  0.00    +0.000 C 
BRANCH   6   7
ATOM      7  C   UNL     1       2.409   6.790  19.704  0.00  0.00    +0.000 C 
BRANCH   7   8
ATOM      8  C   UNL     1       1.440   5.652  19.408  0.00  0.00    +0.000 C 
BRANCH   8   9
ATOM      9  C   UNL     1       1.349   4.706  20.598  0.00  0.00    +0.000 C 
BRANCH   9  10
ATOM     10  C   UNL     1       2.713   4.108  20.931  0.00  0.00    +0.000 C 
BRANCH  10  11
ATOM     11  C   UNL     1       2.686   2.592  20.770  0.00  0.00    +0.000 C 
BRANCH  11  12
ATOM     12  C   UNL     1       1.700   2.160  19.686  0.00  0.00    +0.000 C 
BRANCH  12  14
ATOM     13  O   UNL     1       2.048   2.607  17.323  0.00  0.00    +0.000 OA
ATOM     14  C   UNL     1       2.376   2.019  18.342  0.00  0.00    +0.000 C 
BRANCH  14  15
ATOM     15  O   UNL     1       3.412   1.152  18.373  0.00  0.00    +0.000 OA
ATOM     16  H   UNL     1       3.424   0.577  19.160  0.00  0.00    +0.000 HD
ENDBRANCH  14  15
ENDBRANCH  12  14
ENDBRANCH  11  12
ENDBRANCH  10  11
ENDBRANCH   9  10
ENDBRANCH   8   9
ENDBRANCH   7   8
ENDBRANCH   6   7
ENDBRANCH   5   6
ENDBRANCH   4   5
ENDBRANCH   3   4
ENDBRANCH   2   3
ENDBRANCH   1   2
BRANCH   1  17
ATOM     17  C   UNL     1       7.048   4.694  18.394  0.00  0.00    +0.000 C 
BRANCH  17  18
ATOM     18  C   UNL     1       7.836   5.769  19.144  0.00  0.00    +0.000 C 
BRANCH  18  19
ATOM     19  C   UNL     1       7.806   7.083  18.367  0.00  0.00    +0.000 C 
BRANCH  19  20
ATOM     20  N   UNL     1       8.700   8.087  18.918  0.00  0.00    +0.000 N 
ATOM     21  C   UNL     1       8.655   9.373  18.437  0.00  0.00    +0.000 C 
ATOM     22  O   UNL     1       7.869   9.700  17.562  0.00  0.00    +0.000 OA
ATOM     23  N   UNL     1       9.610  10.193  18.998  0.00  0.00    +0.000 N 
ATOM     24  H   UNL     1       9.143   7.908  19.805  0.00  0.00    +0.000 HD
ATOM     25  H   UNL     1      10.374   9.717  19.451  0.00  0.00    +0.000 HD
BRANCH  23  26
ATOM     26  C   UNL     1       9.777  11.554  18.633  0.00  0.00    +0.000 A 
ATOM     27  C   UNL     1      10.688  11.944  17.637  0.00  0.00    +0.000 A 
ATOM     28  C   UNL     1      10.916  13.288  17.351  0.00  0.00    +0.000 A 
ATOM     29  C   UNL     1      10.208  14.257  18.039  0.00  0.00    +0.000 A 
ATOM     30  F   UNL     1      10.438  15.548  17.779  0.00  0.00    +0.000 F 
ATOM     31  C   UNL     1       9.263  13.901  18.996  0.00  0.00    +0.000 A 
ATOM     32  C   UNL     1       9.039  12.550  19.290  0.00  0.00    +0.000 A 
ENDBRANCH  23  26
ENDBRANCH  19  20
ENDBRANCH  18  19
ENDBRANCH  17  18
ENDBRANCH   1  17
TORSDOF 18
ENDMDL
