MODEL 1
REMARK VINA RESULT:      -8.1      0.000      0.000
REMARK  Name = 
REMARK  7 active torsions:
REMARK  status: ('A' for Active; 'I' for Inactive)
REMARK    1  A    between atoms: C_1  and  O_2
REMARK    2  A    between atoms: O_2  and  C_3
REMARK    3  A    between atoms: C_7  and  N_8
REMARK    4  A    between atoms: C_9  and  C_11
REMARK    5  A    between atoms: C_11  and  N_12
REMARK    6  A    between atoms: N_20  and  C_21
REMARK    7  A    between atoms: C_21  and  C_22
REMARK                            x       y       z     vdW  Elec       q    Type
REMARK                         _______ _______ _______ _____ _____    ______ ____
ROOT
ATOM      1  N   UNL     1      -0.325  10.709  22.493  0.00  0.00    +0.000 N 
ATOM      2  N   UNL     1      -1.511  10.978  23.148  0.00  0.00    +0.000 NA
ATOM      3  C   UNL     1      -1.983  11.998  22.494  0.00  0.00    +0.000 A 
ATOM      4  N   UNL     1      -1.202  12.449  21.482  0.00  0.00    +0.000 N 
ATOM      5  C   UNL     1      -0.143  11.590  21.422  0.00  0.00    +0.000 A 
ATOM      6  O   UNL     1       0.733  11.578  20.575  0.00  0.00    +0.000 OA
ATOM      7  C   UNL     1      -1.626  13.400  20.479  0.00  0.00    +0.000 C 
ATOM      8  C   UNL     1      -2.668  14.345  21.078  0.00  0.00    +0.000 C 
ATOM      9  N   UNL     1      -3.700  13.604  21.814  0.00  0.00    +0.000 N 
ATOM     10  C   UNL     1      -3.345  12.616  22.726  0.00  0.00    +0.000 C 
ATOM     11  O   UNL     1      -4.086  12.134  23.569  0.00  0.00    +0.000 OA
ENDROOT
BRANCH   1  12
ATOM     12  C   UNL     1       0.509   9.575  22.822  0.00  0.00    +0.000 C 
BRANCH  12  14
ATOM     13  N   UNL     1       1.632   8.029  21.301  0.00  0.00    +0.000 N 
ATOM     14  C   UNL     1       0.407   8.471  21.773  0.00  0.00    +0.000 C 
ATOM     15  O   UNL     1      -0.684   7.955  21.527  0.00  0.00    +0.000 OA
ATOM     16  H   UNL     1       2.443   8.452  21.754  0.00  0.00    +0.000 HD
BRANCH  13  21
ATOM     17  C   UNL     1       1.898   4.708  19.688  0.00  0.00    +0.000 A 
ATOM     18  C   UNL     1       2.350   5.061  18.415  0.00  0.00    +0.000 A 
ATOM     19  C   UNL     1       2.571   6.395  18.087  0.00  0.00    +0.000 A 
ATOM     20  C   UNL     1       2.333   7.390  19.033  0.00  0.00    +0.000 A 
ATOM     21  C   UNL     1       1.870   7.059  20.307  0.00  0.00    +0.000 A 
ATOM     22  C   UNL     1       1.662   5.709  20.635  0.00  0.00    +0.000 A 
BRANCH  17  24
ATOM     23  C   UNL     1       1.138   2.622  18.818  0.00  0.00    +0.000 C 
ATOM     24  O   UNL     1       1.743   3.360  19.869  0.00  0.00    +0.000 OA
ENDBRANCH  17  24
ENDBRANCH  13  21
ENDBRANCH  12  14
ENDBRANCH   1  12
BRANCH   9  25
ATOM     25  C   UNL     1      -5.088  13.660  21.390  0.00  0.00    +0.000 C 
BRANCH  25  26
ATOM     26  C   UNL     1      -5.532  12.526  20.517  0.00  0.00    +0.000 A 
ATOM     27  C   UNL     1      -4.936  12.301  19.266  0.00  0.00    +0.000 A 
ATOM     28  C   UNL     1      -5.426  11.303  18.419  0.00  0.00    +0.000 A 
ATOM     29  C   UNL     1      -6.506  10.513  18.817  0.00  0.00    +0.000 A 
ATOM     30  C   UNL     1      -7.092  10.719  20.064  0.00  0.00    +0.000 A 
ATOM     31  C   UNL     1      -6.602  11.718  20.900  0.00  0.00    +0.000 A 
ATOM     32  F   UNL     1      -7.197  11.921  22.085  0.00  0.00    +0.000 F 
ENDBRANCH  25  26
ENDBRANCH   9  25
TORSDOF 6
ENDMDL
MODEL 2
REMARK VINA RESULT:      -8.1      3.759      8.882
REMARK  Name = 
REMARK  7 active torsions:
REMARK  status: ('A' for Active; 'I' for Inactive)
REMARK    1  A    between atoms: C_1  and  O_2
REMARK    2  A    between atoms: O_2  and  C_3
REMARK    3  A    between atoms: C_7  and  N_8
REMARK    4  A    between atoms: C_9  and  C_11
REMARK    5  A    between atoms: C_11  and  N_12
REMARK    6  A    between atoms: N_20  and  C_21
REMARK    7  A    between atoms: C_21  and  C_22
REMARK                            x       y       z     vdW  Elec       q    Type
REMARK                         _______ _______ _______ _____ _____    ______ ____
ROOT
ATOM      1  N   UNL     1       0.696  10.423  20.564  0.00  0.00    +0.000 N 
ATOM      2  N   UNL     1       1.250  10.142  19.330  0.00  0.00    +0.000 NA
ATOM      3  C   UNL     1       1.645   8.910  19.459  0.00  0.00    +0.000 A 
ATOM      4  N   UNL     1       1.428   8.357  20.678  0.00  0.00    +0.000 N 
ATOM      5  C   UNL     1       0.758   9.303  21.398  0.00  0.00    +0.000 A 
ATOM      6  O   UNL     1       0.278   9.162  22.509  0.00  0.00    +0.000 OA
ATOM      7  C   UNL     1       1.560   6.948  20.975  0.00  0.00    +0.000 C 
ATOM      8  C   UNL     1       2.624   6.331  20.068  0.00  0.00    +0.000 C 
ATOM      9  N   UNL     1       2.431   6.731  18.669  0.00  0.00    +0.000 N 
ATOM     10  C   UNL     1       2.212   8.065  18.339  0.00  0.00    +0.000 C 
ATOM     11  O   UNL     1       2.304   8.540  17.217  0.00  0.00    +0.000 OA
ENDROOT
BRANCH   1  12
ATOM     12  C   UNL     1       0.031  11.674  20.855  0.00  0.00    +0.000 C 
BRANCH  12  14
ATOM     13  N   UNL     1      -1.645  11.022  19.201  0.00  0.00    +0.000 N 
ATOM     14  C   UNL     1      -0.929  12.080  19.740  0.00  0.00    +0.000 C 
ATOM     15  O   UNL     1      -1.121  13.272  19.496  0.00  0.00    +0.000 OA
ATOM     16  H   UNL     1      -1.483  10.122  19.655  0.00  0.00    +0.000 HD
BRANCH  13  21
ATOM     17  C   UNL     1      -3.008  10.705  15.774  0.00  0.00    +0.000 A 
ATOM     18  C   UNL     1      -4.319  11.145  15.963  0.00  0.00    +0.000 A 
ATOM     19  C   UNL     1      -4.756  11.550  17.221  0.00  0.00    +0.000 A 
ATOM     20  C   UNL     1      -3.881  11.511  18.304  0.00  0.00    +0.000 A 
ATOM     21  C   UNL     1      -2.569  11.064  18.140  0.00  0.00    +0.000 A 
ATOM     22  C   UNL     1      -2.132  10.669  16.865  0.00  0.00    +0.000 A 
BRANCH  17  24
ATOM     23  C   UNL     1      -3.787   9.887  13.675  0.00  0.00    +0.000 C 
ATOM     24  O   UNL     1      -2.718  10.356  14.484  0.00  0.00    +0.000 OA
ENDBRANCH  17  24
ENDBRANCH  13  21
ENDBRANCH  12  14
ENDBRANCH   1  12
BRANCH   9  25
ATOM     25  C   UNL     1       2.155   5.734  17.650  0.00  0.00    +0.000 C 
BRANCH  25  26
ATOM     26  C   UNL     1       2.395   4.316  18.069  0.00  0.00    +0.000 A 
ATOM     27  C   UNL     1       1.330   3.483  18.449  0.00  0.00    +0.000 A 
ATOM     28  C   UNL     1       1.577   2.196  18.933  0.00  0.00    +0.000 A 
ATOM     29  C   UNL     1       2.885   1.722  19.032  0.00  0.00    +0.000 A 
ATOM     30  C   UNL     1       3.948   2.536  18.641  0.00  0.00    +0.000 A 
ATOM     31  C   UNL     1       3.695   3.818  18.164  0.00  0.00    +0.000 A 
ATOM     32  F   UNL     1       4.730   4.597  17.820  0.00  0.00    +0.000 F 
ENDBRANCH  25  26
ENDBRANCH   9  25
TORSDOF 6
ENDMDL
MODEL 3
REMARK VINA RESULT:      -7.8      8.500     11.325
REMARK  Name = 
REMARK  7 active torsions:
REMARK  status: ('A' for Active; 'I' for Inactive)
REMARK    1  A    between atoms: C_1  and  O_2
REMARK    2  A    between atoms: O_2  and  C_3
REMARK    3  A    between atoms: C_7  and  N_8
REMARK    4  A    between atoms: C_9  and  C_11
REMARK    5  A    between atoms: C_11  and  N_12
REMARK    6  A    between atoms: N_20  and  C_21
REMARK    7  A    between atoms: C_21  and  C_22
REMARK                            x       y       z     vdW  Elec       q    Type
REMARK                         _______ _______ _______ _____ _____    ______ ____
ROOT
ATOM      1  N   UNL     1       7.072   6.164  18.126  0.00  0.00    +0.000 N 
ATOM      2  N   UNL     1       5.761   6.523  18.370  0.00  0.00    +0.000 NA
ATOM      3  C   UNL     1       5.084   5.651  17.683  0.00  0.00    +0.000 A 
ATOM      4  N   UNL     1       5.830   4.763  16.981  0.00  0.00    +0.000 N 
ATOM      5  C   UNL     1       7.128   5.038  17.298  0.00  0.00    +0.000 A 
ATOM      6  O   UNL     1       8.107   4.394  16.965  0.00  0.00    +0.000 OA
ATOM      7  C   UNL     1       5.307   3.571  16.349  0.00  0.00    +0.000 C 
ATOM      8  C   UNL     1       3.859   3.810  15.925  0.00  0.00    +0.000 C 
ATOM      9  N   UNL     1       3.079   4.421  17.008  0.00  0.00    +0.000 N 
ATOM     10  C   UNL     1       3.577   5.516  17.706  0.00  0.00    +0.000 C 
ATOM     11  O   UNL     1       2.921   6.253  18.426  0.00  0.00    +0.000 OA
ENDROOT
BRANCH   1  12
ATOM     12  C   UNL     1       8.192   6.810  18.773  0.00  0.00    +0.000 C 
BRANCH  12  14
ATOM     13  N   UNL     1       9.099   9.027  19.252  0.00  0.00    +0.000 N 
ATOM     14  C   UNL     1       8.281   8.290  18.411  0.00  0.00    +0.000 C 
ATOM     15  O   UNL     1       7.775   8.699  17.365  0.00  0.00    +0.000 OA
ATOM     16  H   UNL     1       9.582   8.480  19.966  0.00  0.00    +0.000 HD
BRANCH  13  21
ATOM     17  C   UNL     1      10.123  12.326  17.921  0.00  0.00    +0.000 A 
ATOM     18  C   UNL     1       9.914  13.143  19.033  0.00  0.00    +0.000 A 
ATOM     19  C   UNL     1       9.439  12.607  20.226  0.00  0.00    +0.000 A 
ATOM     20  C   UNL     1       9.160  11.244  20.311  0.00  0.00    +0.000 A 
ATOM     21  C   UNL     1       9.350  10.412  19.208  0.00  0.00    +0.000 A 
ATOM     22  C   UNL     1       9.843  10.958  18.011  0.00  0.00    +0.000 A 
BRANCH  17  24
ATOM     23  C   UNL     1      11.705  13.868  17.025  0.00  0.00    +0.000 C 
ATOM     24  O   UNL     1      10.608  12.989  16.826  0.00  0.00    +0.000 OA
ENDBRANCH  17  24
ENDBRANCH  13  21
ENDBRANCH  12  14
ENDBRANCH   1  12
BRANCH   9  25
ATOM     25  C   UNL     1       1.937   3.725  17.576  0.00  0.00    +0.000 C 
BRANCH  25  26
ATOM     26  C   UNL     1       2.080   3.346  19.019  0.00  0.00    +0.000 A 
ATOM     27  C   UNL     1       1.222   3.877  19.995  0.00  0.00    +0.000 A 
ATOM     28  C   UNL     1       1.428   3.594  21.347  0.00  0.00    +0.000 A 
ATOM     29  C   UNL     1       2.483   2.769  21.739  0.00  0.00    +0.000 A 
ATOM     30  C   UNL     1       3.330   2.224  20.775  0.00  0.00    +0.000 A 
ATOM     31  C   UNL     1       3.121   2.514  19.430  0.00  0.00    +0.000 A 
ATOM     32  F   UNL     1       3.962   2.003  18.519  0.00  0.00    +0.000 F 
ENDBRANCH  25  26
ENDBRANCH   9  25
TORSDOF 6
ENDMDL
MODEL 4
REMARK VINA RESULT:      -7.7      3.716      9.177
REMARK  Name = 
REMARK  7 active torsions:
REMARK  status: ('A' for Active; 'I' for Inactive)
REMARK    1  A    between atoms: C_1  and  O_2
REMARK    2  A    between atoms: O_2  and  C_3
REMARK    3  A    between atoms: C_7  and  N_8
REMARK    4  A    between atoms: C_9  and  C_11
REMARK    5  A    between atoms: C_11  and  N_12
REMARK    6  A    between atoms: N_20  and  C_21
REMARK    7  A    between atoms: C_21  and  C_22
REMARK                            x       y       z     vdW  Elec       q    Type
REMARK                         _______ _______ _______ _____ _____    ______ ____
ROOT
ATOM      1  N   UNL     1       0.335  10.434  20.760  0.00  0.00    +0.000 N 
ATOM      2  N   UNL     1       1.034  10.263  19.581  0.00  0.00    +0.000 NA
ATOM      3  C   UNL     1       1.488   9.048  19.682  0.00  0.00    +0.000 A 
ATOM      4  N   UNL     1       1.177   8.408  20.836  0.00  0.00    +0.000 N 
ATOM      5  C   UNL     1       0.376   9.268  21.531  0.00  0.00    +0.000 A 
ATOM      6  O   UNL     1      -0.210   9.031  22.572  0.00  0.00    +0.000 OA
ATOM      7  C   UNL     1       1.362   6.993  21.065  0.00  0.00    +0.000 C 
ATOM      8  C   UNL     1       2.553   6.494  20.248  0.00  0.00    +0.000 C 
ATOM      9  N   UNL     1       2.486   6.970  18.861  0.00  0.00    +0.000 N 
ATOM     10  C   UNL     1       2.223   8.308  18.586  0.00  0.00    +0.000 C 
ATOM     11  O   UNL     1       2.404   8.857  17.510  0.00  0.00    +0.000 OA
ENDROOT
BRANCH   1  12
ATOM     12  C   UNL     1      -0.433  11.626  21.046  0.00  0.00    +0.000 C 
BRANCH  12  14
ATOM     13  N   UNL     1      -1.816  10.973  19.142  0.00  0.00    +0.000 N 
ATOM     14  C   UNL     1      -1.302  12.040  19.863  0.00  0.00    +0.000 C 
ATOM     15  O   UNL     1      -1.609  13.222  19.709  0.00  0.00    +0.000 OA
ATOM     16  H   UNL     1      -1.598  10.053  19.527  0.00  0.00    +0.000 HD
BRANCH  13  21
ATOM     17  C   UNL     1      -4.733  11.644  16.963  0.00  0.00    +0.000 A 
ATOM     18  C   UNL     1      -4.280  11.141  15.742  0.00  0.00    +0.000 A 
ATOM     19  C   UNL     1      -3.012  10.577  15.636  0.00  0.00    +0.000 A 
ATOM     20  C   UNL     1      -2.183  10.518  16.755  0.00  0.00    +0.000 A 
ATOM     21  C   UNL     1      -2.612  11.026  17.981  0.00  0.00    +0.000 A 
ATOM     22  C   UNL     1      -3.898  11.582  18.084  0.00  0.00    +0.000 A 
BRANCH  17  24
ATOM     23  C   UNL     1      -6.887  11.800  17.973  0.00  0.00    +0.000 C 
ATOM     24  O   UNL     1      -6.003  12.152  16.919  0.00  0.00    +0.000 OA
ENDBRANCH  17  24
ENDBRANCH  13  21
ENDBRANCH  12  14
ENDBRANCH   1  12
BRANCH   9  25
ATOM     25  C   UNL     1       2.383   6.026  17.762  0.00  0.00    +0.000 C 
BRANCH  25  26
ATOM     26  C   UNL     1       3.688   5.484  17.266  0.00  0.00    +0.000 A 
ATOM     27  C   UNL     1       4.738   6.343  16.906  0.00  0.00    +0.000 A 
ATOM     28  C   UNL     1       5.913   5.831  16.351  0.00  0.00    +0.000 A 
ATOM     29  C   UNL     1       6.058   4.456  16.160  0.00  0.00    +0.000 A 
ATOM     30  C   UNL     1       5.027   3.594  16.529  0.00  0.00    +0.000 A 
ATOM     31  C   UNL     1       3.858   4.112  17.078  0.00  0.00    +0.000 A 
ATOM     32  F   UNL     1       2.865   3.271  17.401  0.00  0.00    +0.000 F 
ENDBRANCH  25  26
ENDBRANCH   9  25
TORSDOF 6
ENDMDL
MODEL 5
REMARK VINA RESULT:      -7.6      4.120      9.526
REMARK  Name = 
REMARK  7 active torsions:
REMARK  status: ('A' for Active; 'I' for Inactive)
REMARK    1  A    between atoms: C_1  and  O_2
REMARK    2  A    between atoms: O_2  and  C_3
REMARK    3  A    between atoms: C_7  and  N_8
REMARK    4  A    between atoms: C_9  and  C_11
REMARK    5  A    between atoms: C_11  and  N_12
REMARK    6  A    between atoms: N_20  and  C_21
REMARK    7  A    between atoms: C_21  and  C_22
REMARK                            x       y       z     vdW  Elec       q    Type
REMARK                         _______ _______ _______ _____ _____    ______ ____
ROOT
ATOM      1  N   UNL     1       0.871   9.671  20.145  0.00  0.00    +0.000 N 
ATOM      2  N   UNL     1       0.933   8.414  20.714  0.00  0.00    +0.000 NA
ATOM      3  C   UNL     1       1.656   7.743  19.866  0.00  0.00    +0.000 A 
ATOM      4  N   UNL     1       2.055   8.435  18.771  0.00  0.00    +0.000 N 
ATOM      5  C   UNL     1       1.606   9.711  18.956  0.00  0.00    +0.000 A 
ATOM      6  O   UNL     1       1.851  10.674  18.253  0.00  0.00    +0.000 OA
ATOM      7  C   UNL     1       3.052   7.977  17.829  0.00  0.00    +0.000 C 
ATOM      8  C   UNL     1       3.032   6.451  17.765  0.00  0.00    +0.000 C 
ATOM      9  N   UNL     1       3.022   5.859  19.108  0.00  0.00    +0.000 N 
ATOM     10  C   UNL     1       2.141   6.326  20.078  0.00  0.00    +0.000 C 
ATOM     11  O   UNL     1       1.864   5.747  21.118  0.00  0.00    +0.000 OA
ENDROOT
BRANCH   1  12
ATOM     12  C   UNL     1       0.235  10.793  20.799  0.00  0.00    +0.000 C 
BRANCH  12  14
ATOM     13  N   UNL     1      -1.368  10.507  18.979  0.00  0.00    +0.000 N 
ATOM     14  C   UNL     1      -0.906  11.366  19.964  0.00  0.00    +0.000 C 
ATOM     15  O   UNL     1      -1.429  12.433  20.286  0.00  0.00    +0.000 OA
ATOM     16  H   UNL     1      -0.929   9.586  18.975  0.00  0.00    +0.000 HD
BRANCH  13  21
ATOM     17  C   UNL     1      -3.043  10.752  15.687  0.00  0.00    +0.000 A 
ATOM     18  C   UNL     1      -4.292  11.255  16.055  0.00  0.00    +0.000 A 
ATOM     19  C   UNL     1      -4.583  11.518  17.390  0.00  0.00    +0.000 A 
ATOM     20  C   UNL     1      -3.624  11.271  18.371  0.00  0.00    +0.000 A 
ATOM     21  C   UNL     1      -2.374  10.757  18.025  0.00  0.00    +0.000 A 
ATOM     22  C   UNL     1      -2.083  10.506  16.674  0.00  0.00    +0.000 A 
BRANCH  17  24
ATOM     23  C   UNL     1      -3.987   9.983  13.637  0.00  0.00    +0.000 C 
ATOM     24  O   UNL     1      -2.896  10.559  14.340  0.00  0.00    +0.000 OA
ENDBRANCH  17  24
ENDBRANCH  13  21
ENDBRANCH  12  14
ENDBRANCH   1  12
BRANCH   9  25
ATOM     25  C   UNL     1       4.116   5.010  19.547  0.00  0.00    +0.000 C 
BRANCH  25  26
ATOM     26  C   UNL     1       5.236   4.860  18.563  0.00  0.00    +0.000 A 
ATOM     27  C   UNL     1       6.438   5.567  18.722  0.00  0.00    +0.000 A 
ATOM     28  C   UNL     1       7.435   5.496  17.746  0.00  0.00    +0.000 A 
ATOM     29  C   UNL     1       7.248   4.710  16.608  0.00  0.00    +0.000 A 
ATOM     30  C   UNL     1       6.064   3.992  16.449  0.00  0.00    +0.000 A 
ATOM     31  C   UNL     1       5.074   4.072  17.424  0.00  0.00    +0.000 A 
ATOM     32  F   UNL     1       3.929   3.397  17.241  0.00  0.00    +0.000 F 
ENDBRANCH  25  26
ENDBRANCH   9  25
TORSDOF 6
ENDMDL
MODEL 6
REMARK VINA RESULT:      -7.6      3.044      8.646
REMARK  Name = 
REMARK  7 active torsions:
REMARK  status: ('A' for Active; 'I' for Inactive)
REMARK    1  A    between atoms: C_1  and  O_2
REMARK    2  A    between atoms: O_2  and  C_3
REMARK    3  A    between atoms: C_7  and  N_8
REMARK    4  A    between atoms: C_9  and  C_11
REMARK    5  A    between atoms: C_11  and  N_12
REMARK    6  A    between atoms: N_20  and  C_21
REMARK    7  A    between atoms: C_21  and  C_22
REMARK                            x       y       z     vdW  Elec       q    Type
REMARK                         _______ _______ _______ _____ _____    ______ ____
ROOT
ATOM      1  N   UNL     1       0.991  12.165  20.442  0.00  0.00    +0.000 N 
ATOM      2  N   UNL     1       0.851  10.959  21.101  0.00  0.00    +0.000 NA
ATOM      3  C   UNL     1       1.175  10.088  20.191  0.00  0.00    +0.000 A 
ATOM      4  N   UNL     1       1.491  10.607  18.979  0.00  0.00    +0.000 N 
ATOM      5  C   UNL     1       1.435  11.962  19.131  0.00  0.00    +0.000 A 
ATOM      6  O   UNL     1       1.760  12.798  18.307  0.00  0.00    +0.000 OA
ATOM      7  C   UNL     1       2.107   9.863  17.903  0.00  0.00    +0.000 C 
ATOM      8  C   UNL     1       1.682   8.397  17.985  0.00  0.00    +0.000 C 
ATOM      9  N   UNL     1       1.813   7.879  19.353  0.00  0.00    +0.000 N 
ATOM     10  C   UNL     1       1.315   8.601  20.432  0.00  0.00    +0.000 C 
ATOM     11  O   UNL     1       1.133   8.156  21.555  0.00  0.00    +0.000 OA
ENDROOT
BRANCH   1  12
ATOM     12  C   UNL     1       0.824  13.440  21.104  0.00  0.00    +0.000 C 
BRANCH  12  14
ATOM     13  N   UNL     1      -1.515  12.744  20.983  0.00  0.00    +0.000 N 
ATOM     14  C   UNL     1      -0.643  13.736  21.404  0.00  0.00    +0.000 C 
ATOM     15  O   UNL     1      -0.945  14.707  22.098  0.00  0.00    +0.000 OA
ATOM     16  H   UNL     1      -1.063  11.921  20.582  0.00  0.00    +0.000 HD
BRANCH  13  21
ATOM     17  C   UNL     1      -4.891  12.698  22.499  0.00  0.00    +0.000 A 
ATOM     18  C   UNL     1      -5.699  12.695  21.361  0.00  0.00    +0.000 A 
ATOM     19  C   UNL     1      -5.132  12.705  20.090  0.00  0.00    +0.000 A 
ATOM     20  C   UNL     1      -3.745  12.725  19.950  0.00  0.00    +0.000 A 
ATOM     21  C   UNL     1      -2.920  12.740  21.075  0.00  0.00    +0.000 A 
ATOM     22  C   UNL     1      -3.500  12.717  22.354  0.00  0.00    +0.000 A 
BRANCH  17  24
ATOM     23  C   UNL     1      -4.883  12.283  24.847  0.00  0.00    +0.000 C 
ATOM     24  O   UNL     1      -5.588  12.670  23.676  0.00  0.00    +0.000 OA
ENDBRANCH  17  24
ENDBRANCH  13  21
ENDBRANCH  12  14
ENDBRANCH   1  12
BRANCH   9  25
ATOM     25  C   UNL     1       2.721   6.782  19.639  0.00  0.00    +0.000 C 
BRANCH  25  26
ATOM     26  C   UNL     1       2.135   5.414  19.473  0.00  0.00    +0.000 A 
ATOM     27  C   UNL     1       1.429   4.796  20.518  0.00  0.00    +0.000 A 
ATOM     28  C   UNL     1       0.975   3.482  20.385  0.00  0.00    +0.000 A 
ATOM     29  C   UNL     1       1.209   2.774  19.205  0.00  0.00    +0.000 A 
ATOM     30  C   UNL     1       1.895   3.385  18.156  0.00  0.00    +0.000 A 
ATOM     31  C   UNL     1       2.348   4.693  18.297  0.00  0.00    +0.000 A 
ATOM     32  F   UNL     1       3.030   5.255  17.289  0.00  0.00    +0.000 F 
ENDBRANCH  25  26
ENDBRANCH   9  25
TORSDOF 6
ENDMDL
MODEL 7
REMARK VINA RESULT:      -7.6      3.360      8.663
REMARK  Name = 
REMARK  7 active torsions:
REMARK  status: ('A' for Active; 'I' for Inactive)
REMARK    1  A    between atoms: C_1  and  O_2
REMARK    2  A    between atoms: O_2  and  C_3
REMARK    3  A    between atoms: C_7  and  N_8
REMARK    4  A    between atoms: C_9  and  C_11
REMARK    5  A    between atoms: C_11  and  N_12
REMARK    6  A    between atoms: N_20  and  C_21
REMARK    7  A    between atoms: C_21  and  C_22
REMARK                            x       y       z     vdW  Elec       q    Type
REMARK                         _______ _______ _______ _____ _____    ______ ____
ROOT
ATOM      1  N   UNL     1       0.573  11.343  20.768  0.00  0.00    +0.000 N 
ATOM      2  N   UNL     1       1.087  11.029  19.526  0.00  0.00    +0.000 NA
ATOM      3  C   UNL     1       1.424   9.780  19.654  0.00  0.00    +0.000 A 
ATOM      4  N   UNL     1       1.205   9.244  20.880  0.00  0.00    +0.000 N 
ATOM      5  C   UNL     1       0.597  10.225  21.609  0.00  0.00    +0.000 A 
ATOM      6  O   UNL     1       0.133  10.114  22.729  0.00  0.00    +0.000 OA
ATOM      7  C   UNL     1       1.273   7.832  21.183  0.00  0.00    +0.000 C 
ATOM      8  C   UNL     1       2.287   7.159  20.259  0.00  0.00    +0.000 C 
ATOM      9  N   UNL     1       2.086   7.561  18.862  0.00  0.00    +0.000 N 
ATOM     10  C   UNL     1       1.927   8.902  18.529  0.00  0.00    +0.000 C 
ATOM     11  O   UNL     1       2.019   9.366  17.402  0.00  0.00    +0.000 OA
ENDROOT
BRANCH   1  12
ATOM     12  C   UNL     1      -0.024  12.627  21.065  0.00  0.00    +0.000 C 
BRANCH  12  14
ATOM     13  N   UNL     1      -1.806  11.795  19.616  0.00  0.00    +0.000 N 
ATOM     14  C   UNL     1      -1.211  12.925  20.155  0.00  0.00    +0.000 C 
ATOM     15  O   UNL     1      -1.649  14.073  20.071  0.00  0.00    +0.000 OA
ATOM     16  H   UNL     1      -1.414  10.910  19.942  0.00  0.00    +0.000 HD
BRANCH  13  21
ATOM     17  C   UNL     1      -3.640  11.443  16.420  0.00  0.00    +0.000 A 
ATOM     18  C   UNL     1      -4.955  11.648  16.839  0.00  0.00    +0.000 A 
ATOM     19  C   UNL     1      -5.240  11.907  18.177  0.00  0.00    +0.000 A 
ATOM     20  C   UNL     1      -4.206  11.954  19.109  0.00  0.00    +0.000 A 
ATOM     21  C   UNL     1      -2.885  11.740  18.713  0.00  0.00    +0.000 A 
ATOM     22  C   UNL     1      -2.604  11.493  17.359  0.00  0.00    +0.000 A 
BRANCH  17  24
ATOM     23  C   UNL     1      -2.968   9.970  14.671  0.00  0.00    +0.000 C 
ATOM     24  O   UNL     1      -3.512  11.217  15.077  0.00  0.00    +0.000 OA
ENDBRANCH  17  24
ENDBRANCH  13  21
ENDBRANCH  12  14
ENDBRANCH   1  12
BRANCH   9  25
ATOM     25  C   UNL     1       1.741   6.573  17.854  0.00  0.00    +0.000 C 
BRANCH  25  26
ATOM     26  C   UNL     1       2.718   5.446  17.710  0.00  0.00    +0.000 A 
ATOM     27  C   UNL     1       4.057   5.689  17.368  0.00  0.00    +0.000 A 
ATOM     28  C   UNL     1       4.933   4.624  17.139  0.00  0.00    +0.000 A 
ATOM     29  C   UNL     1       4.485   3.309  17.260  0.00  0.00    +0.000 A 
ATOM     30  C   UNL     1       3.160   3.058  17.615  0.00  0.00    +0.000 A 
ATOM     31  C   UNL     1       2.293   4.124  17.838  0.00  0.00    +0.000 A 
ATOM     32  F   UNL     1       1.015   3.864  18.150  0.00  0.00    +0.000 F 
ENDBRANCH  25  26
ENDBRANCH   9  25
TORSDOF 6
ENDMDL
MODEL 8
REMARK VINA RESULT:      -7.6      3.106      8.716
REMARK  Name = 
REMARK  7 active torsions:
REMARK  status: ('A' for Active; 'I' for Inactive)
REMARK    1  A    between atoms: C_1  and  O_2
REMARK    2  A    between atoms: O_2  and  C_3
REMARK    3  A    between atoms: C_7  and  N_8
REMARK    4  A    between atoms: C_9  and  C_11
REMARK    5  A    between atoms: C_11  and  N_12
REMARK    6  A    between atoms: N_20  and  C_21
REMARK    7  A    between atoms: C_21  and  C_22
REMARK                            x       y       z     vdW  Elec       q    Type
REMARK                         _______ _______ _______ _____ _____    ______ ____
ROOT
ATOM      1  N   UNL     1       0.888  12.274  20.670  0.00  0.00    +0.000 N 
ATOM      2  N   UNL     1       0.793  11.043  21.289  0.00  0.00    +0.000 NA
ATOM      3  C   UNL     1       1.103  10.212  20.338  0.00  0.00    +0.000 A 
ATOM      4  N   UNL     1       1.367  10.780  19.136  0.00  0.00    +0.000 N 
ATOM      5  C   UNL     1       1.291  12.128  19.339  0.00  0.00    +0.000 A 
ATOM      6  O   UNL     1       1.571  12.998  18.535  0.00  0.00    +0.000 OA
ATOM      7  C   UNL     1       1.961  10.088  18.014  0.00  0.00    +0.000 C 
ATOM      8  C   UNL     1       1.568   8.611  18.057  0.00  0.00    +0.000 C 
ATOM      9  N   UNL     1       1.756   8.048  19.400  0.00  0.00    +0.000 N 
ATOM     10  C   UNL     1       1.280   8.720  20.520  0.00  0.00    +0.000 C 
ATOM     11  O   UNL     1       1.145   8.232  21.633  0.00  0.00    +0.000 OA
ENDROOT
BRANCH   1  12
ATOM     12  C   UNL     1       0.718  13.522  21.382  0.00  0.00    +0.000 C 
BRANCH  12  14
ATOM     13  N   UNL     1      -1.481  12.858  22.214  0.00  0.00    +0.000 N 
ATOM     14  C   UNL     1      -0.756  13.861  21.591  0.00  0.00    +0.000 C 
ATOM     15  O   UNL     1      -1.166  14.996  21.348  0.00  0.00    +0.000 OA
ATOM     16  H   UNL     1      -0.930  12.050  22.505  0.00  0.00    +0.000 HD
BRANCH  13  21
ATOM     17  C   UNL     1      -5.142  12.778  21.668  0.00  0.00    +0.000 A 
ATOM     18  C   UNL     1      -5.613  12.863  22.979  0.00  0.00    +0.000 A 
ATOM     19  C   UNL     1      -4.724  12.950  24.046  0.00  0.00    +0.000 A 
ATOM     20  C   UNL     1      -3.351  12.945  23.807  0.00  0.00    +0.000 A 
ATOM     21  C   UNL     1      -2.859  12.849  22.505  0.00  0.00    +0.000 A 
ATOM     22  C   UNL     1      -3.763  12.775  21.432  0.00  0.00    +0.000 A 
BRANCH  17  24
ATOM     23  C   UNL     1      -7.413  12.275  21.146  0.00  0.00    +0.000 C 
ATOM     24  O   UNL     1      -6.130  12.715  20.724  0.00  0.00    +0.000 OA
ENDBRANCH  17  24
ENDBRANCH  13  21
ENDBRANCH  12  14
ENDBRANCH   1  12
BRANCH   9  25
ATOM     25  C   UNL     1       2.694   6.961  19.617  0.00  0.00    +0.000 C 
BRANCH  25  26
ATOM     26  C   UNL     1       2.128   5.587  19.427  0.00  0.00    +0.000 A 
ATOM     27  C   UNL     1       1.429   4.942  20.460  0.00  0.00    +0.000 A 
ATOM     28  C   UNL     1       0.994   3.624  20.305  0.00  0.00    +0.000 A 
ATOM     29  C   UNL     1       1.240   2.939  19.115  0.00  0.00    +0.000 A 
ATOM     30  C   UNL     1       1.918   3.577  18.077  0.00  0.00    +0.000 A 
ATOM     31  C   UNL     1       2.352   4.889  18.240  0.00  0.00    +0.000 A 
ATOM     32  F   UNL     1       3.028   5.476  17.242  0.00  0.00    +0.000 F 
ENDBRANCH  25  26
ENDBRANCH   9  25
TORSDOF 6
ENDMDL
MODEL 9
REMARK VINA RESULT:      -7.6      3.764      8.878
REMARK  Name = 
REMARK  7 active torsions:
REMARK  status: ('A' for Active; 'I' for Inactive)
REMARK    1  A    between atoms: C_1  and  O_2
REMARK    2  A    between atoms: O_2  and  C_3
REMARK    3  A    between atoms: C_7  and  N_8
REMARK    4  A    between atoms: C_9  and  C_11
REMARK    5  A    between atoms: C_11  and  N_12
REMARK    6  A    between atoms: N_20  and  C_21
REMARK    7  A    between atoms: C_21  and  C_22
REMARK                            x       y       z     vdW  Elec       q    Type
REMARK                         _______ _______ _______ _____ _____    ______ ____
ROOT
ATOM      1  N   UNL     1       0.329  10.829  20.736  0.00  0.00    +0.000 N 
ATOM      2  N   UNL     1       1.000  10.635  19.544  0.00  0.00    +0.000 NA
ATOM      3  C   UNL     1       1.451   9.421  19.655  0.00  0.00    +0.000 A 
ATOM      4  N   UNL     1       1.163   8.801  20.827  0.00  0.00    +0.000 N 
ATOM      5  C   UNL     1       0.383   9.676  21.525  0.00  0.00    +0.000 A 
ATOM      6  O   UNL     1      -0.180   9.459  22.583  0.00  0.00    +0.000 OA
ATOM      7  C   UNL     1       1.347   7.389  21.075  0.00  0.00    +0.000 C 
ATOM      8  C   UNL     1       2.517   6.871  20.239  0.00  0.00    +0.000 C 
ATOM      9  N   UNL     1       2.421   7.324  18.846  0.00  0.00    +0.000 N 
ATOM     10  C   UNL     1       2.157   8.658  18.555  0.00  0.00    +0.000 C 
ATOM     11  O   UNL     1       2.316   9.189  17.466  0.00  0.00    +0.000 OA
ENDROOT
BRANCH   1  12
ATOM     12  C   UNL     1      -0.427  12.030  21.020  0.00  0.00    +0.000 C 
BRANCH  12  14
ATOM     13  N   UNL     1      -1.720  11.203  19.120  0.00  0.00    +0.000 N 
ATOM     14  C   UNL     1      -1.530  12.262  19.993  0.00  0.00    +0.000 C 
ATOM     15  O   UNL     1      -2.255  13.254  20.082  0.00  0.00    +0.000 OA
ATOM     16  H   UNL     1      -1.141  10.383  19.311  0.00  0.00    +0.000 HD
BRANCH  13  21
ATOM     17  C   UNL     1      -2.999  10.585  15.701  0.00  0.00    +0.000 A 
ATOM     18  C   UNL     1      -4.331  10.980  15.836  0.00  0.00    +0.000 A 
ATOM     19  C   UNL     1      -4.810  11.454  17.054  0.00  0.00    +0.000 A 
ATOM     20  C   UNL     1      -3.956  11.529  18.152  0.00  0.00    +0.000 A 
ATOM     21  C   UNL     1      -2.624  11.129  18.042  0.00  0.00    +0.000 A 
ATOM     22  C   UNL     1      -2.144  10.664  16.806  0.00  0.00    +0.000 A 
BRANCH  17  24
ATOM     23  C   UNL     1      -3.720  10.032  13.498  0.00  0.00    +0.000 C 
ATOM     24  O   UNL     1      -2.669  10.158  14.444  0.00  0.00    +0.000 OA
ENDBRANCH  17  24
ENDBRANCH  13  21
ENDBRANCH  12  14
ENDBRANCH   1  12
BRANCH   9  25
ATOM     25  C   UNL     1       2.288   6.362  17.766  0.00  0.00    +0.000 C 
BRANCH  25  26
ATOM     26  C   UNL     1       3.554   5.660  17.382  0.00  0.00    +0.000 A 
ATOM     27  C   UNL     1       4.725   6.382  17.103  0.00  0.00    +0.000 A 
ATOM     28  C   UNL     1       5.871   5.723  16.649  0.00  0.00    +0.000 A 
ATOM     29  C   UNL     1       5.864   4.338  16.481  0.00  0.00    +0.000 A 
ATOM     30  C   UNL     1       4.710   3.612  16.771  0.00  0.00    +0.000 A 
ATOM     31  C   UNL     1       3.572   4.275  17.219  0.00  0.00    +0.000 A 
ATOM     32  F   UNL     1       2.462   3.563  17.466  0.00  0.00    +0.000 F 
ENDBRANCH  25  26
ENDBRANCH   9  25
TORSDOF 6
ENDMDL
