MODEL 1
REMARK VINA RESULT:      -6.1      0.000      0.000
REMARK  Name = 
REMARK  2 active torsions:
REMARK  status: ('A' for Active; 'I' for Inactive)
REMARK    1  A    between atoms: O_1  and  C_2
REMARK    2  A    between atoms: C_6  and  C_7
REMARK                            x       y       z     vdW  Elec       q    Type
REMARK                         _______ _______ _______ _____ _____    ______ ____
ROOT
ATOM      1  C   UNL     1       2.106   2.716  18.337  0.00  0.00    +0.000 A 
ATOM      2  C   UNL     1       1.534   3.946  18.644  0.00  0.00    +0.000 A 
ATOM      3  C   UNL     1       2.189   5.116  18.262  0.00  0.00    +0.000 A 
ATOM      4  C   UNL     1       3.403   5.047  17.574  0.00  0.00    +0.000 A 
ATOM      5  C   UNL     1       3.975   3.807  17.249  0.00  0.00    +0.000 A 
ATOM      6  C   UNL     1       3.314   2.638  17.649  0.00  0.00    +0.000 A 
ENDROOT
BRANCH   5   7
ATOM      7  C   UNL     1       5.286   3.721  16.494  0.00  0.00    +0.000 C 
ATOM      8  C   UNL     1       6.379   4.612  17.142  0.00  0.00    +0.000 C 
ATOM      9  N   UNL     1       7.652   4.597  16.384  0.00  0.00    +0.000 NA
ATOM     10  C   UNL     1       7.360   4.957  14.985  0.00  0.00    +0.000 C 
ATOM     11  C   UNL     1       6.276   4.061  14.367  0.00  0.00    +0.000 C 
ATOM     12  O   UNL     1       5.064   4.110  15.124  0.00  0.00    +0.000 OA
ATOM     13  H   UNL     1       8.026   3.648  16.403  0.00  0.00    +0.000 HD
ENDBRANCH   5   7
BRANCH   1  14
ATOM     14  O   UNL     1       1.501   1.546  18.693  0.00  0.00    +0.000 OA
ATOM     15  H   UNL     1       0.594   1.551  18.345  0.00  0.00    +0.000 HD
ENDBRANCH   1  14
TORSDOF 2
ENDMDL
MODEL 2
REMARK VINA RESULT:      -6.1      3.036      5.109
REMARK  Name = 
REMARK  2 active torsions:
REMARK  status: ('A' for Active; 'I' for Inactive)
REMARK    1  A    between atoms: O_1  and  C_2
REMARK    2  A    between atoms: C_6  and  C_7
REMARK                            x       y       z     vdW  Elec       q    Type
REMARK                         _______ _______ _______ _____ _____    ______ ____
ROOT
ATOM      1  C   UNL     1       7.099   5.656  19.247  0.00  0.00    +0.000 A 
ATOM      2  C   UNL     1       7.553   6.486  18.227  0.00  0.00    +0.000 A 
ATOM      3  C   UNL     1       6.774   6.649  17.083  0.00  0.00    +0.000 A 
ATOM      4  C   UNL     1       5.549   5.987  16.970  0.00  0.00    +0.000 A 
ATOM      5  C   UNL     1       5.079   5.161  18.003  0.00  0.00    +0.000 A 
ATOM      6  C   UNL     1       5.878   4.995  19.144  0.00  0.00    +0.000 A 
ENDROOT
BRANCH   5   7
ATOM      7  C   UNL     1       3.747   4.448  17.895  0.00  0.00    +0.000 C 
ATOM      8  C   UNL     1       2.801   4.821  19.067  0.00  0.00    +0.000 C 
ATOM      9  N   UNL     1       1.516   4.086  19.021  0.00  0.00    +0.000 NA
ATOM     10  C   UNL     1       1.812   2.643  18.946  0.00  0.00    +0.000 C 
ATOM     11  C   UNL     1       2.749   2.301  17.779  0.00  0.00    +0.000 C 
ATOM     12  O   UNL     1       3.979   3.025  17.866  0.00  0.00    +0.000 OA
ATOM     13  H   UNL     1       1.021   4.359  18.171  0.00  0.00    +0.000 HD
ENDBRANCH   5   7
BRANCH   1  14
ATOM     14  O   UNL     1       7.830   5.466  20.383  0.00  0.00    +0.000 OA
ATOM     15  H   UNL     1       7.330   5.826  21.133  0.00  0.00    +0.000 HD
ENDBRANCH   1  14
TORSDOF 2
ENDMDL
MODEL 3
REMARK VINA RESULT:      -6.1      2.446      5.069
REMARK  Name = 
REMARK  2 active torsions:
REMARK  status: ('A' for Active; 'I' for Inactive)
REMARK    1  A    between atoms: O_1  and  C_2
REMARK    2  A    between atoms: C_6  and  C_7
REMARK                            x       y       z     vdW  Elec       q    Type
REMARK                         _______ _______ _______ _____ _____    ______ ____
ROOT
ATOM      1  C   UNL     1       5.637   4.295  15.432  0.00  0.00    +0.000 A 
ATOM      2  C   UNL     1       5.728   5.683  15.407  0.00  0.00    +0.000 A 
ATOM      3  C   UNL     1       4.996   6.431  16.327  0.00  0.00    +0.000 A 
ATOM      4  C   UNL     1       4.185   5.788  17.266  0.00  0.00    +0.000 A 
ATOM      5  C   UNL     1       4.103   4.387  17.305  0.00  0.00    +0.000 A 
ATOM      6  C   UNL     1       4.834   3.646  16.366  0.00  0.00    +0.000 A 
ENDROOT
BRANCH   5   7
ATOM      7  C   UNL     1       3.235   3.680  18.326  0.00  0.00    +0.000 C 
ATOM      8  C   UNL     1       2.757   2.296  17.810  0.00  0.00    +0.000 C 
ATOM      9  N   UNL     1       1.852   1.612  18.762  0.00  0.00    +0.000 NA
ATOM     10  C   UNL     1       0.744   2.530  19.086  0.00  0.00    +0.000 C 
ATOM     11  C   UNL     1       1.244   3.889  19.594  0.00  0.00    +0.000 C 
ATOM     12  O   UNL     1       2.106   4.518  18.643  0.00  0.00    +0.000 OA
ATOM     13  H   UNL     1       2.373   1.420  19.618  0.00  0.00    +0.000 HD
ENDBRANCH   5   7
BRANCH   1  14
ATOM     14  O   UNL     1       6.334   3.524  14.549  0.00  0.00    +0.000 OA
ATOM     15  H   UNL     1       5.730   2.863  14.174  0.00  0.00    +0.000 HD
ENDBRANCH   1  14
TORSDOF 2
ENDMDL
MODEL 4
REMARK VINA RESULT:      -6.1      1.438      1.676
REMARK  Name = 
REMARK  2 active torsions:
REMARK  status: ('A' for Active; 'I' for Inactive)
REMARK    1  A    between atoms: O_1  and  C_2
REMARK    2  A    between atoms: C_6  and  C_7
REMARK                            x       y       z     vdW  Elec       q    Type
REMARK                         _______ _______ _______ _____ _____    ______ ____
ROOT
ATOM      1  C   UNL     1       1.143   2.993  18.985  0.00  0.00    +0.000 A 
ATOM      2  C   UNL     1       0.951   3.892  20.028  0.00  0.00    +0.000 A 
ATOM      3  C   UNL     1       2.010   4.702  20.433  0.00  0.00    +0.000 A 
ATOM      4  C   UNL     1       3.248   4.611  19.791  0.00  0.00    +0.000 A 
ATOM      5  C   UNL     1       3.441   3.715  18.727  0.00  0.00    +0.000 A 
ATOM      6  C   UNL     1       2.371   2.897  18.337  0.00  0.00    +0.000 A 
ENDROOT
BRANCH   5   7
ATOM      7  C   UNL     1       4.775   3.616  18.016  0.00  0.00    +0.000 C 
ATOM      8  C   UNL     1       5.874   4.433  18.746  0.00  0.00    +0.000 C 
ATOM      9  N   UNL     1       7.173   4.407  18.035  0.00  0.00    +0.000 NA
ATOM     10  C   UNL     1       6.947   4.842  16.644  0.00  0.00    +0.000 C 
ATOM     11  C   UNL     1       5.857   4.017  15.946  0.00  0.00    +0.000 C 
ATOM     12  O   UNL     1       4.619   4.076  16.659  0.00  0.00    +0.000 OA
ATOM     13  H   UNL     1       7.512   3.444  18.021  0.00  0.00    +0.000 HD
ENDBRANCH   5   7
BRANCH   1  14
ATOM     14  O   UNL     1       0.134   2.180  18.557  0.00  0.00    +0.000 OA
ATOM     15  H   UNL     1       0.048   2.278  17.595  0.00  0.00    +0.000 HD
ENDBRANCH   1  14
TORSDOF 2
ENDMDL
MODEL 5
REMARK VINA RESULT:      -6.1      1.791      2.110
REMARK  Name = 
REMARK  2 active torsions:
REMARK  status: ('A' for Active; 'I' for Inactive)
REMARK    1  A    between atoms: O_1  and  C_2
REMARK    2  A    between atoms: C_6  and  C_7
REMARK                            x       y       z     vdW  Elec       q    Type
REMARK                         _______ _______ _______ _____ _____    ______ ____
ROOT
ATOM      1  C   UNL     1       2.106   3.336  20.763  0.00  0.00    +0.000 A 
ATOM      2  C   UNL     1       0.911   3.440  20.058  0.00  0.00    +0.000 A 
ATOM      3  C   UNL     1       0.945   3.554  18.670  0.00  0.00    +0.000 A 
ATOM      4  C   UNL     1       2.170   3.557  17.997  0.00  0.00    +0.000 A 
ATOM      5  C   UNL     1       3.378   3.436  18.703  0.00  0.00    +0.000 A 
ATOM      6  C   UNL     1       3.331   3.335  20.101  0.00  0.00    +0.000 A 
ENDROOT
BRANCH   5   7
ATOM      7  C   UNL     1       4.711   3.429  17.983  0.00  0.00    +0.000 C 
ATOM      8  C   UNL     1       5.759   4.312  18.710  0.00  0.00    +0.000 C 
ATOM      9  N   UNL     1       7.052   4.374  17.990  0.00  0.00    +0.000 NA
ATOM     10  C   UNL     1       6.788   4.802  16.604  0.00  0.00    +0.000 C 
ATOM     11  C   UNL     1       5.749   3.912  15.908  0.00  0.00    +0.000 C 
ATOM     12  O   UNL     1       4.515   3.886  16.630  0.00  0.00    +0.000 OA
ATOM     13  H   UNL     1       7.453   3.436  17.967  0.00  0.00    +0.000 HD
ENDBRANCH   5   7
BRANCH   1  14
ATOM     14  O   UNL     1       2.119   3.224  22.122  0.00  0.00    +0.000 OA
ATOM     15  H   UNL     1       2.946   3.609  22.454  0.00  0.00    +0.000 HD
ENDBRANCH   1  14
TORSDOF 2
ENDMDL
MODEL 6
REMARK VINA RESULT:      -6.0      3.100      5.185
REMARK  Name = 
REMARK  2 active torsions:
REMARK  status: ('A' for Active; 'I' for Inactive)
REMARK    1  A    between atoms: O_1  and  C_2
REMARK    2  A    between atoms: C_6  and  C_7
REMARK                            x       y       z     vdW  Elec       q    Type
REMARK                         _______ _______ _______ _____ _____    ______ ____
ROOT
ATOM      1  C   UNL     1       7.408   5.765  19.120  0.00  0.00    +0.000 A 
ATOM      2  C   UNL     1       7.591   6.658  18.070  0.00  0.00    +0.000 A 
ATOM      3  C   UNL     1       6.516   6.960  17.236  0.00  0.00    +0.000 A 
ATOM      4  C   UNL     1       5.268   6.373  17.461  0.00  0.00    +0.000 A 
ATOM      5  C   UNL     1       5.075   5.483  18.529  0.00  0.00    +0.000 A 
ATOM      6  C   UNL     1       6.167   5.177  19.353  0.00  0.00    +0.000 A 
ENDROOT
BRANCH   5   7
ATOM      7  C   UNL     1       3.723   4.848  18.788  0.00  0.00    +0.000 C 
ATOM      8  C   UNL     1       3.864   3.391  19.302  0.00  0.00    +0.000 C 
ATOM      9  N   UNL     1       2.556   2.726  19.500  0.00  0.00    +0.000 NA
ATOM     10  C   UNL     1       1.790   2.831  18.245  0.00  0.00    +0.000 C 
ATOM     11  C   UNL     1       1.665   4.281  17.759  0.00  0.00    +0.000 C 
ATOM     12  O   UNL     1       2.949   4.883  17.573  0.00  0.00    +0.000 OA
ATOM     13  H   UNL     1       2.049   3.226  20.231  0.00  0.00    +0.000 HD
ENDBRANCH   5   7
BRANCH   1  14
ATOM     14  O   UNL     1       8.432   5.440  19.959  0.00  0.00    +0.000 OA
ATOM     15  H   UNL     1       8.926   6.249  20.169  0.00  0.00    +0.000 HD
ENDBRANCH   1  14
TORSDOF 2
ENDMDL
MODEL 7
REMARK VINA RESULT:      -6.0      2.161      2.700
REMARK  Name = 
REMARK  2 active torsions:
REMARK  status: ('A' for Active; 'I' for Inactive)
REMARK    1  A    between atoms: O_1  and  C_2
REMARK    2  A    between atoms: C_6  and  C_7
REMARK                            x       y       z     vdW  Elec       q    Type
REMARK                         _______ _______ _______ _____ _____    ______ ____
ROOT
ATOM      1  C   UNL     1       2.049   5.488  20.360  0.00  0.00    +0.000 A 
ATOM      2  C   UNL     1       1.064   4.513  20.473  0.00  0.00    +0.000 A 
ATOM      3  C   UNL     1       1.243   3.286  19.838  0.00  0.00    +0.000 A 
ATOM      4  C   UNL     1       2.405   3.041  19.102  0.00  0.00    +0.000 A 
ATOM      5  C   UNL     1       3.410   4.017  18.998  0.00  0.00    +0.000 A 
ATOM      6  C   UNL     1       3.211   5.253  19.631  0.00  0.00    +0.000 A 
ENDROOT
BRANCH   5   7
ATOM      7  C   UNL     1       4.678   3.759  18.211  0.00  0.00    +0.000 C 
ATOM      8  C   UNL     1       5.887   4.528  18.805  0.00  0.00    +0.000 C 
ATOM      9  N   UNL     1       7.126   4.345  18.015  0.00  0.00    +0.000 NA
ATOM     10  C   UNL     1       6.837   4.704  16.614  0.00  0.00    +0.000 C 
ATOM     11  C   UNL     1       5.637   3.929  16.050  0.00  0.00    +0.000 C 
ATOM     12  O   UNL     1       4.462   4.140  16.837  0.00  0.00    +0.000 OA
ATOM     13  H   UNL     1       7.386   3.359  18.048  0.00  0.00    +0.000 HD
ENDBRANCH   5   7
BRANCH   1  14
ATOM     14  O   UNL     1       1.914   6.704  20.964  0.00  0.00    +0.000 OA
ATOM     15  H   UNL     1       1.848   6.565  21.923  0.00  0.00    +0.000 HD
ENDBRANCH   1  14
TORSDOF 2
ENDMDL
MODEL 8
REMARK VINA RESULT:      -6.0      2.432      5.212
REMARK  Name = 
REMARK  2 active torsions:
REMARK  status: ('A' for Active; 'I' for Inactive)
REMARK    1  A    between atoms: O_1  and  C_2
REMARK    2  A    between atoms: C_6  and  C_7
REMARK                            x       y       z     vdW  Elec       q    Type
REMARK                         _______ _______ _______ _____ _____    ______ ____
ROOT
ATOM      1  C   UNL     1       7.025   4.723  16.847  0.00  0.00    +0.000 A 
ATOM      2  C   UNL     1       7.448   5.385  17.995  0.00  0.00    +0.000 A 
ATOM      3  C   UNL     1       6.609   5.423  19.107  0.00  0.00    +0.000 A 
ATOM      4  C   UNL     1       5.361   4.796  19.066  0.00  0.00    +0.000 A 
ATOM      5  C   UNL     1       4.937   4.114  17.914  0.00  0.00    +0.000 A 
ATOM      6  C   UNL     1       5.784   4.094  16.797  0.00  0.00    +0.000 A 
ENDROOT
BRANCH   5   7
ATOM      7  C   UNL     1       3.590   3.423  17.861  0.00  0.00    +0.000 C 
ATOM      8  C   UNL     1       2.429   4.443  17.721  0.00  0.00    +0.000 C 
ATOM      9  N   UNL     1       1.096   3.797  17.734  0.00  0.00    +0.000 NA
ATOM     10  C   UNL     1       0.999   2.964  18.947  0.00  0.00    +0.000 C 
ATOM     11  C   UNL     1       2.158   1.964  19.061  0.00  0.00    +0.000 C 
ATOM     12  O   UNL     1       3.424   2.629  19.053  0.00  0.00    +0.000 OA
ATOM     13  H   UNL     1       1.026   3.189  16.918  0.00  0.00    +0.000 HD
ENDBRANCH   5   7
BRANCH   1  14
ATOM     14  O   UNL     1       7.813   4.663  15.735  0.00  0.00    +0.000 OA
ATOM     15  H   UNL     1       8.329   3.841  15.769  0.00  0.00    +0.000 HD
ENDBRANCH   1  14
TORSDOF 2
ENDMDL
MODEL 9
REMARK VINA RESULT:      -6.0      2.403      2.837
REMARK  Name = 
REMARK  2 active torsions:
REMARK  status: ('A' for Active; 'I' for Inactive)
REMARK    1  A    between atoms: O_1  and  C_2
REMARK    2  A    between atoms: C_6  and  C_7
REMARK                            x       y       z     vdW  Elec       q    Type
REMARK                         _______ _______ _______ _____ _____    ______ ____
ROOT
ATOM      1  C   UNL     1       2.127   2.611  19.133  0.00  0.00    +0.000 A 
ATOM      2  C   UNL     1       1.138   3.064  20.000  0.00  0.00    +0.000 A 
ATOM      3  C   UNL     1       1.280   4.312  20.605  0.00  0.00    +0.000 A 
ATOM      4  C   UNL     1       2.404   5.097  20.335  0.00  0.00    +0.000 A 
ATOM      5  C   UNL     1       3.397   4.651  19.448  0.00  0.00    +0.000 A 
ATOM      6  C   UNL     1       3.249   3.389  18.856  0.00  0.00    +0.000 A 
ENDROOT
BRANCH   5   7
ATOM      7  C   UNL     1       4.614   5.499  19.140  0.00  0.00    +0.000 C 
ATOM      8  C   UNL     1       4.598   6.012  17.675  0.00  0.00    +0.000 C 
ATOM      9  N   UNL     1       5.810   6.789  17.329  0.00  0.00    +0.000 NA
ATOM     10  C   UNL     1       6.992   5.967  17.648  0.00  0.00    +0.000 C 
ATOM     11  C   UNL     1       6.983   5.474  19.101  0.00  0.00    +0.000 C 
ATOM     12  O   UNL     1       5.802   4.723  19.391  0.00  0.00    +0.000 OA
ATOM     13  H   UNL     1       5.832   7.627  17.912  0.00  0.00    +0.000 HD
ENDBRANCH   5   7
BRANCH   1  14
ATOM     14  O   UNL     1       2.030   1.396  18.521  0.00  0.00    +0.000 OA
ATOM     15  H   UNL     1       2.924   1.095  18.293  0.00  0.00    +0.000 HD
ENDBRANCH   1  14
TORSDOF 2
ENDMDL
