MODEL 1
REMARK VINA RESULT:      -7.1      0.000      0.000
REMARK  Name = 
REMARK  5 active torsions:
REMARK  status: ('A' for Active; 'I' for Inactive)
REMARK    1  A    between atoms: C_1  and  C_2
REMARK    2  A    between atoms: C_2  and  C_3
REMARK    3  A    between atoms: N_7  and  C_8
REMARK    4  A    between atoms: C_8  and  N_9
REMARK    5  A    between atoms: N_9  and  C_10
REMARK                            x       y       z     vdW  Elec       q    Type
REMARK                         _______ _______ _______ _____ _____    ______ ____
ROOT
ATOM      1  C   UNL     1       5.573   6.478  18.012  0.00  0.00    +0.000 C 
ENDROOT
BRANCH   1   8
ATOM      2  C   UNL     1       7.678   5.418  13.762  0.00  0.00    +0.000 C 
ATOM      3  C   UNL     1       6.857   4.821  14.893  0.00  0.00    +0.000 C 
ATOM      4  C   UNL     1       5.952   3.693  14.403  0.00  0.00    +0.000 C 
ATOM      5  N   UNL     1       7.672   4.377  15.999  0.00  0.00    +0.000 N 
ATOM      6  C   UNL     1       7.194   4.851  17.198  0.00  0.00    +0.000 C 
ATOM      7  O   UNL     1       7.552   4.419  18.285  0.00  0.00    +0.000 OA
ATOM      8  N   UNL     1       6.266   5.812  16.952  0.00  0.00    +0.000 N 
ATOM      9  C   UNL     1       5.990   5.875  15.615  0.00  0.00    +0.000 C 
ATOM     10  O   UNL     1       5.162   6.581  15.071  0.00  0.00    +0.000 OA
ATOM     11  H   UNL     1       8.334   3.613  15.978  0.00  0.00    +0.000 HD
ENDBRANCH   1   8
BRANCH   1  12
ATOM     12  N   UNL     1       4.142   6.469  17.740  0.00  0.00    +0.000 N 
ATOM     13  H   UNL     1       3.955   6.465  16.736  0.00  0.00    +0.000 HD
BRANCH  12  14
ATOM     14  C   UNL     1       3.377   5.472  18.389  0.00  0.00    +0.000 A 
ATOM     15  C   UNL     1       3.589   4.111  18.121  0.00  0.00    +0.000 A 
ATOM     16  C   UNL     1       2.908   3.119  18.827  0.00  0.00    +0.000 A 
ATOM     17 CL   UNL     1       3.209   1.465  18.469  0.00  0.00    +0.000 Cl
ATOM     18  C   UNL     1       2.012   3.458  19.836  0.00  0.00    +0.000 A 
ATOM     19  C   UNL     1       1.795   4.801  20.141  0.00  0.00    +0.000 A 
ATOM     20  C   UNL     1       2.483   5.797  19.436  0.00  0.00    +0.000 A 
ATOM     21 CL   UNL     1       2.170   7.446  19.852  0.00  0.00    +0.000 Cl
ENDBRANCH  12  14
ENDBRANCH   1  12
TORSDOF 3
ENDMDL
MODEL 2
REMARK VINA RESULT:      -7.1      2.950      5.670
REMARK  Name = 
REMARK  5 active torsions:
REMARK  status: ('A' for Active; 'I' for Inactive)
REMARK    1  A    between atoms: C_1  and  C_2
REMARK    2  A    between atoms: C_2  and  C_3
REMARK    3  A    between atoms: N_7  and  C_8
REMARK    4  A    between atoms: C_8  and  N_9
REMARK    5  A    between atoms: N_9  and  C_10
REMARK                            x       y       z     vdW  Elec       q    Type
REMARK                         _______ _______ _______ _____ _____    ______ ____
ROOT
ATOM      1  C   UNL     1       2.681   5.658  17.840  0.00  0.00    +0.000 C 
ENDROOT
BRANCH   1   8
ATOM      2  C   UNL     1       1.358   2.669  21.436  0.00  0.00    +0.000 C 
ATOM      3  C   UNL     1       2.405   2.879  20.355  0.00  0.00    +0.000 C 
ATOM      4  C   UNL     1       3.761   2.304  20.757  0.00  0.00    +0.000 C 
ATOM      5  N   UNL     1       1.992   2.359  19.072  0.00  0.00    +0.000 N 
ATOM      6  C   UNL     1       2.173   3.286  18.072  0.00  0.00    +0.000 C 
ATOM      7  O   UNL     1       2.138   3.008  16.882  0.00  0.00    +0.000 OA
ATOM      8  N   UNL     1       2.427   4.495  18.635  0.00  0.00    +0.000 N 
ATOM      9  C   UNL     1       2.585   4.367  19.987  0.00  0.00    +0.000 C 
ATOM     10  O   UNL     1       2.884   5.244  20.775  0.00  0.00    +0.000 OA
ATOM     11  H   UNL     1       1.847   1.384  18.846  0.00  0.00    +0.000 HD
ENDBRANCH   1   8
BRANCH   1  12
ATOM     12  N   UNL     1       4.055   6.096  18.042  0.00  0.00    +0.000 N 
ATOM     13  H   UNL     1       4.290   6.137  19.035  0.00  0.00    +0.000 HD
BRANCH  12  14
ATOM     14  C   UNL     1       5.057   5.400  17.327  0.00  0.00    +0.000 A 
ATOM     15  C   UNL     1       4.874   5.056  15.978  0.00  0.00    +0.000 A 
ATOM     16  C   UNL     1       5.894   4.458  15.238  0.00  0.00    +0.000 A 
ATOM     17 CL   UNL     1       5.624   4.065  13.587  0.00  0.00    +0.000 Cl
ATOM     18  C   UNL     1       7.133   4.206  15.817  0.00  0.00    +0.000 A 
ATOM     19  C   UNL     1       7.354   4.555  17.149  0.00  0.00    +0.000 A 
ATOM     20  C   UNL     1       6.332   5.160  17.890  0.00  0.00    +0.000 A 
ATOM     21 CL   UNL     1       6.660   5.566  19.539  0.00  0.00    +0.000 Cl
ENDBRANCH  12  14
ENDBRANCH   1  12
TORSDOF 3
ENDMDL
MODEL 3
REMARK VINA RESULT:      -7.0      1.049      1.068
REMARK  Name = 
REMARK  5 active torsions:
REMARK  status: ('A' for Active; 'I' for Inactive)
REMARK    1  A    between atoms: C_1  and  C_2
REMARK    2  A    between atoms: C_2  and  C_3
REMARK    3  A    between atoms: N_7  and  C_8
REMARK    4  A    between atoms: C_8  and  N_9
REMARK    5  A    between atoms: N_9  and  C_10
REMARK                            x       y       z     vdW  Elec       q    Type
REMARK                         _______ _______ _______ _____ _____    ______ ____
ROOT
ATOM      1  C   UNL     1       5.897   6.743  18.082  0.00  0.00    +0.000 C 
ENDROOT
BRANCH   1   8
ATOM      2  C   UNL     1       7.514   5.178  13.774  0.00  0.00    +0.000 C 
ATOM      3  C   UNL     1       6.804   4.730  15.040  0.00  0.00    +0.000 C 
ATOM      4  C   UNL     1       5.826   3.589  14.769  0.00  0.00    +0.000 C 
ATOM      5  N   UNL     1       7.721   4.374  16.097  0.00  0.00    +0.000 N 
ATOM      6  C   UNL     1       7.385   4.986  17.282  0.00  0.00    +0.000 C 
ATOM      7  O   UNL     1       7.845   4.655  18.366  0.00  0.00    +0.000 OA
ATOM      8  N   UNL     1       6.458   5.947  17.032  0.00  0.00    +0.000 N 
ATOM      9  C   UNL     1       6.044   5.882  15.732  0.00  0.00    +0.000 C 
ATOM     10  O   UNL     1       5.180   6.556  15.204  0.00  0.00    +0.000 OA
ATOM     11  H   UNL     1       8.359   3.590  16.090  0.00  0.00    +0.000 HD
ENDBRANCH   1   8
BRANCH   1  12
ATOM     12  N   UNL     1       5.263   5.876  19.064  0.00  0.00    +0.000 N 
ATOM     13  H   UNL     1       4.942   6.406  19.876  0.00  0.00    +0.000 HD
BRANCH  12  14
ATOM     14  C   UNL     1       4.236   5.025  18.593  0.00  0.00    +0.000 A 
ATOM     15  C   UNL     1       4.374   3.629  18.646  0.00  0.00    +0.000 A 
ATOM     16  C   UNL     1       3.329   2.783  18.275  0.00  0.00    +0.000 A 
ATOM     17 CL   UNL     1       3.544   1.080  18.367  0.00  0.00    +0.000 Cl
ATOM     18  C   UNL     1       2.108   3.306  17.860  0.00  0.00    +0.000 A 
ATOM     19  C   UNL     1       1.932   4.689  17.817  0.00  0.00    +0.000 A 
ATOM     20  C   UNL     1       2.979   5.538  18.194  0.00  0.00    +0.000 A 
ATOM     21 CL   UNL     1       2.707   7.244  18.115  0.00  0.00    +0.000 Cl
ENDBRANCH  12  14
ENDBRANCH   1  12
TORSDOF 3
ENDMDL
MODEL 4
REMARK VINA RESULT:      -6.9      3.024      6.149
REMARK  Name = 
REMARK  5 active torsions:
REMARK  status: ('A' for Active; 'I' for Inactive)
REMARK    1  A    between atoms: C_1  and  C_2
REMARK    2  A    between atoms: C_2  and  C_3
REMARK    3  A    between atoms: N_7  and  C_8
REMARK    4  A    between atoms: C_8  and  N_9
REMARK    5  A    between atoms: N_9  and  C_10
REMARK                            x       y       z     vdW  Elec       q    Type
REMARK                         _______ _______ _______ _____ _____    ______ ____
ROOT
ATOM      1  C   UNL     1       4.029   3.519  17.192  0.00  0.00    +0.000 C 
ENDROOT
BRANCH   1   8
ATOM      2  C   UNL     1       2.406   2.893  21.730  0.00  0.00    +0.000 C 
ATOM      3  C   UNL     1       2.212   3.727  20.474  0.00  0.00    +0.000 C 
ATOM      4  C   UNL     1       0.768   4.201  20.326  0.00  0.00    +0.000 C 
ATOM      5  N   UNL     1       3.124   4.844  20.401  0.00  0.00    +0.000 N 
ATOM      6  C   UNL     1       3.748   4.904  19.177  0.00  0.00    +0.000 C 
ATOM      7  O   UNL     1       4.364   5.884  18.782  0.00  0.00    +0.000 OA
ATOM      8  N   UNL     1       3.520   3.742  18.511  0.00  0.00    +0.000 N 
ATOM      9  C   UNL     1       2.621   2.972  19.192  0.00  0.00    +0.000 C 
ATOM     10  O   UNL     1       2.156   1.905  18.839  0.00  0.00    +0.000 OA
ATOM     11  H   UNL     1       3.134   5.644  21.020  0.00  0.00    +0.000 HD
ENDBRANCH   1   8
BRANCH   1  12
ATOM     12  N   UNL     1       5.475   3.689  17.192  0.00  0.00    +0.000 N 
ATOM     13  H   UNL     1       5.944   2.878  17.598  0.00  0.00    +0.000 HD
BRANCH  12  14
ATOM     14  C   UNL     1       6.074   4.042  15.961  0.00  0.00    +0.000 A 
ATOM     15  C   UNL     1       5.687   3.418  14.764  0.00  0.00    +0.000 A 
ATOM     16  C   UNL     1       6.202   3.828  13.535  0.00  0.00    +0.000 A 
ATOM     17 CL   UNL     1       5.689   3.039  12.096  0.00  0.00    +0.000 Cl
ATOM     18  C   UNL     1       7.103   4.885  13.461  0.00  0.00    +0.000 A 
ATOM     19  C   UNL     1       7.492   5.539  14.630  0.00  0.00    +0.000 A 
ATOM     20  C   UNL     1       6.971   5.132  15.864  0.00  0.00    +0.000 A 
ATOM     21 CL   UNL     1       7.493   5.975  17.281  0.00  0.00    +0.000 Cl
ENDBRANCH  12  14
ENDBRANCH   1  12
TORSDOF 3
ENDMDL
MODEL 5
REMARK VINA RESULT:      -6.9      3.047      5.734
REMARK  Name = 
REMARK  5 active torsions:
REMARK  status: ('A' for Active; 'I' for Inactive)
REMARK    1  A    between atoms: C_1  and  C_2
REMARK    2  A    between atoms: C_2  and  C_3
REMARK    3  A    between atoms: N_7  and  C_8
REMARK    4  A    between atoms: C_8  and  N_9
REMARK    5  A    between atoms: N_9  and  C_10
REMARK                            x       y       z     vdW  Elec       q    Type
REMARK                         _______ _______ _______ _____ _____    ______ ____
ROOT
ATOM      1  C   UNL     1       5.058   4.663  19.252  0.00  0.00    +0.000 C 
ENDROOT
BRANCH   1   8
ATOM      2  C   UNL     1       0.772   2.441  18.693  0.00  0.00    +0.000 C 
ATOM      3  C   UNL     1       1.776   2.898  19.739  0.00  0.00    +0.000 C 
ATOM      4  C   UNL     1       1.098   3.256  21.059  0.00  0.00    +0.000 C 
ATOM      5  N   UNL     1       2.833   1.937  19.952  0.00  0.00    +0.000 N 
ATOM      6  C   UNL     1       4.071   2.532  19.904  0.00  0.00    +0.000 C 
ATOM      7  O   UNL     1       5.095   1.991  20.298  0.00  0.00    +0.000 OA
ATOM      8  N   UNL     1       3.936   3.787  19.401  0.00  0.00    +0.000 N 
ATOM      9  C   UNL     1       2.614   4.105  19.267  0.00  0.00    +0.000 C 
ATOM     10  O   UNL     1       2.151   5.170  18.906  0.00  0.00    +0.000 OA
ATOM     11  H   UNL     1       2.723   1.015  20.353  0.00  0.00    +0.000 HD
ENDBRANCH   1   8
BRANCH   1  12
ATOM     12  N   UNL     1       6.128   3.969  18.550  0.00  0.00    +0.000 N 
ATOM     13  H   UNL     1       5.963   2.961  18.525  0.00  0.00    +0.000 HD
BRANCH  12  14
ATOM     14  C   UNL     1       6.459   4.447  17.261  0.00  0.00    +0.000 A 
ATOM     15  C   UNL     1       5.967   3.816  16.108  0.00  0.00    +0.000 A 
ATOM     16  C   UNL     1       6.208   4.338  14.838  0.00  0.00    +0.000 A 
ATOM     17 CL   UNL     1       5.575   3.534  13.457  0.00  0.00    +0.000 Cl
ATOM     18  C   UNL     1       6.930   5.518  14.682  0.00  0.00    +0.000 A 
ATOM     19  C   UNL     1       7.415   6.180  15.810  0.00  0.00    +0.000 A 
ATOM     20  C   UNL     1       7.168   5.659  17.086  0.00  0.00    +0.000 A 
ATOM     21 CL   UNL     1       7.798   6.519  18.447  0.00  0.00    +0.000 Cl
ENDBRANCH  12  14
ENDBRANCH   1  12
TORSDOF 3
ENDMDL
MODEL 6
REMARK VINA RESULT:      -6.9      1.461      2.760
REMARK  Name = 
REMARK  5 active torsions:
REMARK  status: ('A' for Active; 'I' for Inactive)
REMARK    1  A    between atoms: C_1  and  C_2
REMARK    2  A    between atoms: C_2  and  C_3
REMARK    3  A    between atoms: N_7  and  C_8
REMARK    4  A    between atoms: C_8  and  N_9
REMARK    5  A    between atoms: N_9  and  C_10
REMARK                            x       y       z     vdW  Elec       q    Type
REMARK                         _______ _______ _______ _____ _____    ______ ____
ROOT
ATOM      1  C   UNL     1       5.939   4.711  19.153  0.00  0.00    +0.000 C 
ENDROOT
BRANCH   1   8
ATOM      2  C   UNL     1       5.975   6.079  14.489  0.00  0.00    +0.000 C 
ATOM      3  C   UNL     1       6.132   4.875  15.403  0.00  0.00    +0.000 C 
ATOM      4  C   UNL     1       5.671   3.585  14.727  0.00  0.00    +0.000 C 
ATOM      5  N   UNL     1       7.476   4.731  15.910  0.00  0.00    +0.000 N 
ATOM      6  C   UNL     1       7.483   4.550  17.274  0.00  0.00    +0.000 C 
ATOM      7  O   UNL     1       8.460   4.159  17.897  0.00  0.00    +0.000 OA
ATOM      8  N   UNL     1       6.246   4.832  17.760  0.00  0.00    +0.000 N 
ATOM      9  C   UNL     1       5.367   5.038  16.734  0.00  0.00    +0.000 C 
ATOM     10  O   UNL     1       4.172   5.248  16.825  0.00  0.00    +0.000 OA
ATOM     11  H   UNL     1       8.297   4.515  15.361  0.00  0.00    +0.000 HD
ENDBRANCH   1   8
BRANCH   1  12
ATOM     12  N   UNL     1       5.219   3.467  19.386  0.00  0.00    +0.000 N 
ATOM     13  H   UNL     1       5.669   2.907  20.111  0.00  0.00    +0.000 HD
BRANCH  12  14
ATOM     14  C   UNL     1       3.831   3.572  19.634  0.00  0.00    +0.000 A 
ATOM     15  C   UNL     1       3.280   4.748  20.166  0.00  0.00    +0.000 A 
ATOM     16  C   UNL     1       1.902   4.896  20.322  0.00  0.00    +0.000 A 
ATOM     17 CL   UNL     1       1.275   6.361  20.969  0.00  0.00    +0.000 Cl
ATOM     18  C   UNL     1       1.032   3.883  19.933  0.00  0.00    +0.000 A 
ATOM     19  C   UNL     1       1.547   2.709  19.382  0.00  0.00    +0.000 A 
ATOM     20  C   UNL     1       2.930   2.563  19.220  0.00  0.00    +0.000 A 
ATOM     21 CL   UNL     1       3.513   1.085  18.536  0.00  0.00    +0.000 Cl
ENDBRANCH  12  14
ENDBRANCH   1  12
TORSDOF 3
ENDMDL
MODEL 7
REMARK VINA RESULT:      -6.9      2.996      6.127
REMARK  Name = 
REMARK  5 active torsions:
REMARK  status: ('A' for Active; 'I' for Inactive)
REMARK    1  A    between atoms: C_1  and  C_2
REMARK    2  A    between atoms: C_2  and  C_3
REMARK    3  A    between atoms: N_7  and  C_8
REMARK    4  A    between atoms: C_8  and  N_9
REMARK    5  A    between atoms: N_9  and  C_10
REMARK                            x       y       z     vdW  Elec       q    Type
REMARK                         _______ _______ _______ _____ _____    ______ ____
ROOT
ATOM      1  C   UNL     1       4.737   4.728  18.812  0.00  0.00    +0.000 C 
ENDROOT
BRANCH   1   8
ATOM      2  C   UNL     1       1.363   2.680  21.648  0.00  0.00    +0.000 C 
ATOM      3  C   UNL     1       1.603   3.237  20.255  0.00  0.00    +0.000 C 
ATOM      4  C   UNL     1       0.740   2.538  19.207  0.00  0.00    +0.000 C 
ATOM      5  N   UNL     1       1.424   4.669  20.190  0.00  0.00    +0.000 N 
ATOM      6  C   UNL     1       2.486   5.281  19.566  0.00  0.00    +0.000 C 
ATOM      7  O   UNL     1       2.459   6.437  19.168  0.00  0.00    +0.000 OA
ATOM      8  N   UNL     1       3.500   4.385  19.446  0.00  0.00    +0.000 N 
ATOM      9  C   UNL     1       3.083   3.140  19.826  0.00  0.00    +0.000 C 
ATOM     10  O   UNL     1       3.723   2.107  19.778  0.00  0.00    +0.000 OA
ATOM     11  H   UNL     1       0.552   5.164  20.318  0.00  0.00    +0.000 HD
ENDBRANCH   1   8
BRANCH   1  12
ATOM     12  N   UNL     1       5.164   3.633  17.953  0.00  0.00    +0.000 N 
ATOM     13  H   UNL     1       4.401   2.978  17.778  0.00  0.00    +0.000 HD
BRANCH  12  14
ATOM     14  C   UNL     1       5.800   3.986  16.741  0.00  0.00    +0.000 A 
ATOM     15  C   UNL     1       5.198   3.712  15.503  0.00  0.00    +0.000 A 
ATOM     16  C   UNL     1       5.772   4.144  14.307  0.00  0.00    +0.000 A 
ATOM     17 CL   UNL     1       4.990   3.791  12.817  0.00  0.00    +0.000 Cl
ATOM     18  C   UNL     1       6.952   4.880  14.313  0.00  0.00    +0.000 A 
ATOM     19  C   UNL     1       7.564   5.187  15.528  0.00  0.00    +0.000 A 
ATOM     20  C   UNL     1       6.986   4.759  16.729  0.00  0.00    +0.000 A 
ATOM     21 CL   UNL     1       7.791   5.163  18.205  0.00  0.00    +0.000 Cl
ENDBRANCH  12  14
ENDBRANCH   1  12
TORSDOF 3
ENDMDL
MODEL 8
REMARK VINA RESULT:      -6.9      2.997      6.060
REMARK  Name = 
REMARK  5 active torsions:
REMARK  status: ('A' for Active; 'I' for Inactive)
REMARK    1  A    between atoms: C_1  and  C_2
REMARK    2  A    between atoms: C_2  and  C_3
REMARK    3  A    between atoms: N_7  and  C_8
REMARK    4  A    between atoms: C_8  and  N_9
REMARK    5  A    between atoms: N_9  and  C_10
REMARK                            x       y       z     vdW  Elec       q    Type
REMARK                         _______ _______ _______ _____ _____    ______ ____
ROOT
ATOM      1  C   UNL     1       3.889   3.432  16.984  0.00  0.00    +0.000 C 
ENDROOT
BRANCH   1   8
ATOM      2  C   UNL     1       1.105   2.833  20.922  0.00  0.00    +0.000 C 
ATOM      3  C   UNL     1       2.034   3.816  20.229  0.00  0.00    +0.000 C 
ATOM      4  C   UNL     1       1.654   5.264  20.530  0.00  0.00    +0.000 C 
ATOM      5  N   UNL     1       3.425   3.580  20.539  0.00  0.00    +0.000 N 
ATOM      6  C   UNL     1       4.194   3.541  19.399  0.00  0.00    +0.000 C 
ATOM      7  O   UNL     1       5.415   3.606  19.408  0.00  0.00    +0.000 OA
ATOM      8  N   UNL     1       3.374   3.465  18.319  0.00  0.00    +0.000 N 
ATOM      9  C   UNL     1       2.071   3.619  18.699  0.00  0.00    +0.000 C 
ATOM     10  O   UNL     1       1.097   3.665  17.972  0.00  0.00    +0.000 OA
ATOM     11  H   UNL     1       3.859   3.694  21.445  0.00  0.00    +0.000 HD
ENDBRANCH   1   8
BRANCH   1  12
ATOM     12  N   UNL     1       4.737   4.595  16.761  0.00  0.00    +0.000 N 
ATOM     13  H   UNL     1       5.250   4.848  17.606  0.00  0.00    +0.000 HD
BRANCH  12  14
ATOM     14  C   UNL     1       5.611   4.541  15.650  0.00  0.00    +0.000 A 
ATOM     15  C   UNL     1       5.263   3.830  14.491  0.00  0.00    +0.000 A 
ATOM     16  C   UNL     1       6.074   3.852  13.357  0.00  0.00    +0.000 A 
ATOM     17 CL   UNL     1       5.599   2.973  11.958  0.00  0.00    +0.000 Cl
ATOM     18  C   UNL     1       7.245   4.603  13.339  0.00  0.00    +0.000 A 
ATOM     19  C   UNL     1       7.608   5.338  14.467  0.00  0.00    +0.000 A 
ATOM     20  C   UNL     1       6.792   5.319  15.604  0.00  0.00    +0.000 A 
ATOM     21 CL   UNL     1       7.294   6.245  16.976  0.00  0.00    +0.000 Cl
ENDBRANCH  12  14
ENDBRANCH   1  12
TORSDOF 3
ENDMDL
MODEL 9
REMARK VINA RESULT:      -6.8      3.222      6.008
REMARK  Name = 
REMARK  5 active torsions:
REMARK  status: ('A' for Active; 'I' for Inactive)
REMARK    1  A    between atoms: C_1  and  C_2
REMARK    2  A    between atoms: C_2  and  C_3
REMARK    3  A    between atoms: N_7  and  C_8
REMARK    4  A    between atoms: C_8  and  N_9
REMARK    5  A    between atoms: N_9  and  C_10
REMARK                            x       y       z     vdW  Elec       q    Type
REMARK                         _______ _______ _______ _____ _____    ______ ____
ROOT
ATOM      1  C   UNL     1       3.661   2.405  17.604  0.00  0.00    +0.000 C 
ENDROOT
BRANCH   1   8
ATOM      2  C   UNL     1       0.986   2.649  21.654  0.00  0.00    +0.000 C 
ATOM      3  C   UNL     1       2.155   3.296  20.930  0.00  0.00    +0.000 C 
ATOM      4  C   UNL     1       2.271   4.784  21.256  0.00  0.00    +0.000 C 
ATOM      5  N   UNL     1       3.407   2.621  21.177  0.00  0.00    +0.000 N 
ATOM      6  C   UNL     1       4.078   2.361  20.005  0.00  0.00    +0.000 C 
ATOM      7  O   UNL     1       5.255   2.031  19.961  0.00  0.00    +0.000 OA
ATOM      8  N   UNL     1       3.236   2.574  18.961  0.00  0.00    +0.000 N 
ATOM      9  C   UNL     1       2.066   3.129  19.398  0.00  0.00    +0.000 C 
ATOM     10  O   UNL     1       1.132   3.500  18.714  0.00  0.00    +0.000 OA
ATOM     11  H   UNL     1       3.889   2.572  22.064  0.00  0.00    +0.000 HD
ENDBRANCH   1   8
BRANCH   1  12
ATOM     12  N   UNL     1       3.692   3.700  16.939  0.00  0.00    +0.000 N 
ATOM     13  H   UNL     1       3.348   4.441  17.552  0.00  0.00    +0.000 HD
BRANCH  12  14
ATOM     14  C   UNL     1       4.916   4.080  16.343  0.00  0.00    +0.000 A 
ATOM     15  C   UNL     1       5.185   3.788  14.996  0.00  0.00    +0.000 A 
ATOM     16  C   UNL     1       6.347   4.245  14.374  0.00  0.00    +0.000 A 
ATOM     17 CL   UNL     1       6.626   3.869  12.720  0.00  0.00    +0.000 Cl
ATOM     18  C   UNL     1       7.264   5.024  15.072  0.00  0.00    +0.000 A 
ATOM     19  C   UNL     1       7.016   5.350  16.405  0.00  0.00    +0.000 A 
ATOM     20  C   UNL     1       5.847   4.896  17.028  0.00  0.00    +0.000 A 
ATOM     21 CL   UNL     1       5.594   5.325  18.684  0.00  0.00    +0.000 Cl
ENDBRANCH  12  14
ENDBRANCH   1  12
TORSDOF 3
ENDMDL
