MODEL 1
REMARK VINA RESULT:      -7.6      0.000      0.000
REMARK  Name = 
REMARK  6 active torsions:
REMARK  status: ('A' for Active; 'I' for Inactive)
REMARK    1  A    between atoms: C_1  and  C_2
REMARK    2  A    between atoms: C_5  and  C_7
REMARK    3  A    between atoms: C_7  and  S_8
REMARK    4  A    between atoms: S_8  and  C_9
REMARK    5  A    between atoms: C_12  and  C_13
REMARK    6  A    between atoms: C_20  and  C_21
REMARK                            x       y       z     vdW  Elec       q    Type
REMARK                         _______ _______ _______ _____ _____    ______ ____
ROOT
ATOM      1  S   UNL     1       7.580   5.334  18.311  0.00  0.00    +0.000 S 
ENDROOT
BRANCH   1   2
ATOM      2  C   UNL     1       7.814   7.051  18.130  0.00  0.00    +0.000 A 
ATOM      3  N   UNL     1       7.202   7.736  17.161  0.00  0.00    +0.000 NA
ATOM      4  N   UNL     1       7.679   8.974  17.368  0.00  0.00    +0.000 N 
ATOM      5  C   UNL     1       8.517   9.013  18.446  0.00  0.00    +0.000 A 
ATOM      6  N   UNL     1       8.616   7.797  18.947  0.00  0.00    +0.000 NA
ATOM      7  H   UNL     1       7.401   9.732  16.754  0.00  0.00    +0.000 HD
BRANCH   5   8
ATOM      8  C   UNL     1       9.166  10.178  18.958  0.00  0.00    +0.000 A 
ATOM      9  C   UNL     1       9.303  10.516  20.292  0.00  0.00    +0.000 A 
ATOM     10  C   UNL     1       9.960  11.764  20.480  0.00  0.00    +0.000 A 
ATOM     11  C   UNL     1      10.313  12.343  19.282  0.00  0.00    +0.000 A 
ATOM     12  S   UNL     1       9.875  11.367  17.947  0.00  0.00    +0.000 S 
ENDBRANCH   5   8
ENDBRANCH   1   2
BRANCH   1  13
ATOM     13  C   UNL     1       5.883   5.297  18.952  0.00  0.00    +0.000 C 
BRANCH  13  18
ATOM     14  C   UNL     1       1.384   4.201  17.684  0.00  0.00    +0.000 C 
ATOM     15  C   UNL     1       1.946   2.818  18.006  0.00  0.00    +0.000 C 
ATOM     16  C   UNL     1       3.419   2.658  17.588  0.00  0.00    +0.000 C 
ATOM     17  N   UNL     1       4.298   3.411  18.483  0.00  0.00    +0.000 N 
ATOM     18  C   UNL     1       4.994   4.511  17.998  0.00  0.00    +0.000 C 
ATOM     19  O   UNL     1       4.919   4.846  16.813  0.00  0.00    +0.000 OA
ATOM     20  C   UNL     1       4.104   3.066  19.895  0.00  0.00    +0.000 C 
ATOM     21  C   UNL     1       2.623   3.228  20.284  0.00  0.00    +0.000 C 
ATOM     22  C   UNL     1       2.382   2.713  21.697  0.00  0.00    +0.000 C 
ATOM     23  O   UNL     1       1.764   2.484  19.398  0.00  0.00    +0.000 OA
ENDBRANCH  13  18
ENDBRANCH   1  13
TORSDOF 4
ENDMDL
MODEL 2
REMARK VINA RESULT:      -7.4      4.032      5.646
REMARK  Name = 
REMARK  6 active torsions:
REMARK  status: ('A' for Active; 'I' for Inactive)
REMARK    1  A    between atoms: C_1  and  C_2
REMARK    2  A    between atoms: C_5  and  C_7
REMARK    3  A    between atoms: C_7  and  S_8
REMARK    4  A    between atoms: S_8  and  C_9
REMARK    5  A    between atoms: C_12  and  C_13
REMARK    6  A    between atoms: C_20  and  C_21
REMARK                            x       y       z     vdW  Elec       q    Type
REMARK                         _______ _______ _______ _____ _____    ______ ____
ROOT
ATOM      1  S   UNL     1       5.160   5.534  19.078  0.00  0.00    +0.000 S 
ENDROOT
BRANCH   1   2
ATOM      2  C   UNL     1       6.028   5.545  17.567  0.00  0.00    +0.000 A 
ATOM      3  N   UNL     1       7.145   6.260  17.414  0.00  0.00    +0.000 NA
ATOM      4  N   UNL     1       7.448   6.010  16.130  0.00  0.00    +0.000 N 
ATOM      5  C   UNL     1       6.553   5.148  15.564  0.00  0.00    +0.000 A 
ATOM      6  N   UNL     1       5.639   4.838  16.464  0.00  0.00    +0.000 NA
ATOM      7  H   UNL     1       8.260   6.446  15.707  0.00  0.00    +0.000 HD
BRANCH   5   8
ATOM      8  C   UNL     1       6.603   4.649  14.226  0.00  0.00    +0.000 A 
ATOM      9  C   UNL     1       5.722   3.747  13.659  0.00  0.00    +0.000 A 
ATOM     10  C   UNL     1       6.066   3.409  12.319  0.00  0.00    +0.000 A 
ATOM     11  C   UNL     1       7.198   4.070  11.899  0.00  0.00    +0.000 A 
ATOM     12  S   UNL     1       7.819   5.108  13.109  0.00  0.00    +0.000 S 
ENDBRANCH   5   8
ENDBRANCH   1   2
BRANCH   1  13
ATOM     13  C   UNL     1       3.639   6.395  18.592  0.00  0.00    +0.000 C 
BRANCH  13  18
ATOM     14  C   UNL     1       2.187   3.206  21.875  0.00  0.00    +0.000 C 
ATOM     15  C   UNL     1       1.299   2.836  20.689  0.00  0.00    +0.000 C 
ATOM     16  C   UNL     1       0.846   4.061  19.874  0.00  0.00    +0.000 C 
ATOM     17  N   UNL     1       1.957   4.605  19.091  0.00  0.00    +0.000 N 
ATOM     18  C   UNL     1       2.468   5.859  19.402  0.00  0.00    +0.000 C 
ATOM     19  O   UNL     1       1.977   6.547  20.302  0.00  0.00    +0.000 OA
ATOM     20  C   UNL     1       2.594   3.602  18.234  0.00  0.00    +0.000 C 
ATOM     21  C   UNL     1       3.031   2.385  19.072  0.00  0.00    +0.000 C 
ATOM     22  C   UNL     1       3.539   1.269  18.169  0.00  0.00    +0.000 C 
ATOM     23  O   UNL     1       1.932   1.856  19.839  0.00  0.00    +0.000 OA
ENDBRANCH  13  18
ENDBRANCH   1  13
TORSDOF 4
ENDMDL
MODEL 3
REMARK VINA RESULT:      -6.9      1.262      1.623
REMARK  Name = 
REMARK  6 active torsions:
REMARK  status: ('A' for Active; 'I' for Inactive)
REMARK    1  A    between atoms: C_1  and  C_2
REMARK    2  A    between atoms: C_5  and  C_7
REMARK    3  A    between atoms: C_7  and  S_8
REMARK    4  A    between atoms: S_8  and  C_9
REMARK    5  A    between atoms: C_12  and  C_13
REMARK    6  A    between atoms: C_20  and  C_21
REMARK                            x       y       z     vdW  Elec       q    Type
REMARK                         _______ _______ _______ _____ _____    ______ ____
ROOT
ATOM      1  S   UNL     1       6.467   6.467  16.219  0.00  0.00    +0.000 S 
ENDROOT
BRANCH   1   2
ATOM      2  C   UNL     1       7.434   7.305  17.401  0.00  0.00    +0.000 A 
ATOM      3  N   UNL     1       7.993   6.656  18.426  0.00  0.00    +0.000 NA
ATOM      4  N   UNL     1       8.598   7.661  19.080  0.00  0.00    +0.000 N 
ATOM      5  C   UNL     1       8.425   8.853  18.436  0.00  0.00    +0.000 A 
ATOM      6  N   UNL     1       7.686   8.648  17.361  0.00  0.00    +0.000 NA
ATOM      7  H   UNL     1       9.102   7.473  19.940  0.00  0.00    +0.000 HD
BRANCH   5   8
ATOM      8  C   UNL     1       8.966  10.110  18.844  0.00  0.00    +0.000 A 
ATOM      9  C   UNL     1       9.545  10.390  20.067  0.00  0.00    +0.000 A 
ATOM     10  C   UNL     1       9.948  11.750  20.188  0.00  0.00    +0.000 A 
ATOM     11  C   UNL     1       9.669  12.470  19.049  0.00  0.00    +0.000 A 
ATOM     12  S   UNL     1       8.952  11.498  17.837  0.00  0.00    +0.000 S 
ENDBRANCH   5   8
ENDBRANCH   1   2
BRANCH   1  13
ATOM     13  C   UNL     1       4.974   6.127  17.193  0.00  0.00    +0.000 C 
BRANCH  13  18
ATOM     14  C   UNL     1       2.236   2.253  17.933  0.00  0.00    +0.000 C 
ATOM     15  C   UNL     1       2.899   2.412  19.299  0.00  0.00    +0.000 C 
ATOM     16  C   UNL     1       4.359   2.891  19.205  0.00  0.00    +0.000 C 
ATOM     17  N   UNL     1       4.420   4.302  18.821  0.00  0.00    +0.000 N 
ATOM     18  C   UNL     1       4.944   4.657  17.584  0.00  0.00    +0.000 C 
ATOM     19  O   UNL     1       5.400   3.807  16.814  0.00  0.00    +0.000 OA
ATOM     20  C   UNL     1       3.632   5.167  19.704  0.00  0.00    +0.000 C 
ATOM     21  C   UNL     1       2.179   4.662  19.786  0.00  0.00    +0.000 C 
ATOM     22  C   UNL     1       1.397   5.450  20.828  0.00  0.00    +0.000 C 
ATOM     23  O   UNL     1       2.128   3.273  20.164  0.00  0.00    +0.000 OA
ENDBRANCH  13  18
ENDBRANCH   1  13
TORSDOF 4
ENDMDL
MODEL 4
REMARK VINA RESULT:      -6.9      1.053      1.438
REMARK  Name = 
REMARK  6 active torsions:
REMARK  status: ('A' for Active; 'I' for Inactive)
REMARK    1  A    between atoms: C_1  and  C_2
REMARK    2  A    between atoms: C_5  and  C_7
REMARK    3  A    between atoms: C_7  and  S_8
REMARK    4  A    between atoms: S_8  and  C_9
REMARK    5  A    between atoms: C_12  and  C_13
REMARK    6  A    between atoms: C_20  and  C_21
REMARK                            x       y       z     vdW  Elec       q    Type
REMARK                         _______ _______ _______ _____ _____    ______ ____
ROOT
ATOM      1  S   UNL     1       6.075   6.475  16.841  0.00  0.00    +0.000 S 
ENDROOT
BRANCH   1   2
ATOM      2  C   UNL     1       7.274   7.378  17.727  0.00  0.00    +0.000 A 
ATOM      3  N   UNL     1       8.037   6.793  18.653  0.00  0.00    +0.000 NA
ATOM      4  N   UNL     1       8.769   7.831  19.089  0.00  0.00    +0.000 N 
ATOM      5  C   UNL     1       8.463   8.978  18.412  0.00  0.00    +0.000 A 
ATOM      6  N   UNL     1       7.512   8.710  17.538  0.00  0.00    +0.000 NA
ATOM      7  H   UNL     1       9.446   7.697  19.833  0.00  0.00    +0.000 HD
BRANCH   5   8
ATOM      8  C   UNL     1       9.080  10.252  18.604  0.00  0.00    +0.000 A 
ATOM      9  C   UNL     1       9.551  11.088  17.609  0.00  0.00    +0.000 A 
ATOM     10  C   UNL     1      10.156  12.271  18.123  0.00  0.00    +0.000 A 
ATOM     11  C   UNL     1      10.123  12.306  19.498  0.00  0.00    +0.000 A 
ATOM     12  S   UNL     1       9.343  10.933  20.156  0.00  0.00    +0.000 S 
ENDBRANCH   5   8
ENDBRANCH   1   2
BRANCH   1  13
ATOM     13  C   UNL     1       5.964   4.980  17.864  0.00  0.00    +0.000 C 
BRANCH  13  18
ATOM     14  C   UNL     1       1.249   4.209  17.387  0.00  0.00    +0.000 C 
ATOM     15  C   UNL     1       1.682   2.947  18.130  0.00  0.00    +0.000 C 
ATOM     16  C   UNL     1       3.066   2.437  17.689  0.00  0.00    +0.000 C 
ATOM     17  N   UNL     1       4.127   3.307  18.199  0.00  0.00    +0.000 N 
ATOM     18  C   UNL     1       4.883   4.063  17.312  0.00  0.00    +0.000 C 
ATOM     19  O   UNL     1       4.706   3.987  16.092  0.00  0.00    +0.000 OA
ATOM     20  C   UNL     1       4.065   3.489  19.652  0.00  0.00    +0.000 C 
ATOM     21  C   UNL     1       2.669   3.992  20.066  0.00  0.00    +0.000 C 
ATOM     22  C   UNL     1       2.541   4.024  21.583  0.00  0.00    +0.000 C 
ATOM     23  O   UNL     1       1.631   3.131  19.560  0.00  0.00    +0.000 OA
ENDBRANCH  13  18
ENDBRANCH   1  13
TORSDOF 4
ENDMDL
MODEL 5
REMARK VINA RESULT:      -6.9      7.424      8.305
REMARK  Name = 
REMARK  6 active torsions:
REMARK  status: ('A' for Active; 'I' for Inactive)
REMARK    1  A    between atoms: C_1  and  C_2
REMARK    2  A    between atoms: C_5  and  C_7
REMARK    3  A    between atoms: C_7  and  S_8
REMARK    4  A    between atoms: S_8  and  C_9
REMARK    5  A    between atoms: C_12  and  C_13
REMARK    6  A    between atoms: C_20  and  C_21
REMARK                            x       y       z     vdW  Elec       q    Type
REMARK                         _______ _______ _______ _____ _____    ______ ____
ROOT
ATOM      1  S   UNL     1       0.918   9.318  20.044  0.00  0.00    +0.000 S 
ENDROOT
BRANCH   1   2
ATOM      2  C   UNL     1       0.003   9.896  21.410  0.00  0.00    +0.000 A 
ATOM      3  N   UNL     1      -0.185   9.135  22.491  0.00  0.00    +0.000 NA
ATOM      4  N   UNL     1      -0.946   9.936  23.253  0.00  0.00    +0.000 N 
ATOM      5  C   UNL     1      -1.166  11.140  22.647  0.00  0.00    +0.000 A 
ATOM      6  N   UNL     1      -0.569  11.136  21.470  0.00  0.00    +0.000 NA
ATOM      7  H   UNL     1      -1.276   9.613  24.156  0.00  0.00    +0.000 HD
BRANCH   5   8
ATOM      8  C   UNL     1      -1.905  12.232  23.198  0.00  0.00    +0.000 A 
ATOM      9  C   UNL     1      -3.193  12.175  23.698  0.00  0.00    +0.000 A 
ATOM     10  C   UNL     1      -3.671  13.443  24.135  0.00  0.00    +0.000 A 
ATOM     11  C   UNL     1      -2.730  14.432  23.962  0.00  0.00    +0.000 A 
ATOM     12  S   UNL     1      -1.274  13.822  23.302  0.00  0.00    +0.000 S 
ENDBRANCH   5   8
ENDBRANCH   1   2
BRANCH   1  13
ATOM     13  C   UNL     1       1.578   7.769  20.719  0.00  0.00    +0.000 C 
BRANCH  13  18
ATOM     14  C   UNL     1       1.516   4.189  17.520  0.00  0.00    +0.000 C 
ATOM     15  C   UNL     1       2.711   3.793  18.384  0.00  0.00    +0.000 C 
ATOM     16  C   UNL     1       3.531   5.005  18.864  0.00  0.00    +0.000 C 
ATOM     17  N   UNL     1       2.808   5.744  19.901  0.00  0.00    +0.000 N 
ATOM     18  C   UNL     1       2.348   7.027  19.637  0.00  0.00    +0.000 C 
ATOM     19  O   UNL     1       2.571   7.579  18.555  0.00  0.00    +0.000 OA
ATOM     20  C   UNL     1       2.403   4.896  21.026  0.00  0.00    +0.000 C 
ATOM     21  C   UNL     1       1.592   3.689  20.518  0.00  0.00    +0.000 C 
ATOM     22  C   UNL     1       1.311   2.717  21.656  0.00  0.00    +0.000 C 
ATOM     23  O   UNL     1       2.309   2.968  19.498  0.00  0.00    +0.000 OA
ENDBRANCH  13  18
ENDBRANCH   1  13
TORSDOF 4
ENDMDL
MODEL 6
REMARK VINA RESULT:      -6.9      4.115      6.356
REMARK  Name = 
REMARK  6 active torsions:
REMARK  status: ('A' for Active; 'I' for Inactive)
REMARK    1  A    between atoms: C_1  and  C_2
REMARK    2  A    between atoms: C_5  and  C_7
REMARK    3  A    between atoms: C_7  and  S_8
REMARK    4  A    between atoms: S_8  and  C_9
REMARK    5  A    between atoms: C_12  and  C_13
REMARK    6  A    between atoms: C_20  and  C_21
REMARK                            x       y       z     vdW  Elec       q    Type
REMARK                         _______ _______ _______ _____ _____    ______ ____
ROOT
ATOM      1  S   UNL     1       2.464   2.708  19.522  0.00  0.00    +0.000 S 
ENDROOT
BRANCH   1   2
ATOM      2  C   UNL     1       2.273   4.384  19.956  0.00  0.00    +0.000 A 
ATOM      3  N   UNL     1       2.289   4.776  21.233  0.00  0.00    +0.000 NA
ATOM      4  N   UNL     1       2.080   6.096  21.109  0.00  0.00    +0.000 N 
ATOM      5  C   UNL     1       1.980   6.466  19.797  0.00  0.00    +0.000 A 
ATOM      6  N   UNL     1       2.102   5.389  19.045  0.00  0.00    +0.000 NA
ATOM      7  H   UNL     1       2.018   6.679  21.937  0.00  0.00    +0.000 HD
BRANCH   5   8
ATOM      8  C   UNL     1       1.793   7.798  19.316  0.00  0.00    +0.000 A 
ATOM      9  C   UNL     1       2.144   8.270  18.065  0.00  0.00    +0.000 A 
ATOM     10  C   UNL     1       1.870   9.658  17.901  0.00  0.00    +0.000 A 
ATOM     11  C   UNL     1       1.312  10.205  19.034  0.00  0.00    +0.000 A 
ATOM     12  S   UNL     1       1.098   9.042  20.270  0.00  0.00    +0.000 S 
ENDBRANCH   5   8
ENDBRANCH   1   2
BRANCH   1  13
ATOM     13  C   UNL     1       4.169   2.720  18.899  0.00  0.00    +0.000 C 
BRANCH  13  18
ATOM     14  C   UNL     1       6.977   4.400  15.386  0.00  0.00    +0.000 C 
ATOM     15  C   UNL     1       6.531   5.698  16.055  0.00  0.00    +0.000 C 
ATOM     16  C   UNL     1       5.074   5.646  16.552  0.00  0.00    +0.000 C 
ATOM     17  N   UNL     1       4.960   4.796  17.738  0.00  0.00    +0.000 N 
ATOM     18  C   UNL     1       4.255   3.602  17.662  0.00  0.00    +0.000 C 
ATOM     19  O   UNL     1       3.684   3.259  16.623  0.00  0.00    +0.000 OA
ATOM     20  C   UNL     1       5.875   5.191  18.813  0.00  0.00    +0.000 C 
ATOM     21  C   UNL     1       7.323   5.242  18.287  0.00  0.00    +0.000 C 
ATOM     22  C   UNL     1       8.256   5.812  19.347  0.00  0.00    +0.000 C 
ATOM     23  O   UNL     1       7.427   6.080  17.120  0.00  0.00    +0.000 OA
ENDBRANCH  13  18
ENDBRANCH   1  13
TORSDOF 4
ENDMDL
MODEL 7
REMARK VINA RESULT:      -6.8      4.444      5.809
REMARK  Name = 
REMARK  6 active torsions:
REMARK  status: ('A' for Active; 'I' for Inactive)
REMARK    1  A    between atoms: C_1  and  C_2
REMARK    2  A    between atoms: C_5  and  C_7
REMARK    3  A    between atoms: C_7  and  S_8
REMARK    4  A    between atoms: S_8  and  C_9
REMARK    5  A    between atoms: C_12  and  C_13
REMARK    6  A    between atoms: C_20  and  C_21
REMARK                            x       y       z     vdW  Elec       q    Type
REMARK                         _______ _______ _______ _____ _____    ______ ____
ROOT
ATOM      1  S   UNL     1       3.810   6.494  17.502  0.00  0.00    +0.000 S 
ENDROOT
BRANCH   1   2
ATOM      2  C   UNL     1       2.759   7.730  18.138  0.00  0.00    +0.000 A 
ATOM      3  N   UNL     1       2.374   8.766  17.388  0.00  0.00    +0.000 NA
ATOM      4  N   UNL     1       1.626   9.461  18.259  0.00  0.00    +0.000 N 
ATOM      5  C   UNL     1       1.551   8.832  19.469  0.00  0.00    +0.000 A 
ATOM      6  N   UNL     1       2.267   7.724  19.413  0.00  0.00    +0.000 NA
ATOM      7  H   UNL     1       1.202  10.338  17.975  0.00  0.00    +0.000 HD
BRANCH   5   8
ATOM      8  C   UNL     1       0.810   9.284  20.603  0.00  0.00    +0.000 A 
ATOM      9  C   UNL     1       0.279   8.488  21.601  0.00  0.00    +0.000 A 
ATOM     10  C   UNL     1      -0.448   9.232  22.573  0.00  0.00    +0.000 A 
ATOM     11  C   UNL     1      -0.447  10.579  22.291  0.00  0.00    +0.000 A 
ATOM     12  S   UNL     1       0.450  10.938  20.879  0.00  0.00    +0.000 S 
ENDBRANCH   5   8
ENDBRANCH   1   2
BRANCH   1  13
ATOM     13  C   UNL     1       4.845   6.160  18.954  0.00  0.00    +0.000 C 
BRANCH  13  18
ATOM     14  C   UNL     1       3.496   1.750  17.618  0.00  0.00    +0.000 C 
ATOM     15  C   UNL     1       3.411   1.637  19.138  0.00  0.00    +0.000 C 
ATOM     16  C   UNL     1       4.522   2.422  19.860  0.00  0.00    +0.000 C 
ATOM     17  N   UNL     1       4.276   3.863  19.782  0.00  0.00    +0.000 N 
ATOM     18  C   UNL     1       5.133   4.668  19.044  0.00  0.00    +0.000 C 
ATOM     19  O   UNL     1       6.128   4.200  18.482  0.00  0.00    +0.000 OA
ATOM     20  C   UNL     1       2.949   4.241  20.277  0.00  0.00    +0.000 C 
ATOM     21  C   UNL     1       1.858   3.437  19.544  0.00  0.00    +0.000 C 
ATOM     22  C   UNL     1       0.493   3.699  20.166  0.00  0.00    +0.000 C 
ATOM     23  O   UNL     1       2.108   2.021  19.626  0.00  0.00    +0.000 OA
ENDBRANCH  13  18
ENDBRANCH   1  13
TORSDOF 4
ENDMDL
MODEL 8
REMARK VINA RESULT:      -6.8      4.212      6.726
REMARK  Name = 
REMARK  6 active torsions:
REMARK  status: ('A' for Active; 'I' for Inactive)
REMARK    1  A    between atoms: C_1  and  C_2
REMARK    2  A    between atoms: C_5  and  C_7
REMARK    3  A    between atoms: C_7  and  S_8
REMARK    4  A    between atoms: S_8  and  C_9
REMARK    5  A    between atoms: C_12  and  C_13
REMARK    6  A    between atoms: C_20  and  C_21
REMARK                            x       y       z     vdW  Elec       q    Type
REMARK                         _______ _______ _______ _____ _____    ______ ____
ROOT
ATOM      1  S   UNL     1       2.961   4.510  17.768  0.00  0.00    +0.000 S 
ENDROOT
BRANCH   1   2
ATOM      2  C   UNL     1       2.412   5.494  19.097  0.00  0.00    +0.000 A 
ATOM      3  N   UNL     1       2.268   4.986  20.323  0.00  0.00    +0.000 NA
ATOM      4  N   UNL     1       1.809   6.050  21.000  0.00  0.00    +0.000 N 
ATOM      5  C   UNL     1       1.721   7.153  20.199  0.00  0.00    +0.000 A 
ATOM      6  N   UNL     1       2.102   6.820  18.980  0.00  0.00    +0.000 NA
ATOM      7  H   UNL     1       1.580   5.963  21.985  0.00  0.00    +0.000 HD
BRANCH   5   8
ATOM      8  C   UNL     1       1.302   8.455  20.612  0.00  0.00    +0.000 A 
ATOM      9  C   UNL     1       1.036   8.854  21.908  0.00  0.00    +0.000 A 
ATOM     10  C   UNL     1       0.594  10.205  21.991  0.00  0.00    +0.000 A 
ATOM     11  C   UNL     1       0.542  10.802  20.752  0.00  0.00    +0.000 A 
ATOM     12  S   UNL     1       1.050   9.743  19.508  0.00  0.00    +0.000 S 
ENDBRANCH   5   8
ENDBRANCH   1   2
BRANCH   1  13
ATOM     13  C   UNL     1       4.263   3.547  18.585  0.00  0.00    +0.000 C 
BRANCH  13  18
ATOM     14  C   UNL     1       6.589   7.546  17.301  0.00  0.00    +0.000 C 
ATOM     15  C   UNL     1       7.640   6.481  16.995  0.00  0.00    +0.000 C 
ATOM     16  C   UNL     1       7.639   5.328  18.015  0.00  0.00    +0.000 C 
ATOM     17  N   UNL     1       6.468   4.469  17.829  0.00  0.00    +0.000 N 
ATOM     18  C   UNL     1       5.485   4.425  18.809  0.00  0.00    +0.000 C 
ATOM     19  O   UNL     1       5.596   5.066  19.859  0.00  0.00    +0.000 OA
ATOM     20  C   UNL     1       6.342   3.967  16.458  0.00  0.00    +0.000 C 
ATOM     21  C   UNL     1       6.353   5.139  15.458  0.00  0.00    +0.000 C 
ATOM     22  C   UNL     1       6.393   4.620  14.027  0.00  0.00    +0.000 C 
ATOM     23  O   UNL     1       7.508   5.979  15.648  0.00  0.00    +0.000 OA
ENDBRANCH  13  18
ENDBRANCH   1  13
TORSDOF 4
ENDMDL
MODEL 9
REMARK VINA RESULT:      -6.7      6.127      8.024
REMARK  Name = 
REMARK  6 active torsions:
REMARK  status: ('A' for Active; 'I' for Inactive)
REMARK    1  A    between atoms: C_1  and  C_2
REMARK    2  A    between atoms: C_5  and  C_7
REMARK    3  A    between atoms: C_7  and  S_8
REMARK    4  A    between atoms: S_8  and  C_9
REMARK    5  A    between atoms: C_12  and  C_13
REMARK    6  A    between atoms: C_20  and  C_21
REMARK                            x       y       z     vdW  Elec       q    Type
REMARK                         _______ _______ _______ _____ _____    ______ ____
ROOT
ATOM      1  S   UNL     1       2.187   8.899  18.051  0.00  0.00    +0.000 S 
ENDROOT
BRANCH   1   2
ATOM      2  C   UNL     1       0.672   9.656  18.465  0.00  0.00    +0.000 A 
ATOM      3  N   UNL     1       0.409  10.042  19.715  0.00  0.00    +0.000 NA
ATOM      4  N   UNL     1      -0.837  10.526  19.587  0.00  0.00    +0.000 N 
ATOM      5  C   UNL     1      -1.271  10.454  18.294  0.00  0.00    +0.000 A 
ATOM      6  N   UNL     1      -0.323   9.903  17.561  0.00  0.00    +0.000 NA
ATOM      7  H   UNL     1      -1.327  10.884  20.401  0.00  0.00    +0.000 HD
BRANCH   5   8
ATOM      8  C   UNL     1      -2.534  10.914  17.809  0.00  0.00    +0.000 A 
ATOM      9  C   UNL     1      -3.536  11.495  18.565  0.00  0.00    +0.000 A 
ATOM     10  C   UNL     1      -4.695  11.805  17.799  0.00  0.00    +0.000 A 
ATOM     11  C   UNL     1      -4.542  11.457  16.477  0.00  0.00    +0.000 A 
ATOM     12  S   UNL     1      -2.999  10.787  16.164  0.00  0.00    +0.000 S 
ENDBRANCH   5   8
ENDBRANCH   1   2
BRANCH   1  13
ATOM     13  C   UNL     1       2.058   7.359  19.002  0.00  0.00    +0.000 C 
BRANCH  13  18
ATOM     14  C   UNL     1       3.528   3.043  17.498  0.00  0.00    +0.000 C 
ATOM     15  C   UNL     1       4.168   3.108  18.883  0.00  0.00    +0.000 C 
ATOM     16  C   UNL     1       4.660   4.520  19.250  0.00  0.00    +0.000 C 
ATOM     17  N   UNL     1       3.531   5.404  19.543  0.00  0.00    +0.000 N 
ATOM     18  C   UNL     1       3.251   6.467  18.694  0.00  0.00    +0.000 C 
ATOM     19  O   UNL     1       3.962   6.709  17.714  0.00  0.00    +0.000 OA
ATOM     20  C   UNL     1       2.639   4.866  20.574  0.00  0.00    +0.000 C 
ATOM     21  C   UNL     1       2.168   3.451  20.186  0.00  0.00    +0.000 C 
ATOM     22  C   UNL     1       1.380   2.819  21.325  0.00  0.00    +0.000 C 
ATOM     23  O   UNL     1       3.285   2.588  19.899  0.00  0.00    +0.000 OA
ENDBRANCH  13  18
ENDBRANCH   1  13
TORSDOF 4
ENDMDL
