MODEL 1
REMARK VINA RESULT:      -7.8      0.000      0.000
REMARK  Name = 
REMARK  5 active torsions:
REMARK  status: ('A' for Active; 'I' for Inactive)
REMARK    1  A    between atoms: C_2  and  C_12
REMARK    2  A    between atoms: N_3  and  C_4
REMARK    3  A    between atoms: C_4  and  C_5
REMARK    4  A    between atoms: C_5  and  C_6
REMARK    5  A    between atoms: N_19  and  C_20
REMARK                            x       y       z     vdW  Elec       q    Type
REMARK                         _______ _______ _______ _____ _____    ______ ____
ROOT
ATOM      1  C   UNL     1       3.138   3.799  18.313  0.00  0.00    +0.000 C 
ATOM      2  C   UNL     1       2.968   2.361  17.716  0.00  0.00    +0.000 C 
ATOM      3  C   UNL     1       3.885   1.447  18.515  0.00  0.00    +0.000 C 
ATOM      4  O   UNL     1       4.042   2.028  19.787  0.00  0.00    +0.000 OA
ATOM      5  C   UNL     1       3.599   3.396  19.731  0.00  0.00    +0.000 C 
ATOM      6  C   UNL     1       2.416   3.380  20.731  0.00  0.00    +0.000 C 
ATOM      7  C   UNL     1       1.969   4.789  21.014  0.00  0.00    +0.000 C 
ATOM      8  N   UNL     1       1.689   5.527  19.782  0.00  0.00    +0.000 NA
ATOM      9  C   UNL     1       1.902   4.776  18.502  0.00  0.00    +0.000 C 
ENDROOT
BRANCH   1  11
ATOM     10  O   UNL     1       4.011   5.709  17.136  0.00  0.00    +0.000 OA
ATOM     11  C   UNL     1       3.801   4.486  17.062  0.00  0.00    +0.000 C 
ATOM     12  N   UNL     1       4.354   3.828  16.021  0.00  0.00    +0.000 N 
ATOM     13  H   UNL     1       4.218   2.838  15.901  0.00  0.00    +0.000 HD
BRANCH  12  14
ATOM     14  C   UNL     1       5.341   4.538  15.152  0.00  0.00    +0.000 C 
BRANCH  14  15
ATOM     15  C   UNL     1       6.809   4.344  15.537  0.00  0.00    +0.000 C 
BRANCH  15  16
ATOM     16  C   UNL     1       7.288   5.261  16.651  0.00  0.00    +0.000 A 
ATOM     17  C   UNL     1       7.537   4.745  17.927  0.00  0.00    +0.000 A 
ATOM     18  C   UNL     1       7.909   5.602  18.964  0.00  0.00    +0.000 A 
ATOM     19  C   UNL     1       8.012   6.972  18.723  0.00  0.00    +0.000 A 
ATOM     20  C   UNL     1       7.733   7.414  17.443  0.00  0.00    +0.000 A 
ATOM     21  N   UNL     1       7.361   6.606  16.411  0.00  0.00    +0.000 NA
ENDBRANCH  15  16
ENDBRANCH  14  15
ENDBRANCH  12  14
ENDBRANCH   1  11
BRANCH   8  22
ATOM     22  C   UNL     1       2.310   6.860  19.878  0.00  0.00    +0.000 C 
ATOM     23  C   UNL     1       1.913   7.784  18.707  0.00  0.00    +0.000 C 
ATOM     24  C   UNL     1       1.702   8.905  19.743  0.00  0.00    +0.000 C 
ATOM     25  C   UNL     1       1.408   7.787  20.767  0.00  0.00    +0.000 C 
ENDBRANCH   8  22
TORSDOF 5
ENDMDL
MODEL 2
REMARK VINA RESULT:      -7.6      2.656      6.997
REMARK  Name = 
REMARK  5 active torsions:
REMARK  status: ('A' for Active; 'I' for Inactive)
REMARK    1  A    between atoms: C_2  and  C_12
REMARK    2  A    between atoms: N_3  and  C_4
REMARK    3  A    between atoms: C_4  and  C_5
REMARK    4  A    between atoms: C_5  and  C_6
REMARK    5  A    between atoms: N_19  and  C_20
REMARK                            x       y       z     vdW  Elec       q    Type
REMARK                         _______ _______ _______ _____ _____    ______ ____
ROOT
ATOM      1  C   UNL     1       2.722   4.773  19.431  0.00  0.00    +0.000 C 
ATOM      2  C   UNL     1       1.952   4.281  20.703  0.00  0.00    +0.000 C 
ATOM      3  C   UNL     1       0.710   3.556  20.206  0.00  0.00    +0.000 C 
ATOM      4  O   UNL     1       1.003   3.067  18.920  0.00  0.00    +0.000 OA
ATOM      5  C   UNL     1       2.183   3.727  18.429  0.00  0.00    +0.000 C 
ATOM      6  C   UNL     1       3.161   2.538  18.267  0.00  0.00    +0.000 C 
ATOM      7  C   UNL     1       4.386   2.984  17.516  0.00  0.00    +0.000 C 
ATOM      8  N   UNL     1       4.995   4.167  18.124  0.00  0.00    +0.000 NA
ATOM      9  C   UNL     1       4.304   4.712  19.338  0.00  0.00    +0.000 C 
ENDROOT
BRANCH   1  11
ATOM     10  O   UNL     1       2.735   7.054  18.661  0.00  0.00    +0.000 OA
ATOM     11  C   UNL     1       2.551   6.321  19.649  0.00  0.00    +0.000 C 
ATOM     12  N   UNL     1       2.012   6.894  20.747  0.00  0.00    +0.000 N 
ATOM     13  H   UNL     1       1.842   6.357  21.581  0.00  0.00    +0.000 HD
BRANCH  12  14
ATOM     14  C   UNL     1       1.479   8.287  20.656  0.00  0.00    +0.000 C 
BRANCH  14  15
ATOM     15  C   UNL     1       1.148   8.948  21.996  0.00  0.00    +0.000 C 
BRANCH  15  16
ATOM     16  C   UNL     1       0.108  10.053  21.906  0.00  0.00    +0.000 A 
ATOM     17  C   UNL     1      -0.317  10.517  20.657  0.00  0.00    +0.000 A 
ATOM     18  C   UNL     1      -1.220  11.579  20.579  0.00  0.00    +0.000 A 
ATOM     19  C   UNL     1      -1.678  12.182  21.751  0.00  0.00    +0.000 A 
ATOM     20  C   UNL     1      -1.201  11.684  22.949  0.00  0.00    +0.000 A 
ATOM     21  N   UNL     1      -0.315  10.654  23.059  0.00  0.00    +0.000 NA
ENDBRANCH  15  16
ENDBRANCH  14  15
ENDBRANCH  12  14
ENDBRANCH   1  11
BRANCH   8  22
ATOM     22  C   UNL     1       5.319   5.132  17.058  0.00  0.00    +0.000 C 
ATOM     23  C   UNL     1       6.827   5.171  16.733  0.00  0.00    +0.000 C 
ATOM     24  C   UNL     1       6.443   5.168  15.240  0.00  0.00    +0.000 C 
ATOM     25  C   UNL     1       5.151   4.435  15.662  0.00  0.00    +0.000 C 
ENDBRANCH   8  22
TORSDOF 5
ENDMDL
MODEL 3
REMARK VINA RESULT:      -7.6      2.777      6.761
REMARK  Name = 
REMARK  5 active torsions:
REMARK  status: ('A' for Active; 'I' for Inactive)
REMARK    1  A    between atoms: C_2  and  C_12
REMARK    2  A    between atoms: N_3  and  C_4
REMARK    3  A    between atoms: C_4  and  C_5
REMARK    4  A    between atoms: C_5  and  C_6
REMARK    5  A    between atoms: N_19  and  C_20
REMARK                            x       y       z     vdW  Elec       q    Type
REMARK                         _______ _______ _______ _____ _____    ______ ____
ROOT
ATOM      1  C   UNL     1       3.520   6.055  18.203  0.00  0.00    +0.000 C 
ATOM      2  C   UNL     1       4.314   6.784  17.067  0.00  0.00    +0.000 C 
ATOM      3  C   UNL     1       5.792   6.577  17.368  0.00  0.00    +0.000 C 
ATOM      4  O   UNL     1       5.900   5.384  18.107  0.00  0.00    +0.000 OA
ATOM      5  C   UNL     1       4.598   5.021  18.598  0.00  0.00    +0.000 C 
ATOM      6  C   UNL     1       4.368   3.661  17.894  0.00  0.00    +0.000 C 
ATOM      7  C   UNL     1       3.158   2.983  18.477  0.00  0.00    +0.000 C 
ATOM      8  N   UNL     1       1.986   3.859  18.464  0.00  0.00    +0.000 NA
ATOM      9  C   UNL     1       2.198   5.233  17.902  0.00  0.00    +0.000 C 
ENDROOT
BRANCH   1  11
ATOM     10  O   UNL     1       2.712   8.322  18.152  0.00  0.00    +0.000 OA
ATOM     11  C   UNL     1       2.871   7.321  18.873  0.00  0.00    +0.000 C 
ATOM     12  N   UNL     1       2.280   7.338  20.088  0.00  0.00    +0.000 N 
ATOM     13  H   UNL     1       2.375   6.563  20.721  0.00  0.00    +0.000 HD
BRANCH  12  14
ATOM     14  C   UNL     1       1.314   8.431  20.413  0.00  0.00    +0.000 C 
BRANCH  14  15
ATOM     15  C   UNL     1       1.255   8.832  21.888  0.00  0.00    +0.000 C 
BRANCH  15  16
ATOM     16  C   UNL     1       0.422  10.074  22.164  0.00  0.00    +0.000 A 
ATOM     17  C   UNL     1      -0.690  10.000  23.008  0.00  0.00    +0.000 A 
ATOM     18  C   UNL     1      -1.491  11.126  23.204  0.00  0.00    +0.000 A 
ATOM     19  C   UNL     1      -1.186  12.314  22.538  0.00  0.00    +0.000 A 
ATOM     20  C   UNL     1      -0.084  12.309  21.704  0.00  0.00    +0.000 A 
ATOM     21  N   UNL     1       0.715  11.226  21.487  0.00  0.00    +0.000 NA
ENDBRANCH  15  16
ENDBRANCH  14  15
ENDBRANCH  12  14
ENDBRANCH   1  11
BRANCH   8  22
ATOM     22  C   UNL     1       1.320   3.776  19.776  0.00  0.00    +0.000 C 
ATOM     23  C   UNL     1       1.074   2.320  20.225  0.00  0.00    +0.000 C 
ATOM     24  C   UNL     1       1.579   2.729  21.622  0.00  0.00    +0.000 C 
ATOM     25  C   UNL     1       2.404   3.823  20.910  0.00  0.00    +0.000 C 
ENDBRANCH   8  22
TORSDOF 5
ENDMDL
MODEL 4
REMARK VINA RESULT:      -7.6      3.070      4.808
REMARK  Name = 
REMARK  5 active torsions:
REMARK  status: ('A' for Active; 'I' for Inactive)
REMARK    1  A    between atoms: C_2  and  C_12
REMARK    2  A    between atoms: N_3  and  C_4
REMARK    3  A    between atoms: C_4  and  C_5
REMARK    4  A    between atoms: C_5  and  C_6
REMARK    5  A    between atoms: N_19  and  C_20
REMARK                            x       y       z     vdW  Elec       q    Type
REMARK                         _______ _______ _______ _____ _____    ______ ____
ROOT
ATOM      1  C   UNL     1       5.628   5.657  16.900  0.00  0.00    +0.000 C 
ATOM      2  C   UNL     1       6.173   5.910  15.454  0.00  0.00    +0.000 C 
ATOM      3  C   UNL     1       6.845   4.619  15.010  0.00  0.00    +0.000 C 
ATOM      4  O   UNL     1       6.229   3.569  15.715  0.00  0.00    +0.000 OA
ATOM      5  C   UNL     1       5.486   4.120  16.816  0.00  0.00    +0.000 C 
ATOM      6  C   UNL     1       4.039   3.703  16.456  0.00  0.00    +0.000 C 
ATOM      7  C   UNL     1       3.127   3.967  17.623  0.00  0.00    +0.000 C 
ATOM      8  N   UNL     1       3.239   5.345  18.099  0.00  0.00    +0.000 NA
ATOM      9  C   UNL     1       4.220   6.215  17.371  0.00  0.00    +0.000 C 
ENDROOT
BRANCH   1  11
ATOM     10  O   UNL     1       7.137   6.234  18.685  0.00  0.00    +0.000 OA
ATOM     11  C   UNL     1       6.559   6.664  17.671  0.00  0.00    +0.000 C 
ATOM     12  N   UNL     1       6.949   7.870  17.205  0.00  0.00    +0.000 N 
ATOM     13  H   UNL     1       6.517   8.276  16.392  0.00  0.00    +0.000 HD
BRANCH  12  14
ATOM     14  C   UNL     1       8.167   8.516  17.783  0.00  0.00    +0.000 C 
BRANCH  14  15
ATOM     15  C   UNL     1       8.076  10.032  17.968  0.00  0.00    +0.000 C 
BRANCH  15  16
ATOM     16  C   UNL     1       9.314  10.660  18.587  0.00  0.00    +0.000 A 
ATOM     17  C   UNL     1       9.377  10.874  19.967  0.00  0.00    +0.000 A 
ATOM     18  C   UNL     1      10.486  11.513  20.523  0.00  0.00    +0.000 A 
ATOM     19  C   UNL     1      11.516  11.953  19.691  0.00  0.00    +0.000 A 
ATOM     20  C   UNL     1      11.378  11.726  18.335  0.00  0.00    +0.000 A 
ATOM     21  N   UNL     1      10.306  11.111  17.760  0.00  0.00    +0.000 NA
ENDBRANCH  15  16
ENDBRANCH  14  15
ENDBRANCH  12  14
ENDBRANCH   1  11
BRANCH   8  22
ATOM     22  C   UNL     1       3.333   5.331  19.570  0.00  0.00    +0.000 C 
ATOM     23  C   UNL     1       1.983   5.638  20.252  0.00  0.00    +0.000 C 
ATOM     24  C   UNL     1       2.275   4.473  21.218  0.00  0.00    +0.000 C 
ATOM     25  C   UNL     1       3.131   3.863  20.087  0.00  0.00    +0.000 C 
ENDBRANCH   8  22
TORSDOF 5
ENDMDL
MODEL 5
REMARK VINA RESULT:      -7.4      2.625      6.375
REMARK  Name = 
REMARK  5 active torsions:
REMARK  status: ('A' for Active; 'I' for Inactive)
REMARK    1  A    between atoms: C_2  and  C_12
REMARK    2  A    between atoms: N_3  and  C_4
REMARK    3  A    between atoms: C_4  and  C_5
REMARK    4  A    between atoms: C_5  and  C_6
REMARK    5  A    between atoms: N_19  and  C_20
REMARK                            x       y       z     vdW  Elec       q    Type
REMARK                         _______ _______ _______ _____ _____    ______ ____
ROOT
ATOM      1  C   UNL     1       3.815   6.175  18.099  0.00  0.00    +0.000 C 
ATOM      2  C   UNL     1       4.424   6.761  16.780  0.00  0.00    +0.000 C 
ATOM      3  C   UNL     1       5.898   7.020  17.058  0.00  0.00    +0.000 C 
ATOM      4  O   UNL     1       6.290   6.126  18.072  0.00  0.00    +0.000 OA
ATOM      5  C   UNL     1       5.113   5.586  18.697  0.00  0.00    +0.000 C 
ATOM      6  C   UNL     1       5.253   4.078  18.376  0.00  0.00    +0.000 C 
ATOM      7  C   UNL     1       4.244   3.291  19.166  0.00  0.00    +0.000 C 
ATOM      8  N   UNL     1       2.887   3.808  18.981  0.00  0.00    +0.000 NA
ATOM      9  C   UNL     1       2.754   4.996  18.076  0.00  0.00    +0.000 C 
ENDROOT
BRANCH   1  11
ATOM     10  O   UNL     1       2.512   7.486  19.641  0.00  0.00    +0.000 OA
ATOM     11  C   UNL     1       2.849   7.365  18.450  0.00  0.00    +0.000 C 
ATOM     12  N   UNL     1       2.539   8.382  17.617  0.00  0.00    +0.000 N 
ATOM     13  H   UNL     1       2.779   8.344  16.641  0.00  0.00    +0.000 HD
BRANCH  12  14
ATOM     14  C   UNL     1       2.013   9.659  18.189  0.00  0.00    +0.000 C 
BRANCH  14  15
ATOM     15  C   UNL     1       0.519   9.659  18.520  0.00  0.00    +0.000 C 
BRANCH  15  16
ATOM     16  C   UNL     1       0.188  10.184  19.908  0.00  0.00    +0.000 A 
ATOM     17  C   UNL     1      -0.109   9.292  20.943  0.00  0.00    +0.000 A 
ATOM     18  C   UNL     1      -0.480   9.779  22.197  0.00  0.00    +0.000 A 
ATOM     19  C   UNL     1      -0.571  11.156  22.402  0.00  0.00    +0.000 A 
ATOM     20  C   UNL     1      -0.282  11.978  21.329  0.00  0.00    +0.000 A 
ATOM     21  N   UNL     1       0.077  11.535  20.091  0.00  0.00    +0.000 NA
ENDBRANCH  15  16
ENDBRANCH  14  15
ENDBRANCH  12  14
ENDBRANCH   1  11
BRANCH   8  22
ATOM     22  C   UNL     1       2.234   3.902  20.299  0.00  0.00    +0.000 C 
ATOM     23  C   UNL     1       0.896   3.134  20.352  0.00  0.00    +0.000 C 
ATOM     24  C   UNL     1       1.338   2.582  21.722  0.00  0.00    +0.000 C 
ATOM     25  C   UNL     1       2.791   2.772  21.234  0.00  0.00    +0.000 C 
ENDBRANCH   8  22
TORSDOF 5
ENDMDL
MODEL 6
REMARK VINA RESULT:      -7.3      2.771      6.584
REMARK  Name = 
REMARK  5 active torsions:
REMARK  status: ('A' for Active; 'I' for Inactive)
REMARK    1  A    between atoms: C_2  and  C_12
REMARK    2  A    between atoms: N_3  and  C_4
REMARK    3  A    between atoms: C_4  and  C_5
REMARK    4  A    between atoms: C_5  and  C_6
REMARK    5  A    between atoms: N_19  and  C_20
REMARK                            x       y       z     vdW  Elec       q    Type
REMARK                         _______ _______ _______ _____ _____    ______ ____
ROOT
ATOM      1  C   UNL     1       3.871   6.125  18.099  0.00  0.00    +0.000 C 
ATOM      2  C   UNL     1       4.499   6.688  16.779  0.00  0.00    +0.000 C 
ATOM      3  C   UNL     1       5.955   7.004  17.090  0.00  0.00    +0.000 C 
ATOM      4  O   UNL     1       6.346   6.157  18.144  0.00  0.00    +0.000 OA
ATOM      5  C   UNL     1       5.169   5.599  18.753  0.00  0.00    +0.000 C 
ATOM      6  C   UNL     1       5.367   4.087  18.486  0.00  0.00    +0.000 C 
ATOM      7  C   UNL     1       4.361   3.293  19.273  0.00  0.00    +0.000 C 
ATOM      8  N   UNL     1       2.995   3.758  19.033  0.00  0.00    +0.000 NA
ATOM      9  C   UNL     1       2.850   4.912  18.086  0.00  0.00    +0.000 C 
ENDROOT
BRANCH   1  11
ATOM     10  O   UNL     1       2.441   7.408  19.550  0.00  0.00    +0.000 OA
ATOM     11  C   UNL     1       2.857   7.294  18.383  0.00  0.00    +0.000 C 
ATOM     12  N   UNL     1       2.578   8.301  17.529  0.00  0.00    +0.000 N 
ATOM     13  H   UNL     1       2.882   8.268  16.570  0.00  0.00    +0.000 HD
BRANCH  12  14
ATOM     14  C   UNL     1       1.988   9.567  18.061  0.00  0.00    +0.000 C 
BRANCH  14  15
ATOM     15  C   UNL     1       0.465   9.674  17.950  0.00  0.00    +0.000 C 
BRANCH  15  16
ATOM     16  C   UNL     1      -0.183  10.503  19.046  0.00  0.00    +0.000 A 
ATOM     17  C   UNL     1      -1.391  11.165  18.804  0.00  0.00    +0.000 A 
ATOM     18  C   UNL     1      -1.948  11.981  19.790  0.00  0.00    +0.000 A 
ATOM     19  C   UNL     1      -1.283  12.146  21.005  0.00  0.00    +0.000 A 
ATOM     20  C   UNL     1      -0.084  11.478  21.168  0.00  0.00    +0.000 A 
ATOM     21  N   UNL     1       0.489  10.679  20.224  0.00  0.00    +0.000 NA
ENDBRANCH  15  16
ENDBRANCH  14  15
ENDBRANCH  12  14
ENDBRANCH   1  11
BRANCH   8  22
ATOM     22  C   UNL     1       2.300   3.874  20.328  0.00  0.00    +0.000 C 
ATOM     23  C   UNL     1       0.934   3.154  20.333  0.00  0.00    +0.000 C 
ATOM     24  C   UNL     1       1.308   2.584  21.715  0.00  0.00    +0.000 C 
ATOM     25  C   UNL     1       2.783   2.721  21.278  0.00  0.00    +0.000 C 
ENDBRANCH   8  22
TORSDOF 5
ENDMDL
MODEL 7
REMARK VINA RESULT:      -7.3      2.100      5.755
REMARK  Name = 
REMARK  5 active torsions:
REMARK  status: ('A' for Active; 'I' for Inactive)
REMARK    1  A    between atoms: C_2  and  C_12
REMARK    2  A    between atoms: N_3  and  C_4
REMARK    3  A    between atoms: C_4  and  C_5
REMARK    4  A    between atoms: C_5  and  C_6
REMARK    5  A    between atoms: N_19  and  C_20
REMARK                            x       y       z     vdW  Elec       q    Type
REMARK                         _______ _______ _______ _____ _____    ______ ____
ROOT
ATOM      1  C   UNL     1       4.756   5.572  18.040  0.00  0.00    +0.000 C 
ATOM      2  C   UNL     1       6.170   5.919  17.461  0.00  0.00    +0.000 C 
ATOM      3  C   UNL     1       7.107   6.051  18.654  0.00  0.00    +0.000 C 
ATOM      4  O   UNL     1       6.577   5.255  19.686  0.00  0.00    +0.000 OA
ATOM      5  C   UNL     1       5.214   4.926  19.367  0.00  0.00    +0.000 C 
ATOM      6  C   UNL     1       5.283   3.384  19.255  0.00  0.00    +0.000 C 
ATOM      7  C   UNL     1       3.892   2.815  19.177  0.00  0.00    +0.000 C 
ATOM      8  N   UNL     1       3.106   3.447  18.117  0.00  0.00    +0.000 NA
ATOM      9  C   UNL     1       3.802   4.520  17.334  0.00  0.00    +0.000 C 
ENDROOT
BRANCH   1  11
ATOM     10  O   UNL     1       4.308   7.385  16.521  0.00  0.00    +0.000 OA
ATOM     11  C   UNL     1       4.012   6.894  17.624  0.00  0.00    +0.000 C 
ATOM     12  N   UNL     1       2.936   7.408  18.258  0.00  0.00    +0.000 N 
ATOM     13  H   UNL     1       2.646   7.058  19.156  0.00  0.00    +0.000 HD
BRANCH  12  14
ATOM     14  C   UNL     1       2.050   8.367  17.529  0.00  0.00    +0.000 C 
BRANCH  14  15
ATOM     15  C   UNL     1       1.815   9.704  18.235  0.00  0.00    +0.000 C 
BRANCH  15  16
ATOM     16  C   UNL     1       1.055   9.591  19.547  0.00  0.00    +0.000 A 
ATOM     17  C   UNL     1       0.120  10.568  19.902  0.00  0.00    +0.000 A 
ATOM     18  C   UNL     1      -0.524  10.498  21.138  0.00  0.00    +0.000 A 
ATOM     19  C   UNL     1      -0.215   9.462  22.019  0.00  0.00    +0.000 A 
ATOM     20  C   UNL     1       0.733   8.542  21.610  0.00  0.00    +0.000 A 
ATOM     21  N   UNL     1       1.384   8.586  20.414  0.00  0.00    +0.000 NA
ENDBRANCH  15  16
ENDBRANCH  14  15
ENDBRANCH  12  14
ENDBRANCH   1  11
BRANCH   8  22
ATOM     22  C   UNL     1       1.772   3.776  18.649  0.00  0.00    +0.000 C 
ATOM     23  C   UNL     1       0.946   2.518  18.993  0.00  0.00    +0.000 C 
ATOM     24  C   UNL     1       0.545   3.215  20.308  0.00  0.00    +0.000 C 
ATOM     25  C   UNL     1       1.874   3.995  20.200  0.00  0.00    +0.000 C 
ENDBRANCH   8  22
TORSDOF 5
ENDMDL
MODEL 8
REMARK VINA RESULT:      -7.3      2.267      6.718
REMARK  Name = 
REMARK  5 active torsions:
REMARK  status: ('A' for Active; 'I' for Inactive)
REMARK    1  A    between atoms: C_2  and  C_12
REMARK    2  A    between atoms: N_3  and  C_4
REMARK    3  A    between atoms: C_4  and  C_5
REMARK    4  A    between atoms: C_5  and  C_6
REMARK    5  A    between atoms: N_19  and  C_20
REMARK                            x       y       z     vdW  Elec       q    Type
REMARK                         _______ _______ _______ _____ _____    ______ ____
ROOT
ATOM      1  C   UNL     1       2.810   5.345  19.018  0.00  0.00    +0.000 C 
ATOM      2  C   UNL     1       2.243   5.337  20.478  0.00  0.00    +0.000 C 
ATOM      3  C   UNL     1       0.899   4.624  20.419  0.00  0.00    +0.000 C 
ATOM      4  O   UNL     1       0.946   3.745  19.321  0.00  0.00    +0.000 OA
ATOM      5  C   UNL     1       2.057   4.107  18.482  0.00  0.00    +0.000 C 
ATOM      6  C   UNL     1       2.933   2.832  18.559  0.00  0.00    +0.000 C 
ATOM      7  C   UNL     1       4.034   2.908  17.536  0.00  0.00    +0.000 C 
ATOM      8  N   UNL     1       4.795   4.152  17.649  0.00  0.00    +0.000 NA
ATOM      9  C   UNL     1       4.348   5.102  18.720  0.00  0.00    +0.000 C 
ENDROOT
BRANCH   1  11
ATOM     10  O   UNL     1       3.242   7.311  17.698  0.00  0.00    +0.000 OA
ATOM     11  C   UNL     1       2.756   6.897  18.765  0.00  0.00    +0.000 C 
ATOM     12  N   UNL     1       2.038   7.776  19.496  0.00  0.00    +0.000 N 
ATOM     13  H   UNL     1       1.622   7.505  20.371  0.00  0.00    +0.000 HD
BRANCH  12  14
ATOM     14  C   UNL     1       1.690   9.104  18.904  0.00  0.00    +0.000 C 
BRANCH  14  15
ATOM     15  C   UNL     1       0.226   9.522  19.053  0.00  0.00    +0.000 C 
BRANCH  15  16
ATOM     16  C   UNL     1      -0.190   9.841  20.481  0.00  0.00    +0.000 A 
ATOM     17  C   UNL     1      -0.547  11.146  20.832  0.00  0.00    +0.000 A 
ATOM     18  C   UNL     1      -0.861  11.449  22.158  0.00  0.00    +0.000 A 
ATOM     19  C   UNL     1      -0.796  10.448  23.128  0.00  0.00    +0.000 A 
ATOM     20  C   UNL     1      -0.417   9.185  22.712  0.00  0.00    +0.000 A 
ATOM     21  N   UNL     1      -0.098   8.858  21.428  0.00  0.00    +0.000 NA
ENDBRANCH  15  16
ENDBRANCH  14  15
ENDBRANCH  12  14
ENDBRANCH   1  11
BRANCH   8  22
ATOM     22  C   UNL     1       4.982   4.716  16.300  0.00  0.00    +0.000 C 
ATOM     23  C   UNL     1       6.129   5.747  16.243  0.00  0.00    +0.000 C 
ATOM     24  C   UNL     1       6.592   5.069  14.939  0.00  0.00    +0.000 C 
ATOM     25  C   UNL     1       5.934   3.779  15.476  0.00  0.00    +0.000 C 
ENDBRANCH   8  22
TORSDOF 5
ENDMDL
MODEL 9
REMARK VINA RESULT:      -7.2      1.820      6.063
REMARK  Name = 
REMARK  5 active torsions:
REMARK  status: ('A' for Active; 'I' for Inactive)
REMARK    1  A    between atoms: C_2  and  C_12
REMARK    2  A    between atoms: N_3  and  C_4
REMARK    3  A    between atoms: C_4  and  C_5
REMARK    4  A    between atoms: C_5  and  C_6
REMARK    5  A    between atoms: N_19  and  C_20
REMARK                            x       y       z     vdW  Elec       q    Type
REMARK                         _______ _______ _______ _____ _____    ______ ____
ROOT
ATOM      1  C   UNL     1       5.683   4.519  17.647  0.00  0.00    +0.000 C 
ATOM      2  C   UNL     1       5.539   5.356  18.963  0.00  0.00    +0.000 C 
ATOM      3  C   UNL     1       6.902   5.340  19.640  0.00  0.00    +0.000 C 
ATOM      4  O   UNL     1       7.863   5.156  18.630  0.00  0.00    +0.000 OA
ATOM      5  C   UNL     1       7.203   4.700  17.436  0.00  0.00    +0.000 C 
ATOM      6  C   UNL     1       7.507   5.854  16.451  0.00  0.00    +0.000 C 
ATOM      7  C   UNL     1       7.116   5.450  15.056  0.00  0.00    +0.000 C 
ATOM      8  N   UNL     1       5.734   4.974  14.995  0.00  0.00    +0.000 NA
ATOM      9  C   UNL     1       4.985   4.964  16.294  0.00  0.00    +0.000 C 
ENDROOT
BRANCH   1  11
ATOM     10  O   UNL     1       4.878   2.830  19.163  0.00  0.00    +0.000 OA
ATOM     11  C   UNL     1       4.730   3.328  18.032  0.00  0.00    +0.000 C 
ATOM     12  N   UNL     1       3.637   2.954  17.334  0.00  0.00    +0.000 N 
ATOM     13  H   UNL     1       3.462   3.316  16.412  0.00  0.00    +0.000 HD
BRANCH  12  14
ATOM     14  C   UNL     1       2.575   2.152  18.015  0.00  0.00    +0.000 C 
BRANCH  14  15
ATOM     15  C   UNL     1       1.378   2.955  18.528  0.00  0.00    +0.000 C 
BRANCH  15  16
ATOM     16  C   UNL     1       1.716   4.375  18.953  0.00  0.00    +0.000 A 
ATOM     17  C   UNL     1       1.653   4.738  20.302  0.00  0.00    +0.000 A 
ATOM     18  C   UNL     1       1.897   6.059  20.680  0.00  0.00    +0.000 A 
ATOM     19  C   UNL     1       2.183   7.014  19.703  0.00  0.00    +0.000 A 
ATOM     20  C   UNL     1       2.210   6.588  18.388  0.00  0.00    +0.000 A 
ATOM     21  N   UNL     1       1.971   5.308  17.986  0.00  0.00    +0.000 NA
ENDBRANCH  15  16
ENDBRANCH  14  15
ENDBRANCH  12  14
ENDBRANCH   1  11
BRANCH   8  22
ATOM     22  C   UNL     1       5.695   3.734  14.199  0.00  0.00    +0.000 C 
ATOM     23  C   UNL     1       4.741   3.837  12.990  0.00  0.00    +0.000 C 
ATOM     24  C   UNL     1       5.840   3.166  12.144  0.00  0.00    +0.000 C 
ATOM     25  C   UNL     1       6.855   3.762  13.143  0.00  0.00    +0.000 C 
ENDBRANCH   8  22
TORSDOF 5
ENDMDL
