MODEL 1
REMARK VINA RESULT:      -8.2      0.000      0.000
REMARK  Name = 
REMARK  8 active torsions:
REMARK  status: ('A' for Active; 'I' for Inactive)
REMARK    1  A    between atoms: C_1  and  C_2
REMARK    2  A    between atoms: C_2  and  S_3
REMARK    3  A    between atoms: S_3  and  N_6
REMARK    4  A    between atoms: N_6  and  C_7
REMARK    5  A    between atoms: C_10  and  N_11
REMARK    6  A    between atoms: C_12  and  C_14
REMARK    7  A    between atoms: C_18  and  C_19
REMARK    8  A    between atoms: C_25  and  C_26
REMARK                            x       y       z     vdW  Elec       q    Type
REMARK                         _______ _______ _______ _____ _____    ______ ____
ROOT
ATOM      1  C   UNL     1       6.181   5.071  17.869  0.00  0.00    +0.000 A 
ATOM      2  C   UNL     1       7.226   4.906  18.782  0.00  0.00    +0.000 A 
ATOM      3  C   UNL     1       8.058   5.985  19.118  0.00  0.00    +0.000 A 
ATOM      4  C   UNL     1       7.890   7.230  18.509  0.00  0.00    +0.000 A 
ATOM      5  C   UNL     1       6.902   7.360  17.525  0.00  0.00    +0.000 A 
ATOM      6  C   UNL     1       6.004   6.310  17.238  0.00  0.00    +0.000 A 
ATOM      7  C   UNL     1       4.855   6.572  16.310  0.00  0.00    +0.000 C 
ENDROOT
BRANCH   4   8
ATOM      8  N   UNL     1       8.622   8.394  18.859  0.00  0.00    +0.000 N 
ATOM      9  C   UNL     1       8.453   9.659  18.310  0.00  0.00    +0.000 C 
ATOM     10  O   UNL     1       7.622   9.972  17.465  0.00  0.00    +0.000 OA
ATOM     11  H   UNL     1       9.465   8.238  19.393  0.00  0.00    +0.000 HD
BRANCH   9  12
ATOM     12  C   UNL     1       9.456  10.696  18.715  0.00  0.00    +0.000 A 
ATOM     13  C   UNL     1      10.065  10.693  19.975  0.00  0.00    +0.000 A 
ATOM     14  C   UNL     1      10.991  11.688  20.305  0.00  0.00    +0.000 A 
ATOM     15  C   UNL     1      11.330  12.677  19.380  0.00  0.00    +0.000 A 
ATOM     16  C   UNL     1      10.737  12.696  18.109  0.00  0.00    +0.000 A 
ATOM     17  C   UNL     1       9.782  11.711  17.797  0.00  0.00    +0.000 A 
BRANCH  16  18
ATOM     18  C   UNL     1      11.133  13.733  17.083  0.00  0.00    +0.000 C 
ATOM     19  F   UNL     1      11.234  13.233  15.818  0.00  0.00    +0.000 F 
ATOM     20  F   UNL     1      10.230  14.750  17.004  0.00  0.00    +0.000 F 
ATOM     21  F   UNL     1      12.333  14.314  17.349  0.00  0.00    +0.000 F 
ENDBRANCH  16  18
ENDBRANCH   9  12
ENDBRANCH   4   8
BRANCH   1  22
ATOM     22  N   UNL     1       5.280   3.978  17.615  0.00  0.00    +0.000 N 
ATOM     23  H   UNL     1       4.666   4.170  16.817  0.00  0.00    +0.000 HD
BRANCH  22  24
ATOM     24  S   UNL     1       4.270   3.488  18.892  0.00  0.00    +0.000 S 
ATOM     25  O   UNL     1       3.903   4.711  19.574  0.00  0.00    +0.000 OA
ATOM     26  O   UNL     1       4.848   2.364  19.586  0.00  0.00    +0.000 OA
BRANCH  24  28
ATOM     27  C   UNL     1       1.986   4.072  17.485  0.00  0.00    +0.000 C 
ATOM     28  C   UNL     1       2.825   2.909  17.990  0.00  0.00    +0.000 C 
ENDBRANCH  24  28
ENDBRANCH  22  24
ENDBRANCH   1  22
TORSDOF 6
ENDMDL
MODEL 2
REMARK VINA RESULT:      -8.1      6.443      8.321
REMARK  Name = 
REMARK  8 active torsions:
REMARK  status: ('A' for Active; 'I' for Inactive)
REMARK    1  A    between atoms: C_1  and  C_2
REMARK    2  A    between atoms: C_2  and  S_3
REMARK    3  A    between atoms: S_3  and  N_6
REMARK    4  A    between atoms: N_6  and  C_7
REMARK    5  A    between atoms: C_10  and  N_11
REMARK    6  A    between atoms: C_12  and  C_14
REMARK    7  A    between atoms: C_18  and  C_19
REMARK    8  A    between atoms: C_25  and  C_26
REMARK                            x       y       z     vdW  Elec       q    Type
REMARK                         _______ _______ _______ _____ _____    ______ ____
ROOT
ATOM      1  C   UNL     1       4.848   4.559  17.560  0.00  0.00    +0.000 A 
ATOM      2  C   UNL     1       3.480   4.528  17.277  0.00  0.00    +0.000 A 
ATOM      3  C   UNL     1       2.573   5.270  18.050  0.00  0.00    +0.000 A 
ATOM      4  C   UNL     1       3.014   6.012  19.147  0.00  0.00    +0.000 A 
ATOM      5  C   UNL     1       4.374   5.960  19.481  0.00  0.00    +0.000 A 
ATOM      6  C   UNL     1       5.308   5.289  18.664  0.00  0.00    +0.000 A 
ATOM      7  C   UNL     1       6.771   5.426  18.973  0.00  0.00    +0.000 C 
ENDROOT
BRANCH   4   8
ATOM      8  N   UNL     1       2.183   6.863  19.920  0.00  0.00    +0.000 N 
ATOM      9  C   UNL     1       1.764   8.138  19.563  0.00  0.00    +0.000 C 
ATOM     10  O   UNL     1       2.016   8.710  18.509  0.00  0.00    +0.000 OA
ATOM     11  H   UNL     1       2.067   6.599  20.889  0.00  0.00    +0.000 HD
BRANCH   9  12
ATOM     12  C   UNL     1       1.030   8.913  20.616  0.00  0.00    +0.000 A 
ATOM     13  C   UNL     1       1.138   8.608  21.977  0.00  0.00    +0.000 A 
ATOM     14  C   UNL     1       0.428   9.361  22.919  0.00  0.00    +0.000 A 
ATOM     15  C   UNL     1      -0.376  10.429  22.515  0.00  0.00    +0.000 A 
ATOM     16  C   UNL     1      -0.493  10.756  21.155  0.00  0.00    +0.000 A 
ATOM     17  C   UNL     1       0.198   9.974  20.212  0.00  0.00    +0.000 A 
BRANCH  16  18
ATOM     18  C   UNL     1      -1.321  11.940  20.711  0.00  0.00    +0.000 C 
ATOM     19  F   UNL     1      -0.571  13.024  20.361  0.00  0.00    +0.000 F 
ATOM     20  F   UNL     1      -2.084  11.654  19.619  0.00  0.00    +0.000 F 
ATOM     21  F   UNL     1      -2.182  12.377  21.668  0.00  0.00    +0.000 F 
ENDBRANCH  16  18
ENDBRANCH   9  12
ENDBRANCH   4   8
BRANCH   1  22
ATOM     22  N   UNL     1       5.769   3.871  16.694  0.00  0.00    +0.000 N 
ATOM     23  H   UNL     1       6.578   3.512  17.210  0.00  0.00    +0.000 HD
BRANCH  22  24
ATOM     24  S   UNL     1       6.389   4.738  15.370  0.00  0.00    +0.000 S 
ATOM     25  O   UNL     1       7.826   4.597  15.466  0.00  0.00    +0.000 OA
ATOM     26  O   UNL     1       5.747   6.026  15.268  0.00  0.00    +0.000 OA
BRANCH  24  28
ATOM     27  C   UNL     1       6.689   3.940  12.761  0.00  0.00    +0.000 C 
ATOM     28  C   UNL     1       5.828   3.722  13.995  0.00  0.00    +0.000 C 
ENDBRANCH  24  28
ENDBRANCH  22  24
ENDBRANCH   1  22
TORSDOF 6
ENDMDL
MODEL 3
REMARK VINA RESULT:      -8.0      6.638      8.549
REMARK  Name = 
REMARK  8 active torsions:
REMARK  status: ('A' for Active; 'I' for Inactive)
REMARK    1  A    between atoms: C_1  and  C_2
REMARK    2  A    between atoms: C_2  and  S_3
REMARK    3  A    between atoms: S_3  and  N_6
REMARK    4  A    between atoms: N_6  and  C_7
REMARK    5  A    between atoms: C_10  and  N_11
REMARK    6  A    between atoms: C_12  and  C_14
REMARK    7  A    between atoms: C_18  and  C_19
REMARK    8  A    between atoms: C_25  and  C_26
REMARK                            x       y       z     vdW  Elec       q    Type
REMARK                         _______ _______ _______ _____ _____    ______ ____
ROOT
ATOM      1  C   UNL     1       4.648   5.234  17.591  0.00  0.00    +0.000 A 
ATOM      2  C   UNL     1       4.208   6.480  17.137  0.00  0.00    +0.000 A 
ATOM      3  C   UNL     1       3.302   7.238  17.896  0.00  0.00    +0.000 A 
ATOM      4  C   UNL     1       2.783   6.739  19.092  0.00  0.00    +0.000 A 
ATOM      5  C   UNL     1       3.156   5.448  19.490  0.00  0.00    +0.000 A 
ATOM      6  C   UNL     1       4.129   4.711  18.783  0.00  0.00    +0.000 A 
ATOM      7  C   UNL     1       4.619   3.416  19.362  0.00  0.00    +0.000 C 
ENDROOT
BRANCH   4   8
ATOM      8  N   UNL     1       1.941   7.474  19.965  0.00  0.00    +0.000 N 
ATOM      9  C   UNL     1       1.384   8.719  19.704  0.00  0.00    +0.000 C 
ATOM     10  O   UNL     1       1.504   9.358  18.664  0.00  0.00    +0.000 OA
ATOM     11  H   UNL     1       1.922   7.159  20.925  0.00  0.00    +0.000 HD
BRANCH   9  12
ATOM     12  C   UNL     1       0.666   9.377  20.844  0.00  0.00    +0.000 A 
ATOM     13  C   UNL     1       0.732   8.882  22.151  0.00  0.00    +0.000 A 
ATOM     14  C   UNL     1       0.039   9.531  23.178  0.00  0.00    +0.000 A 
ATOM     15  C   UNL     1      -0.707  10.682  22.915  0.00  0.00    +0.000 A 
ATOM     16  C   UNL     1      -0.781  11.199  21.613  0.00  0.00    +0.000 A 
ATOM     17  C   UNL     1      -0.108  10.522  20.580  0.00  0.00    +0.000 A 
BRANCH  16  18
ATOM     18  C   UNL     1      -1.544  12.471  21.326  0.00  0.00    +0.000 C 
ATOM     19  F   UNL     1      -1.316  13.458  22.239  0.00  0.00    +0.000 F 
ATOM     20  F   UNL     1      -1.216  13.008  20.117  0.00  0.00    +0.000 F 
ATOM     21  F   UNL     1      -2.892  12.290  21.304  0.00  0.00    +0.000 F 
ENDBRANCH  16  18
ENDBRANCH   9  12
ENDBRANCH   4   8
BRANCH   1  22
ATOM     22  N   UNL     1       5.651   4.520  16.847  0.00  0.00    +0.000 N 
ATOM     23  H   UNL     1       5.731   3.546  17.154  0.00  0.00    +0.000 HD
BRANCH  22  24
ATOM     24  S   UNL     1       7.228   5.157  16.856  0.00  0.00    +0.000 S 
ATOM     25  O   UNL     1       7.355   5.869  15.603  0.00  0.00    +0.000 OA
ATOM     26  O   UNL     1       8.174   4.150  17.268  0.00  0.00    +0.000 OA
BRANCH  24  28
ATOM     27  C   UNL     1       7.702   7.710  17.747  0.00  0.00    +0.000 C 
ATOM     28  C   UNL     1       7.102   6.379  18.171  0.00  0.00    +0.000 C 
ENDBRANCH  24  28
ENDBRANCH  22  24
ENDBRANCH   1  22
TORSDOF 6
ENDMDL
MODEL 4
REMARK VINA RESULT:      -8.0      7.211      9.385
REMARK  Name = 
REMARK  8 active torsions:
REMARK  status: ('A' for Active; 'I' for Inactive)
REMARK    1  A    between atoms: C_1  and  C_2
REMARK    2  A    between atoms: C_2  and  S_3
REMARK    3  A    between atoms: S_3  and  N_6
REMARK    4  A    between atoms: N_6  and  C_7
REMARK    5  A    between atoms: C_10  and  N_11
REMARK    6  A    between atoms: C_12  and  C_14
REMARK    7  A    between atoms: C_18  and  C_19
REMARK    8  A    between atoms: C_25  and  C_26
REMARK                            x       y       z     vdW  Elec       q    Type
REMARK                         _______ _______ _______ _____ _____    ______ ____
ROOT
ATOM      1  C   UNL     1      -0.408  10.705  20.860  0.00  0.00    +0.000 A 
ATOM      2  C   UNL     1      -0.047  10.726  19.511  0.00  0.00    +0.000 A 
ATOM      3  C   UNL     1       0.823   9.755  18.988  0.00  0.00    +0.000 A 
ATOM      4  C   UNL     1       1.384   8.783  19.818  0.00  0.00    +0.000 A 
ATOM      5  C   UNL     1       1.092   8.829  21.187  0.00  0.00    +0.000 A 
ATOM      6  C   UNL     1       0.155   9.744  21.711  0.00  0.00    +0.000 A 
ATOM      7  C   UNL     1      -0.252   9.621  23.150  0.00  0.00    +0.000 C 
ENDROOT
BRANCH   4   8
ATOM      8  N   UNL     1       2.193   7.712  19.357  0.00  0.00    +0.000 N 
ATOM      9  C   UNL     1       2.827   7.641  18.124  0.00  0.00    +0.000 C 
ATOM     10  O   UNL     1       2.817   8.509  17.258  0.00  0.00    +0.000 OA
ATOM     11  H   UNL     1       2.124   6.853  19.885  0.00  0.00    +0.000 HD
BRANCH   9  12
ATOM     12  C   UNL     1       3.489   6.337  17.793  0.00  0.00    +0.000 A 
ATOM     13  C   UNL     1       2.801   5.120  17.840  0.00  0.00    +0.000 A 
ATOM     14  C   UNL     1       3.467   3.930  17.526  0.00  0.00    +0.000 A 
ATOM     15  C   UNL     1       4.810   3.947  17.147  0.00  0.00    +0.000 A 
ATOM     16  C   UNL     1       5.518   5.157  17.087  0.00  0.00    +0.000 A 
ATOM     17  C   UNL     1       4.850   6.345  17.437  0.00  0.00    +0.000 A 
BRANCH  16  18
ATOM     18  C   UNL     1       6.958   5.193  16.631  0.00  0.00    +0.000 C 
ATOM     19  F   UNL     1       7.105   5.028  15.285  0.00  0.00    +0.000 F 
ATOM     20  F   UNL     1       7.562   6.379  16.923  0.00  0.00    +0.000 F 
ATOM     21  F   UNL     1       7.723   4.228  17.208  0.00  0.00    +0.000 F 
ENDBRANCH  16  18
ENDBRANCH   9  12
ENDBRANCH   4   8
BRANCH   1  22
ATOM     22  N   UNL     1      -1.378  11.648  21.351  0.00  0.00    +0.000 N 
ATOM     23  H   UNL     1      -2.154  11.772  20.694  0.00  0.00    +0.000 HD
BRANCH  22  24
ATOM     24  S   UNL     1      -0.822  13.208  21.737  0.00  0.00    +0.000 S 
ATOM     25  O   UNL     1      -1.543  14.096  20.851  0.00  0.00    +0.000 OA
ATOM     26  O   UNL     1       0.617  13.218  21.833  0.00  0.00    +0.000 OA
BRANCH  24  28
ATOM     27  C   UNL     1      -2.847  12.735  23.529  0.00  0.00    +0.000 C 
ATOM     28  C   UNL     1      -1.495  13.417  23.392  0.00  0.00    +0.000 C 
ENDBRANCH  24  28
ENDBRANCH  22  24
ENDBRANCH   1  22
TORSDOF 6
ENDMDL
MODEL 5
REMARK VINA RESULT:      -7.8      8.228     10.463
REMARK  Name = 
REMARK  8 active torsions:
REMARK  status: ('A' for Active; 'I' for Inactive)
REMARK    1  A    between atoms: C_1  and  C_2
REMARK    2  A    between atoms: C_2  and  S_3
REMARK    3  A    between atoms: S_3  and  N_6
REMARK    4  A    between atoms: N_6  and  C_7
REMARK    5  A    between atoms: C_10  and  N_11
REMARK    6  A    between atoms: C_12  and  C_14
REMARK    7  A    between atoms: C_18  and  C_19
REMARK    8  A    between atoms: C_25  and  C_26
REMARK                            x       y       z     vdW  Elec       q    Type
REMARK                         _______ _______ _______ _____ _____    ______ ____
ROOT
ATOM      1  C   UNL     1      -0.458  10.715  20.999  0.00  0.00    +0.000 A 
ATOM      2  C   UNL     1      -0.165  10.748  19.633  0.00  0.00    +0.000 A 
ATOM      3  C   UNL     1       0.685   9.787  19.061  0.00  0.00    +0.000 A 
ATOM      4  C   UNL     1       1.293   8.813  19.854  0.00  0.00    +0.000 A 
ATOM      5  C   UNL     1       1.070   8.848  21.237  0.00  0.00    +0.000 A 
ATOM      6  C   UNL     1       0.154   9.752  21.813  0.00  0.00    +0.000 A 
ATOM      7  C   UNL     1      -0.180   9.617  23.270  0.00  0.00    +0.000 C 
ENDROOT
BRANCH   4   8
ATOM      8  N   UNL     1       2.086   7.751  19.347  0.00  0.00    +0.000 N 
ATOM      9  C   UNL     1       2.687   7.709  18.096  0.00  0.00    +0.000 C 
ATOM     10  O   UNL     1       2.657   8.597  17.251  0.00  0.00    +0.000 OA
ATOM     11  H   UNL     1       2.028   6.880  19.855  0.00  0.00    +0.000 HD
BRANCH   9  12
ATOM     12  C   UNL     1       3.334   6.411  17.715  0.00  0.00    +0.000 A 
ATOM     13  C   UNL     1       4.522   6.359  16.979  0.00  0.00    +0.000 A 
ATOM     14  C   UNL     1       5.082   5.120  16.646  0.00  0.00    +0.000 A 
ATOM     15  C   UNL     1       4.475   3.933  17.057  0.00  0.00    +0.000 A 
ATOM     16  C   UNL     1       3.286   3.962  17.802  0.00  0.00    +0.000 A 
ATOM     17  C   UNL     1       2.712   5.210  18.104  0.00  0.00    +0.000 A 
BRANCH  16  18
ATOM     18  C   UNL     1       2.647   2.684  18.294  0.00  0.00    +0.000 C 
ATOM     19  F   UNL     1       1.558   2.894  19.089  0.00  0.00    +0.000 F 
ATOM     20  F   UNL     1       2.207   1.900  17.270  0.00  0.00    +0.000 F 
ATOM     21  F   UNL     1       3.495   1.911  19.024  0.00  0.00    +0.000 F 
ENDBRANCH  16  18
ENDBRANCH   9  12
ENDBRANCH   4   8
BRANCH   1  22
ATOM     22  N   UNL     1      -1.408  11.648  21.544  0.00  0.00    +0.000 N 
ATOM     23  H   UNL     1      -2.253  11.709  20.968  0.00  0.00    +0.000 HD
BRANCH  22  24
ATOM     24  S   UNL     1      -0.879  13.244  21.792  0.00  0.00    +0.000 S 
ATOM     25  O   UNL     1      -1.644  14.045  20.860  0.00  0.00    +0.000 OA
ATOM     26  O   UNL     1       0.562  13.293  21.845  0.00  0.00    +0.000 OA
BRANCH  24  28
ATOM     27  C   UNL     1      -2.946  13.084  23.590  0.00  0.00    +0.000 C 
ATOM     28  C   UNL     1      -1.513  13.569  23.444  0.00  0.00    +0.000 C 
ENDBRANCH  24  28
ENDBRANCH  22  24
ENDBRANCH   1  22
TORSDOF 6
ENDMDL
MODEL 6
REMARK VINA RESULT:      -7.8      5.261      9.430
REMARK  Name = 
REMARK  8 active torsions:
REMARK  status: ('A' for Active; 'I' for Inactive)
REMARK    1  A    between atoms: C_1  and  C_2
REMARK    2  A    between atoms: C_2  and  S_3
REMARK    3  A    between atoms: S_3  and  N_6
REMARK    4  A    between atoms: N_6  and  C_7
REMARK    5  A    between atoms: C_10  and  N_11
REMARK    6  A    between atoms: C_12  and  C_14
REMARK    7  A    between atoms: C_18  and  C_19
REMARK    8  A    between atoms: C_25  and  C_26
REMARK                            x       y       z     vdW  Elec       q    Type
REMARK                         _______ _______ _______ _____ _____    ______ ____
ROOT
ATOM      1  C   UNL     1      10.557  13.117  19.827  0.00  0.00    +0.000 A 
ATOM      2  C   UNL     1       9.914  12.380  20.825  0.00  0.00    +0.000 A 
ATOM      3  C   UNL     1       9.437  11.085  20.562  0.00  0.00    +0.000 A 
ATOM      4  C   UNL     1       9.549  10.531  19.286  0.00  0.00    +0.000 A 
ATOM      5  C   UNL     1      10.107  11.315  18.268  0.00  0.00    +0.000 A 
ATOM      6  C   UNL     1      10.668  12.581  18.536  0.00  0.00    +0.000 A 
ATOM      7  C   UNL     1      11.414  13.290  17.444  0.00  0.00    +0.000 C 
ENDROOT
BRANCH   4   8
ATOM      8  N   UNL     1       9.182   9.200  18.960  0.00  0.00    +0.000 N 
ATOM      9  C   UNL     1       8.180   8.824  18.075  0.00  0.00    +0.000 C 
ATOM     10  O   UNL     1       7.483   9.584  17.412  0.00  0.00    +0.000 OA
ATOM     11  H   UNL     1       9.537   8.483  19.578  0.00  0.00    +0.000 HD
BRANCH   9  12
ATOM     12  C   UNL     1       7.859   7.361  18.019  0.00  0.00    +0.000 A 
ATOM     13  C   UNL     1       8.054   6.513  19.115  0.00  0.00    +0.000 A 
ATOM     14  C   UNL     1       7.742   5.153  19.008  0.00  0.00    +0.000 A 
ATOM     15  C   UNL     1       7.222   4.635  17.822  0.00  0.00    +0.000 A 
ATOM     16  C   UNL     1       7.013   5.468  16.713  0.00  0.00    +0.000 A 
ATOM     17  C   UNL     1       7.359   6.827  16.817  0.00  0.00    +0.000 A 
BRANCH  16  18
ATOM     18  C   UNL     1       6.404   4.927  15.439  0.00  0.00    +0.000 C 
ATOM     19  F   UNL     1       5.332   5.648  15.003  0.00  0.00    +0.000 F 
ATOM     20  F   UNL     1       7.290   4.926  14.404  0.00  0.00    +0.000 F 
ATOM     21  F   UNL     1       5.965   3.646  15.561  0.00  0.00    +0.000 F 
ENDBRANCH  16  18
ENDBRANCH   9  12
ENDBRANCH   4   8
BRANCH   1  22
ATOM     22  N   UNL     1      11.125  14.399  20.145  0.00  0.00    +0.000 N 
ATOM     23  H   UNL     1      11.539  14.409  21.083  0.00  0.00    +0.000 HD
BRANCH  22  24
ATOM     24  S   UNL     1      10.097  15.751  20.060  0.00  0.00    +0.000 S 
ATOM     25  O   UNL     1      10.159  16.356  21.373  0.00  0.00    +0.000 OA
ATOM     26  O   UNL     1       8.847  15.391  19.436  0.00  0.00    +0.000 OA
BRANCH  24  28
ATOM     27  C   UNL     1      10.318  16.885  17.570  0.00  0.00    +0.000 C 
ATOM     28  C   UNL     1      11.006  16.809  18.924  0.00  0.00    +0.000 C 
ENDBRANCH  24  28
ENDBRANCH  22  24
ENDBRANCH   1  22
TORSDOF 6
ENDMDL
MODEL 7
REMARK VINA RESULT:      -7.8      7.178      9.517
REMARK  Name = 
REMARK  8 active torsions:
REMARK  status: ('A' for Active; 'I' for Inactive)
REMARK    1  A    between atoms: C_1  and  C_2
REMARK    2  A    between atoms: C_2  and  S_3
REMARK    3  A    between atoms: S_3  and  N_6
REMARK    4  A    between atoms: N_6  and  C_7
REMARK    5  A    between atoms: C_10  and  N_11
REMARK    6  A    between atoms: C_12  and  C_14
REMARK    7  A    between atoms: C_18  and  C_19
REMARK    8  A    between atoms: C_25  and  C_26
REMARK                            x       y       z     vdW  Elec       q    Type
REMARK                         _______ _______ _______ _____ _____    ______ ____
ROOT
ATOM      1  C   UNL     1      -0.250  10.822  21.004  0.00  0.00    +0.000 A 
ATOM      2  C   UNL     1       0.136  10.854  19.661  0.00  0.00    +0.000 A 
ATOM      3  C   UNL     1       0.928   9.828  19.121  0.00  0.00    +0.000 A 
ATOM      4  C   UNL     1       1.386   8.784  19.926  0.00  0.00    +0.000 A 
ATOM      5  C   UNL     1       1.074   8.812  21.291  0.00  0.00    +0.000 A 
ATOM      6  C   UNL     1       0.211   9.788  21.830  0.00  0.00    +0.000 A 
ATOM      7  C   UNL     1      -0.232   9.656  23.259  0.00  0.00    +0.000 C 
ENDROOT
BRANCH   4   8
ATOM      8  N   UNL     1       2.107   7.661  19.443  0.00  0.00    +0.000 N 
ATOM      9  C   UNL     1       2.718   7.558  18.200  0.00  0.00    +0.000 C 
ATOM     10  O   UNL     1       2.761   8.434  17.343  0.00  0.00    +0.000 OA
ATOM     11  H   UNL     1       1.981   6.803  19.962  0.00  0.00    +0.000 HD
BRANCH   9  12
ATOM     12  C   UNL     1       3.275   6.212  17.846  0.00  0.00    +0.000 A 
ATOM     13  C   UNL     1       2.503   5.046  17.904  0.00  0.00    +0.000 A 
ATOM     14  C   UNL     1       3.074   3.814  17.567  0.00  0.00    +0.000 A 
ATOM     15  C   UNL     1       4.406   3.738  17.155  0.00  0.00    +0.000 A 
ATOM     16  C   UNL     1       5.196   4.895  17.083  0.00  0.00    +0.000 A 
ATOM     17  C   UNL     1       4.624   6.125  17.455  0.00  0.00    +0.000 A 
BRANCH  16  18
ATOM     18  C   UNL     1       6.623   4.830  16.591  0.00  0.00    +0.000 C 
ATOM     19  F   UNL     1       6.766   4.125  15.432  0.00  0.00    +0.000 F 
ATOM     20  F   UNL     1       7.136   6.066  16.333  0.00  0.00    +0.000 F 
ATOM     21  F   UNL     1       7.469   4.250  17.484  0.00  0.00    +0.000 F 
ENDBRANCH  16  18
ENDBRANCH   9  12
ENDBRANCH   4   8
BRANCH   1  22
ATOM     22  N   UNL     1      -1.143  11.830  21.511  0.00  0.00    +0.000 N 
ATOM     23  H   UNL     1      -1.819  12.130  20.802  0.00  0.00    +0.000 HD
BRANCH  22  24
ATOM     24  S   UNL     1      -0.442  13.248  22.136  0.00  0.00    +0.000 S 
ATOM     25  O   UNL     1       0.944  13.198  21.723  0.00  0.00    +0.000 OA
ATOM     26  O   UNL     1      -0.828  13.433  23.513  0.00  0.00    +0.000 OA
BRANCH  24  28
ATOM     27  C   UNL     1      -0.814  14.451  19.698  0.00  0.00    +0.000 C 
ATOM     28  C   UNL     1      -1.263  14.507  21.149  0.00  0.00    +0.000 C 
ENDBRANCH  24  28
ENDBRANCH  22  24
ENDBRANCH   1  22
TORSDOF 6
ENDMDL
MODEL 8
REMARK VINA RESULT:      -7.8      1.866      2.334
REMARK  Name = 
REMARK  8 active torsions:
REMARK  status: ('A' for Active; 'I' for Inactive)
REMARK    1  A    between atoms: C_1  and  C_2
REMARK    2  A    between atoms: C_2  and  S_3
REMARK    3  A    between atoms: S_3  and  N_6
REMARK    4  A    between atoms: N_6  and  C_7
REMARK    5  A    between atoms: C_10  and  N_11
REMARK    6  A    between atoms: C_12  and  C_14
REMARK    7  A    between atoms: C_18  and  C_19
REMARK    8  A    between atoms: C_25  and  C_26
REMARK                            x       y       z     vdW  Elec       q    Type
REMARK                         _______ _______ _______ _____ _____    ______ ____
ROOT
ATOM      1  C   UNL     1       6.371   4.911  17.858  0.00  0.00    +0.000 A 
ATOM      2  C   UNL     1       7.198   4.884  18.984  0.00  0.00    +0.000 A 
ATOM      3  C   UNL     1       7.994   5.993  19.313  0.00  0.00    +0.000 A 
ATOM      4  C   UNL     1       8.015   7.122  18.492  0.00  0.00    +0.000 A 
ATOM      5  C   UNL     1       7.257   7.101  17.314  0.00  0.00    +0.000 A 
ATOM      6  C   UNL     1       6.387   6.031  17.016  0.00  0.00    +0.000 A 
ATOM      7  C   UNL     1       5.467   6.151  15.837  0.00  0.00    +0.000 C 
ENDROOT
BRANCH   4   8
ATOM      8  N   UNL     1       8.714   8.318  18.798  0.00  0.00    +0.000 N 
ATOM      9  C   UNL     1       8.435   9.579  18.288  0.00  0.00    +0.000 C 
ATOM     10  O   UNL     1       7.519   9.860  17.522  0.00  0.00    +0.000 OA
ATOM     11  H   UNL     1       9.607   8.199  19.256  0.00  0.00    +0.000 HD
BRANCH   9  12
ATOM     12  C   UNL     1       9.416  10.662  18.624  0.00  0.00    +0.000 A 
ATOM     13  C   UNL     1      10.542  10.919  17.834  0.00  0.00    +0.000 A 
ATOM     14  C   UNL     1      11.428  11.939  18.196  0.00  0.00    +0.000 A 
ATOM     15  C   UNL     1      11.192  12.717  19.330  0.00  0.00    +0.000 A 
ATOM     16  C   UNL     1      10.066  12.480  20.133  0.00  0.00    +0.000 A 
ATOM     17  C   UNL     1       9.196  11.432  19.781  0.00  0.00    +0.000 A 
BRANCH  16  18
ATOM     18  C   UNL     1       9.774  13.348  21.335  0.00  0.00    +0.000 C 
ATOM     19  F   UNL     1       9.723  12.651  22.507  0.00  0.00    +0.000 F 
ATOM     20  F   UNL     1      10.722  14.308  21.521  0.00  0.00    +0.000 F 
ATOM     21  F   UNL     1       8.586  14.004  21.243  0.00  0.00    +0.000 F 
ENDBRANCH  16  18
ENDBRANCH   9  12
ENDBRANCH   4   8
BRANCH   1  22
ATOM     22  N   UNL     1       5.490   3.803  17.597  0.00  0.00    +0.000 N 
ATOM     23  H   UNL     1       4.993   3.915  16.709  0.00  0.00    +0.000 HD
BRANCH  22  24
ATOM     24  S   UNL     1       4.309   3.455  18.769  0.00  0.00    +0.000 S 
ATOM     25  O   UNL     1       3.644   4.715  19.021  0.00  0.00    +0.000 OA
ATOM     26  O   UNL     1       4.874   2.657  19.830  0.00  0.00    +0.000 OA
BRANCH  24  28
ATOM     27  C   UNL     1       1.751   2.564  18.325  0.00  0.00    +0.000 C 
ATOM     28  C   UNL     1       3.180   2.417  17.828  0.00  0.00    +0.000 C 
ENDBRANCH  24  28
ENDBRANCH  22  24
ENDBRANCH   1  22
TORSDOF 6
ENDMDL
MODEL 9
REMARK VINA RESULT:      -7.7      8.319     10.884
REMARK  Name = 
REMARK  8 active torsions:
REMARK  status: ('A' for Active; 'I' for Inactive)
REMARK    1  A    between atoms: C_1  and  C_2
REMARK    2  A    between atoms: C_2  and  S_3
REMARK    3  A    between atoms: S_3  and  N_6
REMARK    4  A    between atoms: N_6  and  C_7
REMARK    5  A    between atoms: C_10  and  N_11
REMARK    6  A    between atoms: C_12  and  C_14
REMARK    7  A    between atoms: C_18  and  C_19
REMARK    8  A    between atoms: C_25  and  C_26
REMARK                            x       y       z     vdW  Elec       q    Type
REMARK                         _______ _______ _______ _____ _____    ______ ____
ROOT
ATOM      1  C   UNL     1      -0.088  11.155  20.684  0.00  0.00    +0.000 A 
ATOM      2  C   UNL     1       0.369  11.024  19.370  0.00  0.00    +0.000 A 
ATOM      3  C   UNL     1       0.990   9.839  18.944  0.00  0.00    +0.000 A 
ATOM      4  C   UNL     1       1.209   8.789  19.838  0.00  0.00    +0.000 A 
ATOM      5  C   UNL     1       0.835   8.968  21.176  0.00  0.00    +0.000 A 
ATOM      6  C   UNL     1       0.134  10.117  21.599  0.00  0.00    +0.000 A 
ATOM      7  C   UNL     1      -0.402  10.165  23.000  0.00  0.00    +0.000 C 
ENDROOT
BRANCH   4   8
ATOM      8  N   UNL     1       1.741   7.526  19.471  0.00  0.00    +0.000 N 
ATOM      9  C   UNL     1       2.630   7.287  18.431  0.00  0.00    +0.000 C 
ATOM     10  O   UNL     1       3.121   8.135  17.694  0.00  0.00    +0.000 OA
ATOM     11  H   UNL     1       1.270   6.722  19.863  0.00  0.00    +0.000 HD
BRANCH   9  12
ATOM     12  C   UNL     1       2.919   5.848  18.125  0.00  0.00    +0.000 A 
ATOM     13  C   UNL     1       3.983   5.461  17.303  0.00  0.00    +0.000 A 
ATOM     14  C   UNL     1       4.207   4.104  17.045  0.00  0.00    +0.000 A 
ATOM     15  C   UNL     1       3.388   3.128  17.615  0.00  0.00    +0.000 A 
ATOM     16  C   UNL     1       2.319   3.494  18.448  0.00  0.00    +0.000 A 
ATOM     17  C   UNL     1       2.080   4.862  18.675  0.00  0.00    +0.000 A 
BRANCH  16  18
ATOM     18  C   UNL     1       1.456   2.445  19.109  0.00  0.00    +0.000 C 
ATOM     19  F   UNL     1       0.269   2.238  18.470  0.00  0.00    +0.000 F 
ATOM     20  F   UNL     1       2.066   1.227  19.151  0.00  0.00    +0.000 F 
ATOM     21  F   UNL     1       1.137   2.751  20.395  0.00  0.00    +0.000 F 
ENDBRANCH  16  18
ENDBRANCH   9  12
ENDBRANCH   4   8
BRANCH   1  22
ATOM     22  N   UNL     1      -0.810  12.338  21.070  0.00  0.00    +0.000 N 
ATOM     23  H   UNL     1      -1.592  12.530  20.437  0.00  0.00    +0.000 HD
BRANCH  22  24
ATOM     24  S   UNL     1       0.075  13.785  21.194  0.00  0.00    +0.000 S 
ATOM     25  O   UNL     1      -0.172  14.486  19.952  0.00  0.00    +0.000 OA
ATOM     26  O   UNL     1       1.408  13.518  21.676  0.00  0.00    +0.000 OA
BRANCH  24  28
ATOM     27  C   UNL     1      -1.427  13.652  23.488  0.00  0.00    +0.000 C 
ATOM     28  C   UNL     1      -0.832  14.636  22.494  0.00  0.00    +0.000 C 
ENDBRANCH  24  28
ENDBRANCH  22  24
ENDBRANCH   1  22
TORSDOF 6
ENDMDL
