MODEL 1
REMARK VINA RESULT:      -7.2      0.000      0.000
REMARK  Name = 
REMARK  6 active torsions:
REMARK  status: ('A' for Active; 'I' for Inactive)
REMARK    1  A    between atoms: C_1  and  C_2
REMARK    2  A    between atoms: C_2  and  C_3
REMARK    3  A    between atoms: C_2  and  N_10
REMARK    4  A    between atoms: N_10  and  C_22
REMARK    5  A    between atoms: C_11  and  C_13
REMARK    6  A    between atoms: C_16  and  C_17
REMARK                            x       y       z     vdW  Elec       q    Type
REMARK                         _______ _______ _______ _____ _____    ______ ____
ROOT
ATOM      1  N   UNL     1       1.440   8.968  19.454  0.00  0.00    +0.000 N 
ATOM      2  C   UNL     1       2.140   8.278  18.435  0.00  0.00    +0.000 C 
ATOM      3  O   UNL     1       2.580   8.849  17.435  0.00  0.00    +0.000 OA
ENDROOT
BRANCH   2   4
ATOM      4  C   UNL     1       2.408   6.794  18.555  0.00  0.00    +0.000 A 
ATOM      5  C   UNL     1       1.602   5.903  17.846  0.00  0.00    +0.000 A 
ATOM      6  C   UNL     1       1.833   4.528  17.971  0.00  0.00    +0.000 A 
ATOM      7  C   UNL     1       2.864   4.082  18.801  0.00  0.00    +0.000 A 
ATOM      8  C   UNL     1       3.632   5.035  19.452  0.00  0.00    +0.000 A 
ATOM      9  N   UNL     1       3.406   6.372  19.377  0.00  0.00    +0.000 NA
BRANCH   7  10
ATOM     10  C   UNL     1       3.164   2.654  19.029  0.00  0.00    +0.000 C 
ATOM     11  N   UNL     1       2.511   1.751  18.235  0.00  0.00    +0.000 N 
ATOM     12  O   UNL     1       3.916   2.296  19.925  0.00  0.00    +0.000 OA
ATOM     13  H   UNL     1       1.704   2.001  17.680  0.00  0.00    +0.000 HD
ATOM     14  H   UNL     1       2.610   0.775  18.492  0.00  0.00    +0.000 HD
ENDBRANCH   7  10
ENDBRANCH   2   4
BRANCH   1  15
ATOM     15  C   UNL     1       1.009   8.307  20.671  0.00  0.00    +0.000 C 
ATOM     16  C   UNL     1       1.333   8.955  22.008  0.00  0.00    +0.000 C 
ATOM     17  C   UNL     1      -0.084   8.760  21.606  0.00  0.00    +0.000 C 
ENDBRANCH   1  15
BRANCH   1  19
ATOM     18  C   UNL     1       2.047  11.138  18.338  0.00  0.00    +0.000 C 
ATOM     19  C   UNL     1       1.030  10.376  19.204  0.00  0.00    +0.000 C 
BRANCH  19  20
ATOM     20  C   UNL     1      -0.410  10.488  18.699  0.00  0.00    +0.000 A 
ATOM     21  C   UNL     1      -1.352  11.350  19.284  0.00  0.00    +0.000 A 
ATOM     22  C   UNL     1      -2.621  11.508  18.722  0.00  0.00    +0.000 A 
ATOM     23  C   UNL     1      -2.970  10.775  17.588  0.00  0.00    +0.000 A 
ATOM     24 CL   UNL     1      -4.518  11.000  16.876  0.00  0.00    +0.000 Cl
ATOM     25  C   UNL     1      -2.064   9.882  17.018  0.00  0.00    +0.000 A 
ATOM     26  C   UNL     1      -0.790   9.742  17.570  0.00  0.00    +0.000 A 
ENDBRANCH  19  20
ENDBRANCH   1  19
TORSDOF 5
ENDMDL
MODEL 2
REMARK VINA RESULT:      -7.1      3.642      5.433
REMARK  Name = 
REMARK  6 active torsions:
REMARK  status: ('A' for Active; 'I' for Inactive)
REMARK    1  A    between atoms: C_1  and  C_2
REMARK    2  A    between atoms: C_2  and  C_3
REMARK    3  A    between atoms: C_2  and  N_10
REMARK    4  A    between atoms: N_10  and  C_22
REMARK    5  A    between atoms: C_11  and  C_13
REMARK    6  A    between atoms: C_16  and  C_17
REMARK                            x       y       z     vdW  Elec       q    Type
REMARK                         _______ _______ _______ _____ _____    ______ ____
ROOT
ATOM      1  N   UNL     1       2.753   4.893  18.826  0.00  0.00    +0.000 N 
ATOM      2  C   UNL     1       4.073   5.376  18.668  0.00  0.00    +0.000 C 
ATOM      3  O   UNL     1       4.683   5.940  19.579  0.00  0.00    +0.000 OA
ENDROOT
BRANCH   2   4
ATOM      4  C   UNL     1       4.810   5.185  17.361  0.00  0.00    +0.000 A 
ATOM      5  C   UNL     1       4.811   6.223  16.428  0.00  0.00    +0.000 A 
ATOM      6  C   UNL     1       5.474   6.042  15.208  0.00  0.00    +0.000 A 
ATOM      7  C   UNL     1       6.119   4.829  14.955  0.00  0.00    +0.000 A 
ATOM      8  C   UNL     1       6.089   3.859  15.945  0.00  0.00    +0.000 A 
ATOM      9  N   UNL     1       5.423   3.995  17.121  0.00  0.00    +0.000 NA
BRANCH   7  10
ATOM     10  C   UNL     1       6.813   4.527  13.687  0.00  0.00    +0.000 C 
ATOM     11  N   UNL     1       6.486   3.351  13.069  0.00  0.00    +0.000 N 
ATOM     12  O   UNL     1       7.682   5.265  13.245  0.00  0.00    +0.000 OA
ATOM     13  H   UNL     1       5.977   2.614  13.539  0.00  0.00    +0.000 HD
ATOM     14  H   UNL     1       7.066   3.082  12.282  0.00  0.00    +0.000 HD
ENDBRANCH   7  10
ENDBRANCH   2   4
BRANCH   1  15
ATOM     15  C   UNL     1       2.078   4.146  17.782  0.00  0.00    +0.000 C 
ATOM     16  C   UNL     1       2.261   2.639  17.725  0.00  0.00    +0.000 C 
ATOM     17  C   UNL     1       0.908   3.210  17.952  0.00  0.00    +0.000 C 
ENDBRANCH   1  15
BRANCH   1  19
ATOM     18  C   UNL     1       2.625   4.686  21.329  0.00  0.00    +0.000 C 
ATOM     19  C   UNL     1       2.001   5.273  20.052  0.00  0.00    +0.000 C 
BRANCH  19  20
ATOM     20  C   UNL     1       1.736   6.778  20.135  0.00  0.00    +0.000 A 
ATOM     21  C   UNL     1       1.895   7.636  19.034  0.00  0.00    +0.000 A 
ATOM     22  C   UNL     1       1.532   8.982  19.121  0.00  0.00    +0.000 A 
ATOM     23  C   UNL     1       1.040   9.489  20.323  0.00  0.00    +0.000 A 
ATOM     24 CL   UNL     1       0.559  11.136  20.415  0.00  0.00    +0.000 Cl
ATOM     25  C   UNL     1       0.915   8.663  21.439  0.00  0.00    +0.000 A 
ATOM     26  C   UNL     1       1.259   7.315  21.344  0.00  0.00    +0.000 A 
ENDBRANCH  19  20
ENDBRANCH   1  19
TORSDOF 5
ENDMDL
MODEL 3
REMARK VINA RESULT:      -7.1      4.351      7.859
REMARK  Name = 
REMARK  6 active torsions:
REMARK  status: ('A' for Active; 'I' for Inactive)
REMARK    1  A    between atoms: C_1  and  C_2
REMARK    2  A    between atoms: C_2  and  C_3
REMARK    3  A    between atoms: C_2  and  N_10
REMARK    4  A    between atoms: N_10  and  C_22
REMARK    5  A    between atoms: C_11  and  C_13
REMARK    6  A    between atoms: C_16  and  C_17
REMARK                            x       y       z     vdW  Elec       q    Type
REMARK                         _______ _______ _______ _____ _____    ______ ____
ROOT
ATOM      1  N   UNL     1      -0.001  10.921  19.185  0.00  0.00    +0.000 N 
ATOM      2  C   UNL     1       0.310  11.621  20.375  0.00  0.00    +0.000 C 
ATOM      3  O   UNL     1       1.448  12.024  20.626  0.00  0.00    +0.000 OA
ENDROOT
BRANCH   2   4
ATOM      4  C   UNL     1      -0.770  11.935  21.387  0.00  0.00    +0.000 A 
ATOM      5  C   UNL     1      -0.942  11.083  22.478  0.00  0.00    +0.000 A 
ATOM      6  C   UNL     1      -1.954  11.359  23.405  0.00  0.00    +0.000 A 
ATOM      7  C   UNL     1      -2.766  12.479  23.216  0.00  0.00    +0.000 A 
ATOM      8  C   UNL     1      -2.513  13.286  22.117  0.00  0.00    +0.000 A 
ATOM      9  N   UNL     1      -1.563  13.021  21.184  0.00  0.00    +0.000 NA
BRANCH   7  10
ATOM     10  C   UNL     1      -3.882  12.835  24.115  0.00  0.00    +0.000 C 
ATOM     11  N   UNL     1      -3.860  14.088  24.662  0.00  0.00    +0.000 N 
ATOM     12  O   UNL     1      -4.753  12.024  24.402  0.00  0.00    +0.000 OA
ATOM     13  H   UNL     1      -3.033  14.670  24.651  0.00  0.00    +0.000 HD
ATOM     14  H   UNL     1      -4.545  14.274  25.386  0.00  0.00    +0.000 HD
ENDBRANCH   7  10
ENDBRANCH   2   4
BRANCH   1  15
ATOM     15  C   UNL     1      -1.359  10.535  18.854  0.00  0.00    +0.000 C 
ATOM     16  C   UNL     1      -2.171  11.431  17.933  0.00  0.00    +0.000 C 
ATOM     17  C   UNL     1      -1.857  10.039  17.520  0.00  0.00    +0.000 C 
ENDBRANCH   1  15
BRANCH   1  19
ATOM     18  C   UNL     1       2.188  11.551  18.121  0.00  0.00    +0.000 C 
ATOM     19  C   UNL     1       1.118  10.465  18.318  0.00  0.00    +0.000 C 
BRANCH  19  20
ATOM     20  C   UNL     1       1.690   9.115  18.759  0.00  0.00    +0.000 A 
ATOM     21  C   UNL     1       1.442   8.567  20.028  0.00  0.00    +0.000 A 
ATOM     22  C   UNL     1       1.885   7.282  20.349  0.00  0.00    +0.000 A 
ATOM     23  C   UNL     1       2.612   6.548  19.413  0.00  0.00    +0.000 A 
ATOM     24 CL   UNL     1       3.123   4.953  19.797  0.00  0.00    +0.000 Cl
ATOM     25  C   UNL     1       2.906   7.092  18.163  0.00  0.00    +0.000 A 
ATOM     26  C   UNL     1       2.444   8.367  17.838  0.00  0.00    +0.000 A 
ENDBRANCH  19  20
ENDBRANCH   1  19
TORSDOF 5
ENDMDL
MODEL 4
REMARK VINA RESULT:      -7.1      3.973      7.803
REMARK  Name = 
REMARK  6 active torsions:
REMARK  status: ('A' for Active; 'I' for Inactive)
REMARK    1  A    between atoms: C_1  and  C_2
REMARK    2  A    between atoms: C_2  and  C_3
REMARK    3  A    between atoms: C_2  and  N_10
REMARK    4  A    between atoms: N_10  and  C_22
REMARK    5  A    between atoms: C_11  and  C_13
REMARK    6  A    between atoms: C_16  and  C_17
REMARK                            x       y       z     vdW  Elec       q    Type
REMARK                         _______ _______ _______ _____ _____    ______ ____
ROOT
ATOM      1  N   UNL     1       3.598   5.226  18.484  0.00  0.00    +0.000 N 
ATOM      2  C   UNL     1       3.813   6.624  18.437  0.00  0.00    +0.000 C 
ATOM      3  O   UNL     1       4.907   7.113  18.143  0.00  0.00    +0.000 OA
ENDROOT
BRANCH   2   4
ATOM      4  C   UNL     1       2.682   7.587  18.720  0.00  0.00    +0.000 A 
ATOM      5  C   UNL     1       2.210   8.397  17.686  0.00  0.00    +0.000 A 
ATOM      6  C   UNL     1       1.177   9.305  17.950  0.00  0.00    +0.000 A 
ATOM      7  C   UNL     1       0.644   9.376  19.238  0.00  0.00    +0.000 A 
ATOM      8  C   UNL     1       1.154   8.519  20.201  0.00  0.00    +0.000 A 
ATOM      9  N   UNL     1       2.179   7.657  19.981  0.00  0.00    +0.000 NA
BRANCH   7  10
ATOM     10  C   UNL     1      -0.420  10.325  19.625  0.00  0.00    +0.000 C 
ATOM     11  N   UNL     1      -0.306  10.913  20.855  0.00  0.00    +0.000 N 
ATOM     12  O   UNL     1      -1.387  10.527  18.903  0.00  0.00    +0.000 OA
ATOM     13  H   UNL     1       0.328  10.570  21.564  0.00  0.00    +0.000 HD
ATOM     14  H   UNL     1      -1.108  11.446  21.173  0.00  0.00    +0.000 HD
ENDBRANCH   7  10
ENDBRANCH   2   4
BRANCH   1  15
ATOM     15  C   UNL     1       2.287   4.660  18.737  0.00  0.00    +0.000 C 
ATOM     16  C   UNL     1       1.305   4.544  17.583  0.00  0.00    +0.000 C 
ATOM     17  C   UNL     1       1.778   3.317  18.276  0.00  0.00    +0.000 C 
ENDBRANCH   1  15
BRANCH   1  19
ATOM     18  C   UNL     1       4.467   2.903  18.895  0.00  0.00    +0.000 C 
ATOM     19  C   UNL     1       4.777   4.323  18.394  0.00  0.00    +0.000 C 
BRANCH  19  20
ATOM     20  C   UNL     1       5.437   4.356  17.014  0.00  0.00    +0.000 A 
ATOM     21  C   UNL     1       4.710   4.192  15.823  0.00  0.00    +0.000 A 
ATOM     22  C   UNL     1       5.331   4.344  14.581  0.00  0.00    +0.000 A 
ATOM     23  C   UNL     1       6.695   4.626  14.520  0.00  0.00    +0.000 A 
ATOM     24 CL   UNL     1       7.448   4.849  12.992  0.00  0.00    +0.000 Cl
ATOM     25  C   UNL     1       7.442   4.749  15.691  0.00  0.00    +0.000 A 
ATOM     26  C   UNL     1       6.816   4.618  16.930  0.00  0.00    +0.000 A 
ENDBRANCH  19  20
ENDBRANCH   1  19
TORSDOF 5
ENDMDL
MODEL 5
REMARK VINA RESULT:      -7.0      0.245      1.013
REMARK  Name = 
REMARK  6 active torsions:
REMARK  status: ('A' for Active; 'I' for Inactive)
REMARK    1  A    between atoms: C_1  and  C_2
REMARK    2  A    between atoms: C_2  and  C_3
REMARK    3  A    between atoms: C_2  and  N_10
REMARK    4  A    between atoms: N_10  and  C_22
REMARK    5  A    between atoms: C_11  and  C_13
REMARK    6  A    between atoms: C_16  and  C_17
REMARK                            x       y       z     vdW  Elec       q    Type
REMARK                         _______ _______ _______ _____ _____    ______ ____
ROOT
ATOM      1  N   UNL     1       1.477   8.941  19.391  0.00  0.00    +0.000 N 
ATOM      2  C   UNL     1       2.176   8.209  18.402  0.00  0.00    +0.000 C 
ATOM      3  O   UNL     1       2.661   8.747  17.403  0.00  0.00    +0.000 OA
ENDROOT
BRANCH   2   4
ATOM      4  C   UNL     1       2.387   6.719  18.553  0.00  0.00    +0.000 A 
ATOM      5  C   UNL     1       1.601   5.846  17.799  0.00  0.00    +0.000 A 
ATOM      6  C   UNL     1       1.779   4.466  17.952  0.00  0.00    +0.000 A 
ATOM      7  C   UNL     1       2.737   3.997  18.853  0.00  0.00    +0.000 A 
ATOM      8  C   UNL     1       3.491   4.932  19.545  0.00  0.00    +0.000 A 
ATOM      9  N   UNL     1       3.313   6.274  19.443  0.00  0.00    +0.000 NA
BRANCH   7  10
ATOM     10  C   UNL     1       2.974   2.562  19.113  0.00  0.00    +0.000 C 
ATOM     11  N   UNL     1       2.024   1.687  18.662  0.00  0.00    +0.000 N 
ATOM     12  O   UNL     1       3.945   2.183  19.754  0.00  0.00    +0.000 OA
ATOM     13  H   UNL     1       1.104   1.988  18.371  0.00  0.00    +0.000 HD
ATOM     14  H   UNL     1       2.120   0.725  18.969  0.00  0.00    +0.000 HD
ENDBRANCH   7  10
ENDBRANCH   2   4
BRANCH   1  15
ATOM     15  C   UNL     1       0.993   8.318  20.608  0.00  0.00    +0.000 C 
ATOM     16  C   UNL     1       1.441   8.882  21.946  0.00  0.00    +0.000 C 
ATOM     17  C   UNL     1      -0.000   8.895  21.585  0.00  0.00    +0.000 C 
ENDBRANCH   1  15
BRANCH   1  19
ATOM     18  C   UNL     1       2.171  11.058  18.225  0.00  0.00    +0.000 C 
ATOM     19  C   UNL     1       1.125  10.359  19.108  0.00  0.00    +0.000 C 
BRANCH  19  20
ATOM     20  C   UNL     1      -0.310  10.517  18.600  0.00  0.00    +0.000 A 
ATOM     21  C   UNL     1      -0.850   9.702  17.592  0.00  0.00    +0.000 A 
ATOM     22  C   UNL     1      -2.198   9.802  17.238  0.00  0.00    +0.000 A 
ATOM     23  C   UNL     1      -3.009  10.745  17.868  0.00  0.00    +0.000 A 
ATOM     24 CL   UNL     1      -4.675  10.840  17.458  0.00  0.00    +0.000 Cl
ATOM     25  C   UNL     1      -2.481  11.592  18.841  0.00  0.00    +0.000 A 
ATOM     26  C   UNL     1      -1.140  11.476  19.207  0.00  0.00    +0.000 A 
ENDBRANCH  19  20
ENDBRANCH   1  19
TORSDOF 5
ENDMDL
MODEL 6
REMARK VINA RESULT:      -7.0      4.353      7.917
REMARK  Name = 
REMARK  6 active torsions:
REMARK  status: ('A' for Active; 'I' for Inactive)
REMARK    1  A    between atoms: C_1  and  C_2
REMARK    2  A    between atoms: C_2  and  C_3
REMARK    3  A    between atoms: C_2  and  N_10
REMARK    4  A    between atoms: N_10  and  C_22
REMARK    5  A    between atoms: C_11  and  C_13
REMARK    6  A    between atoms: C_16  and  C_17
REMARK                            x       y       z     vdW  Elec       q    Type
REMARK                         _______ _______ _______ _____ _____    ______ ____
ROOT
ATOM      1  N   UNL     1      -0.099  11.025  19.177  0.00  0.00    +0.000 N 
ATOM      2  C   UNL     1       0.175  11.700  20.390  0.00  0.00    +0.000 C 
ATOM      3  O   UNL     1       1.302  12.108  20.679  0.00  0.00    +0.000 OA
ENDROOT
BRANCH   2   4
ATOM      4  C   UNL     1      -0.933  11.980  21.381  0.00  0.00    +0.000 A 
ATOM      5  C   UNL     1      -1.784  13.063  21.155  0.00  0.00    +0.000 A 
ATOM      6  C   UNL     1      -2.797  13.339  22.082  0.00  0.00    +0.000 A 
ATOM      7  C   UNL     1      -2.933  12.523  23.207  0.00  0.00    +0.000 A 
ATOM      8  C   UNL     1      -2.060  11.454  23.344  0.00  0.00    +0.000 A 
ATOM      9  N   UNL     1      -1.047  11.187  22.480  0.00  0.00    +0.000 NA
BRANCH   7  10
ATOM     10  C   UNL     1      -3.943  12.751  24.259  0.00  0.00    +0.000 C 
ATOM     11  N   UNL     1      -3.844  13.916  24.969  0.00  0.00    +0.000 N 
ATOM     12  O   UNL     1      -4.792  11.910  24.520  0.00  0.00    +0.000 OA
ATOM     13  H   UNL     1      -3.013  14.492  24.953  0.00  0.00    +0.000 HD
ATOM     14  H   UNL     1      -4.447  13.999  25.780  0.00  0.00    +0.000 HD
ENDBRANCH   7  10
ENDBRANCH   2   4
BRANCH   1  15
ATOM     15  C   UNL     1      -1.444  10.633  18.802  0.00  0.00    +0.000 C 
ATOM     16  C   UNL     1      -2.207  11.494  17.809  0.00  0.00    +0.000 C 
ATOM     17  C   UNL     1      -1.887  10.084  17.470  0.00  0.00    +0.000 C 
ENDBRANCH   1  15
BRANCH   1  19
ATOM     18  C   UNL     1       2.164  11.655  18.280  0.00  0.00    +0.000 C 
ATOM     19  C   UNL     1       1.047  10.600  18.328  0.00  0.00    +0.000 C 
BRANCH  19  20
ATOM     20  C   UNL     1       1.545   9.195  18.675  0.00  0.00    +0.000 A 
ATOM     21  C   UNL     1       2.237   8.389  17.756  0.00  0.00    +0.000 A 
ATOM     22  C   UNL     1       2.775   7.161  18.148  0.00  0.00    +0.000 A 
ATOM     23  C   UNL     1       2.595   6.713  19.456  0.00  0.00    +0.000 A 
ATOM     24 CL   UNL     1       3.291   5.220  19.944  0.00  0.00    +0.000 Cl
ATOM     25  C   UNL     1       1.875   7.479  20.371  0.00  0.00    +0.000 A 
ATOM     26  C   UNL     1       1.355   8.714  19.983  0.00  0.00    +0.000 A 
ENDBRANCH  19  20
ENDBRANCH   1  19
TORSDOF 5
ENDMDL
MODEL 7
REMARK VINA RESULT:      -6.9      4.362      7.953
REMARK  Name = 
REMARK  6 active torsions:
REMARK  status: ('A' for Active; 'I' for Inactive)
REMARK    1  A    between atoms: C_1  and  C_2
REMARK    2  A    between atoms: C_2  and  C_3
REMARK    3  A    between atoms: C_2  and  N_10
REMARK    4  A    between atoms: N_10  and  C_22
REMARK    5  A    between atoms: C_11  and  C_13
REMARK    6  A    between atoms: C_16  and  C_17
REMARK                            x       y       z     vdW  Elec       q    Type
REMARK                         _______ _______ _______ _____ _____    ______ ____
ROOT
ATOM      1  N   UNL     1      -0.069  11.020  19.103  0.00  0.00    +0.000 N 
ATOM      2  C   UNL     1       0.182  11.716  20.309  0.00  0.00    +0.000 C 
ATOM      3  O   UNL     1       1.303  12.133  20.609  0.00  0.00    +0.000 OA
ENDROOT
BRANCH   2   4
ATOM      4  C   UNL     1      -0.943  12.008  21.277  0.00  0.00    +0.000 A 
ATOM      5  C   UNL     1      -1.040  11.254  22.447  0.00  0.00    +0.000 A 
ATOM      6  C   UNL     1      -2.093  11.507  23.336  0.00  0.00    +0.000 A 
ATOM      7  C   UNL     1      -3.018  12.507  23.030  0.00  0.00    +0.000 A 
ATOM      8  C   UNL     1      -2.836  13.225  21.857  0.00  0.00    +0.000 A 
ATOM      9  N   UNL     1      -1.845  12.975  20.962  0.00  0.00    +0.000 NA
BRANCH   7  10
ATOM     10  C   UNL     1      -4.182  12.825  23.881  0.00  0.00    +0.000 C 
ATOM     11  N   UNL     1      -3.941  13.559  25.009  0.00  0.00    +0.000 N 
ATOM     12  O   UNL     1      -5.299  12.400  23.617  0.00  0.00    +0.000 OA
ATOM     13  H   UNL     1      -3.010  13.693  25.381  0.00  0.00    +0.000 HD
ATOM     14  H   UNL     1      -4.714  13.649  25.660  0.00  0.00    +0.000 HD
ENDBRANCH   7  10
ENDBRANCH   2   4
BRANCH   1  15
ATOM     15  C   UNL     1      -1.406  10.616  18.714  0.00  0.00    +0.000 C 
ATOM     16  C   UNL     1      -2.155  11.456  17.693  0.00  0.00    +0.000 C 
ATOM     17  C   UNL     1      -1.825  10.040  17.385  0.00  0.00    +0.000 C 
ENDBRANCH   1  15
BRANCH   1  19
ATOM     18  C   UNL     1       2.214  11.636  18.248  0.00  0.00    +0.000 C 
ATOM     19  C   UNL     1       1.092  10.585  18.281  0.00  0.00    +0.000 C 
BRANCH  19  20
ATOM     20  C   UNL     1       1.578   9.181  18.647  0.00  0.00    +0.000 A 
ATOM     21  C   UNL     1       2.289   8.368  17.748  0.00  0.00    +0.000 A 
ATOM     22  C   UNL     1       2.815   7.141  18.159  0.00  0.00    +0.000 A 
ATOM     23  C   UNL     1       2.604   6.700  19.465  0.00  0.00    +0.000 A 
ATOM     24 CL   UNL     1       3.284   5.209  19.978  0.00  0.00    +0.000 Cl
ATOM     25  C   UNL     1       1.864   7.474  20.359  0.00  0.00    +0.000 A 
ATOM     26  C   UNL     1       1.357   8.708  19.953  0.00  0.00    +0.000 A 
ENDBRANCH  19  20
ENDBRANCH   1  19
TORSDOF 5
ENDMDL
MODEL 8
REMARK VINA RESULT:      -6.9      4.061      7.837
REMARK  Name = 
REMARK  6 active torsions:
REMARK  status: ('A' for Active; 'I' for Inactive)
REMARK    1  A    between atoms: C_1  and  C_2
REMARK    2  A    between atoms: C_2  and  C_3
REMARK    3  A    between atoms: C_2  and  N_10
REMARK    4  A    between atoms: N_10  and  C_22
REMARK    5  A    between atoms: C_11  and  C_13
REMARK    6  A    between atoms: C_16  and  C_17
REMARK                            x       y       z     vdW  Elec       q    Type
REMARK                         _______ _______ _______ _____ _____    ______ ____
ROOT
ATOM      1  N   UNL     1       3.657   5.340  18.356  0.00  0.00    +0.000 N 
ATOM      2  C   UNL     1       3.879   6.731  18.230  0.00  0.00    +0.000 C 
ATOM      3  O   UNL     1       4.966   7.197  17.880  0.00  0.00    +0.000 OA
ENDROOT
BRANCH   2   4
ATOM      4  C   UNL     1       2.760   7.715  18.492  0.00  0.00    +0.000 A 
ATOM      5  C   UNL     1       2.172   7.748  19.757  0.00  0.00    +0.000 A 
ATOM      6  C   UNL     1       1.122   8.643  19.997  0.00  0.00    +0.000 A 
ATOM      7  C   UNL     1       0.690   9.480  18.966  0.00  0.00    +0.000 A 
ATOM      8  C   UNL     1       1.344   9.399  17.746  0.00  0.00    +0.000 A 
ATOM      9  N   UNL     1       2.339   8.515  17.476  0.00  0.00    +0.000 NA
BRANCH   7  10
ATOM     10  C   UNL     1      -0.432  10.430  19.107  0.00  0.00    +0.000 C 
ATOM     11  N   UNL     1      -0.877  11.035  17.964  0.00  0.00    +0.000 N 
ATOM     12  O   UNL     1      -0.900  10.705  20.203  0.00  0.00    +0.000 OA
ATOM     13  H   UNL     1      -0.345  11.026  17.103  0.00  0.00    +0.000 HD
ATOM     14  H   UNL     1      -1.544  11.789  18.086  0.00  0.00    +0.000 HD
ENDBRANCH   7  10
ENDBRANCH   2   4
BRANCH   1  15
ATOM     15  C   UNL     1       2.351   4.796  18.675  0.00  0.00    +0.000 C 
ATOM     16  C   UNL     1       1.327   4.652  17.561  0.00  0.00    +0.000 C 
ATOM     17  C   UNL     1       1.813   3.445  18.277  0.00  0.00    +0.000 C 
ENDBRANCH   1  15
BRANCH   1  19
ATOM     18  C   UNL     1       4.517   3.026  18.839  0.00  0.00    +0.000 C 
ATOM     19  C   UNL     1       4.828   4.425  18.281  0.00  0.00    +0.000 C 
BRANCH  19  20
ATOM     20  C   UNL     1       5.468   4.402  16.891  0.00  0.00    +0.000 A 
ATOM     21  C   UNL     1       4.724   4.183  15.720  0.00  0.00    +0.000 A 
ATOM     22  C   UNL     1       5.325   4.285  14.463  0.00  0.00    +0.000 A 
ATOM     23  C   UNL     1       6.686   4.572  14.370  0.00  0.00    +0.000 A 
ATOM     24 CL   UNL     1       7.415   4.735  12.822  0.00  0.00    +0.000 Cl
ATOM     25  C   UNL     1       7.450   4.751  15.522  0.00  0.00    +0.000 A 
ATOM     26  C   UNL     1       6.843   4.669  16.775  0.00  0.00    +0.000 A 
ENDBRANCH  19  20
ENDBRANCH   1  19
TORSDOF 5
ENDMDL
MODEL 9
REMARK VINA RESULT:      -6.9      4.453      8.060
REMARK  Name = 
REMARK  6 active torsions:
REMARK  status: ('A' for Active; 'I' for Inactive)
REMARK    1  A    between atoms: C_1  and  C_2
REMARK    2  A    between atoms: C_2  and  C_3
REMARK    3  A    between atoms: C_2  and  N_10
REMARK    4  A    between atoms: N_10  and  C_22
REMARK    5  A    between atoms: C_11  and  C_13
REMARK    6  A    between atoms: C_16  and  C_17
REMARK                            x       y       z     vdW  Elec       q    Type
REMARK                         _______ _______ _______ _____ _____    ______ ____
ROOT
ATOM      1  N   UNL     1      -0.350  11.240  19.272  0.00  0.00    +0.000 N 
ATOM      2  C   UNL     1      -0.203  11.977  20.470  0.00  0.00    +0.000 C 
ATOM      3  O   UNL     1       0.881  12.444  20.828  0.00  0.00    +0.000 OA
ENDROOT
BRANCH   2   4
ATOM      4  C   UNL     1      -1.397  12.253  21.356  0.00  0.00    +0.000 A 
ATOM      5  C   UNL     1      -2.322  13.220  20.962  0.00  0.00    +0.000 A 
ATOM      6  C   UNL     1      -3.417  13.493  21.791  0.00  0.00    +0.000 A 
ATOM      7  C   UNL     1      -3.558  12.790  22.989  0.00  0.00    +0.000 A 
ATOM      8  C   UNL     1      -2.607  11.829  23.294  0.00  0.00    +0.000 A 
ATOM      9  N   UNL     1      -1.516  11.571  22.527  0.00  0.00    +0.000 NA
BRANCH   7  10
ATOM     10  C   UNL     1      -4.656  13.030  23.947  0.00  0.00    +0.000 C 
ATOM     11  N   UNL     1      -4.867  12.070  24.899  0.00  0.00    +0.000 N 
ATOM     12  O   UNL     1      -5.379  14.012  23.855  0.00  0.00    +0.000 OA
ATOM     13  H   UNL     1      -4.464  11.144  24.834  0.00  0.00    +0.000 HD
ATOM     14  H   UNL     1      -5.707  12.169  25.457  0.00  0.00    +0.000 HD
ENDBRANCH   7  10
ENDBRANCH   2   4
BRANCH   1  15
ATOM     15  C   UNL     1      -1.645  10.776  18.810  0.00  0.00    +0.000 C 
ATOM     16  C   UNL     1      -2.313  11.503  17.654  0.00  0.00    +0.000 C 
ATOM     17  C   UNL     1      -1.941  10.072  17.511  0.00  0.00    +0.000 C 
ENDBRANCH   1  15
BRANCH   1  19
ATOM     18  C   UNL     1       1.943  11.934  18.510  0.00  0.00    +0.000 C 
ATOM     19  C   UNL     1       0.876  10.828  18.537  0.00  0.00    +0.000 C 
BRANCH  19  20
ATOM     20  C   UNL     1       1.410   9.472  19.002  0.00  0.00    +0.000 A 
ATOM     21  C   UNL     1       1.178   8.969  20.293  0.00  0.00    +0.000 A 
ATOM     22  C   UNL     1       1.584   7.678  20.640  0.00  0.00    +0.000 A 
ATOM     23  C   UNL     1       2.259   6.892  19.707  0.00  0.00    +0.000 A 
ATOM     24 CL   UNL     1       2.723   5.291  20.125  0.00  0.00    +0.000 Cl
ATOM     25  C   UNL     1       2.536   7.389  18.435  0.00  0.00    +0.000 A 
ATOM     26  C   UNL     1       2.112   8.670  18.084  0.00  0.00    +0.000 A 
ENDBRANCH  19  20
ENDBRANCH   1  19
TORSDOF 5
ENDMDL
