MODEL 1
REMARK VINA RESULT:      -8.4      0.000      0.000
REMARK  Name = 
REMARK  5 active torsions:
REMARK  status: ('A' for Active; 'I' for Inactive)
REMARK    1  A    between atoms: C_2  and  O_3
REMARK    2  A    between atoms: C_2  and  C_4
REMARK    3  A    between atoms: N_11  and  C_12
REMARK    4  A    between atoms: C_12  and  C_13
REMARK    5  A    between atoms: C_17  and  C_18
REMARK                            x       y       z     vdW  Elec       q    Type
REMARK                         _______ _______ _______ _____ _____    ______ ____
ROOT
ATOM      1  C   UNL     1       2.905   2.717  19.788  0.00  0.00    +0.000 A 
ATOM      2  C   UNL     1       2.283   2.074  20.877  0.00  0.00    +0.000 A 
ATOM      3  C   UNL     1       1.468   2.773  21.756  0.00  0.00    +0.000 A 
ATOM      4  C   UNL     1       1.290   4.143  21.589  0.00  0.00    +0.000 A 
ATOM      5  C   UNL     1       1.863   4.804  20.481  0.00  0.00    +0.000 A 
ATOM      6  C   UNL     1       1.861   6.159  20.082  0.00  0.00    +0.000 A 
ATOM      7  C   UNL     1       2.439   6.230  18.834  0.00  0.00    +0.000 A 
ATOM      8  N   UNL     1       2.892   4.965  18.494  0.00  0.00    +0.000 N 
ATOM      9  C   UNL     1       2.622   4.083  19.541  0.00  0.00    +0.000 A 
ATOM     10  C   UNL     1       2.553   7.483  18.017  0.00  0.00    +0.000 C 
ATOM     11  C   UNL     1       1.694   8.606  18.634  0.00  0.00    +0.000 C 
ATOM     12  C   UNL     1       1.806   8.648  20.166  0.00  0.00    +0.000 C 
ATOM     13  C   UNL     1       1.302   7.343  20.796  0.00  0.00    +0.000 C 
ENDROOT
BRANCH   1  15
ATOM     14  O   UNL     1       3.617   1.247  18.060  0.00  0.00    +0.000 OA
ATOM     15  C   UNL     1       3.893   1.905  19.045  0.00  0.00    +0.000 C 
BRANCH  15  16
ATOM     16  O   UNL     1       5.098   1.872  19.646  0.00  0.00    +0.000 OA
ATOM     17  H   UNL     1       5.653   1.109  19.396  0.00  0.00    +0.000 HD
ENDBRANCH  15  16
ENDBRANCH   1  15
BRANCH   8  18
ATOM     18  C   UNL     1       3.355   4.605  17.142  0.00  0.00    +0.000 C 
BRANCH  18  19
ATOM     19  C   UNL     1       4.846   4.734  16.893  0.00  0.00    +0.000 A 
ATOM     20  C   UNL     1       5.482   4.325  15.712  0.00  0.00    +0.000 A 
ATOM     21  C   UNL     1       6.872   4.378  15.587  0.00  0.00    +0.000 A 
ATOM     22  C   UNL     1       7.656   4.837  16.643  0.00  0.00    +0.000 A 
ATOM     23  C   UNL     1       7.058   5.255  17.837  0.00  0.00    +0.000 A 
ATOM     24  C   UNL     1       5.654   5.217  17.943  0.00  0.00    +0.000 A 
BRANCH  23  25
ATOM     25  C   UNL     1       7.898   5.706  19.008  0.00  0.00    +0.000 C 
ATOM     26  F   UNL     1       8.937   4.865  19.286  0.00  0.00    +0.000 F 
ATOM     27  F   UNL     1       8.449   6.933  18.826  0.00  0.00    +0.000 F 
ATOM     28  F   UNL     1       7.175   5.785  20.161  0.00  0.00    +0.000 F 
ENDBRANCH  23  25
ENDBRANCH  18  19
ENDBRANCH   8  18
TORSDOF 5
ENDMDL
MODEL 2
REMARK VINA RESULT:      -8.1      3.550      6.395
REMARK  Name = 
REMARK  5 active torsions:
REMARK  status: ('A' for Active; 'I' for Inactive)
REMARK    1  A    between atoms: C_2  and  O_3
REMARK    2  A    between atoms: C_2  and  C_4
REMARK    3  A    between atoms: N_11  and  C_12
REMARK    4  A    between atoms: C_12  and  C_13
REMARK    5  A    between atoms: C_17  and  C_18
REMARK                            x       y       z     vdW  Elec       q    Type
REMARK                         _______ _______ _______ _____ _____    ______ ____
ROOT
ATOM      1  C   UNL     1       6.043   5.686  16.911  0.00  0.00    +0.000 A 
ATOM      2  C   UNL     1       6.501   5.271  15.644  0.00  0.00    +0.000 A 
ATOM      3  C   UNL     1       5.891   4.226  14.964  0.00  0.00    +0.000 A 
ATOM      4  C   UNL     1       4.833   3.543  15.557  0.00  0.00    +0.000 A 
ATOM      5  C   UNL     1       4.325   3.966  16.804  0.00  0.00    +0.000 A 
ATOM      6  C   UNL     1       3.294   3.460  17.627  0.00  0.00    +0.000 A 
ATOM      7  C   UNL     1       3.106   4.351  18.660  0.00  0.00    +0.000 A 
ATOM      8  N   UNL     1       4.065   5.347  18.554  0.00  0.00    +0.000 N 
ATOM      9  C   UNL     1       4.886   5.079  17.458  0.00  0.00    +0.000 A 
ATOM     10  C   UNL     1       2.042   4.226  19.710  0.00  0.00    +0.000 C 
ATOM     11  C   UNL     1       1.025   3.135  19.318  0.00  0.00    +0.000 C 
ATOM     12  C   UNL     1       1.707   1.889  18.732  0.00  0.00    +0.000 C 
ATOM     13  C   UNL     1       2.473   2.228  17.446  0.00  0.00    +0.000 C 
ENDROOT
BRANCH   1  15
ATOM     14  O   UNL     1       7.116   7.792  17.172  0.00  0.00    +0.000 OA
ATOM     15  C   UNL     1       6.893   6.678  17.606  0.00  0.00    +0.000 C 
BRANCH  15  16
ATOM     16  O   UNL     1       7.491   6.173  18.702  0.00  0.00    +0.000 OA
ATOM     17  H   UNL     1       6.904   5.646  19.275  0.00  0.00    +0.000 HD
ENDBRANCH  15  16
ENDBRANCH   1  15
BRANCH   8  18
ATOM     18  C   UNL     1       4.033   6.591  19.342  0.00  0.00    +0.000 C 
BRANCH  18  19
ATOM     19  C   UNL     1       2.845   7.504  19.097  0.00  0.00    +0.000 A 
ATOM     20  C   UNL     1       2.591   8.151  17.879  0.00  0.00    +0.000 A 
ATOM     21  C   UNL     1       1.536   9.057  17.751  0.00  0.00    +0.000 A 
ATOM     22  C   UNL     1       0.716   9.339  18.840  0.00  0.00    +0.000 A 
ATOM     23  C   UNL     1       0.937   8.712  20.072  0.00  0.00    +0.000 A 
ATOM     24  C   UNL     1       1.990   7.784  20.182  0.00  0.00    +0.000 A 
BRANCH  23  25
ATOM     25  C   UNL     1       0.086   9.047  21.275  0.00  0.00    +0.000 C 
ATOM     26  F   UNL     1      -0.823   8.076  21.583  0.00  0.00    +0.000 F 
ATOM     27  F   UNL     1       0.816   9.247  22.402  0.00  0.00    +0.000 F 
ATOM     28  F   UNL     1      -0.643  10.184  21.090  0.00  0.00    +0.000 F 
ENDBRANCH  23  25
ENDBRANCH  18  19
ENDBRANCH   8  18
TORSDOF 5
ENDMDL
MODEL 3
REMARK VINA RESULT:      -8.0      2.605      3.094
REMARK  Name = 
REMARK  5 active torsions:
REMARK  status: ('A' for Active; 'I' for Inactive)
REMARK    1  A    between atoms: C_2  and  O_3
REMARK    2  A    between atoms: C_2  and  C_4
REMARK    3  A    between atoms: N_11  and  C_12
REMARK    4  A    between atoms: C_12  and  C_13
REMARK    5  A    between atoms: C_17  and  C_18
REMARK                            x       y       z     vdW  Elec       q    Type
REMARK                         _______ _______ _______ _____ _____    ______ ____
ROOT
ATOM      1  C   UNL     1       3.213   2.755  19.916  0.00  0.00    +0.000 A 
ATOM      2  C   UNL     1       2.740   2.359  21.183  0.00  0.00    +0.000 A 
ATOM      3  C   UNL     1       2.061   3.244  22.007  0.00  0.00    +0.000 A 
ATOM      4  C   UNL     1       1.875   4.562  21.599  0.00  0.00    +0.000 A 
ATOM      5  C   UNL     1       2.297   4.974  20.316  0.00  0.00    +0.000 A 
ATOM      6  C   UNL     1       2.253   6.225  19.662  0.00  0.00    +0.000 A 
ATOM      7  C   UNL     1       2.655   6.031  18.359  0.00  0.00    +0.000 A 
ATOM      8  N   UNL     1       3.044   4.708  18.217  0.00  0.00    +0.000 N 
ATOM      9  C   UNL     1       2.912   4.057  19.444  0.00  0.00    +0.000 A 
ATOM     10  C   UNL     1       2.667   7.098  17.303  0.00  0.00    +0.000 C 
ATOM     11  C   UNL     1       1.913   8.349  17.796  0.00  0.00    +0.000 C 
ATOM     12  C   UNL     1       2.235   8.684  19.261  0.00  0.00    +0.000 C 
ATOM     13  C   UNL     1       1.809   7.545  20.197  0.00  0.00    +0.000 C 
ENDROOT
BRANCH   1  15
ATOM     14  O   UNL     1       3.734   1.151  18.239  0.00  0.00    +0.000 OA
ATOM     15  C   UNL     1       4.081   1.778  19.222  0.00  0.00    +0.000 C 
BRANCH  15  16
ATOM     16  O   UNL     1       5.245   1.567  19.866  0.00  0.00    +0.000 OA
ATOM     17  H   UNL     1       5.709   2.381  20.136  0.00  0.00    +0.000 HD
ENDBRANCH  15  16
ENDBRANCH   1  15
BRANCH   8  18
ATOM     18  C   UNL     1       3.312   4.077  16.913  0.00  0.00    +0.000 C 
BRANCH  18  19
ATOM     19  C   UNL     1       4.716   4.255  16.364  0.00  0.00    +0.000 A 
ATOM     20  C   UNL     1       5.782   4.795  17.097  0.00  0.00    +0.000 A 
ATOM     21  C   UNL     1       7.024   5.024  16.500  0.00  0.00    +0.000 A 
ATOM     22  C   UNL     1       7.222   4.724  15.155  0.00  0.00    +0.000 A 
ATOM     23  C   UNL     1       6.183   4.182  14.391  0.00  0.00    +0.000 A 
ATOM     24  C   UNL     1       4.943   3.935  15.010  0.00  0.00    +0.000 A 
BRANCH  23  25
ATOM     25  C   UNL     1       6.370   3.899  12.919  0.00  0.00    +0.000 C 
ATOM     26  F   UNL     1       6.842   2.644  12.663  0.00  0.00    +0.000 F 
ATOM     27  F   UNL     1       5.222   4.020  12.204  0.00  0.00    +0.000 F 
ATOM     28  F   UNL     1       7.265   4.750  12.340  0.00  0.00    +0.000 F 
ENDBRANCH  23  25
ENDBRANCH  18  19
ENDBRANCH   8  18
TORSDOF 5
ENDMDL
MODEL 4
REMARK VINA RESULT:      -7.9      0.919      1.139
REMARK  Name = 
REMARK  5 active torsions:
REMARK  status: ('A' for Active; 'I' for Inactive)
REMARK    1  A    between atoms: C_2  and  O_3
REMARK    2  A    between atoms: C_2  and  C_4
REMARK    3  A    between atoms: N_11  and  C_12
REMARK    4  A    between atoms: C_12  and  C_13
REMARK    5  A    between atoms: C_17  and  C_18
REMARK                            x       y       z     vdW  Elec       q    Type
REMARK                         _______ _______ _______ _____ _____    ______ ____
ROOT
ATOM      1  C   UNL     1       3.086   3.022  19.769  0.00  0.00    +0.000 A 
ATOM      2  C   UNL     1       2.595   2.382  20.925  0.00  0.00    +0.000 A 
ATOM      3  C   UNL     1       1.834   3.068  21.860  0.00  0.00    +0.000 A 
ATOM      4  C   UNL     1       1.581   4.425  21.681  0.00  0.00    +0.000 A 
ATOM      5  C   UNL     1       2.021   5.081  20.511  0.00  0.00    +0.000 A 
ATOM      6  C   UNL     1       1.922   6.424  20.085  0.00  0.00    +0.000 A 
ATOM      7  C   UNL     1       2.380   6.487  18.788  0.00  0.00    +0.000 A 
ATOM      8  N   UNL     1       2.855   5.234  18.434  0.00  0.00    +0.000 N 
ATOM      9  C   UNL     1       2.722   4.369  19.520  0.00  0.00    +0.000 A 
ATOM     10  C   UNL     1       2.362   7.723  17.937  0.00  0.00    +0.000 C 
ATOM     11  C   UNL     1       1.515   8.824  18.607  0.00  0.00    +0.000 C 
ATOM     12  C   UNL     1       1.765   8.910  20.121  0.00  0.00    +0.000 C 
ATOM     13  C   UNL     1       1.379   7.601  20.822  0.00  0.00    +0.000 C 
ENDROOT
BRANCH   1  15
ATOM     14  O   UNL     1       3.696   1.347  18.197  0.00  0.00    +0.000 OA
ATOM     15  C   UNL     1       4.037   2.234  18.955  0.00  0.00    +0.000 C 
BRANCH  15  16
ATOM     16  O   UNL     1       5.323   2.518  19.236  0.00  0.00    +0.000 OA
ATOM     17  H   UNL     1       5.908   1.738  19.279  0.00  0.00    +0.000 HD
ENDBRANCH  15  16
ENDBRANCH   1  15
BRANCH   8  18
ATOM     18  C   UNL     1       3.208   4.860  17.053  0.00  0.00    +0.000 C 
BRANCH  18  19
ATOM     19  C   UNL     1       4.677   4.967  16.689  0.00  0.00    +0.000 A 
ATOM     20  C   UNL     1       5.384   3.982  15.985  0.00  0.00    +0.000 A 
ATOM     21  C   UNL     1       6.759   4.098  15.770  0.00  0.00    +0.000 A 
ATOM     22  C   UNL     1       7.457   5.199  16.260  0.00  0.00    +0.000 A 
ATOM     23  C   UNL     1       6.786   6.204  16.966  0.00  0.00    +0.000 A 
ATOM     24  C   UNL     1       5.395   6.086  17.157  0.00  0.00    +0.000 A 
BRANCH  23  25
ATOM     25  C   UNL     1       7.538   7.378  17.547  0.00  0.00    +0.000 C 
ATOM     26  F   UNL     1       8.201   7.079  18.702  0.00  0.00    +0.000 F 
ATOM     27  F   UNL     1       8.472   7.883  16.700  0.00  0.00    +0.000 F 
ATOM     28  F   UNL     1       6.711   8.416  17.859  0.00  0.00    +0.000 F 
ENDBRANCH  23  25
ENDBRANCH  18  19
ENDBRANCH   8  18
TORSDOF 5
ENDMDL
MODEL 5
REMARK VINA RESULT:      -7.8      3.498      5.871
REMARK  Name = 
REMARK  5 active torsions:
REMARK  status: ('A' for Active; 'I' for Inactive)
REMARK    1  A    between atoms: C_2  and  O_3
REMARK    2  A    between atoms: C_2  and  C_4
REMARK    3  A    between atoms: N_11  and  C_12
REMARK    4  A    between atoms: C_12  and  C_13
REMARK    5  A    between atoms: C_17  and  C_18
REMARK                            x       y       z     vdW  Elec       q    Type
REMARK                         _______ _______ _______ _____ _____    ______ ____
ROOT
ATOM      1  C   UNL     1       2.520   3.505  19.610  0.00  0.00    +0.000 A 
ATOM      2  C   UNL     1       2.416   2.101  19.671  0.00  0.00    +0.000 A 
ATOM      3  C   UNL     1       3.058   1.290  18.745  0.00  0.00    +0.000 A 
ATOM      4  C   UNL     1       3.785   1.869  17.710  0.00  0.00    +0.000 A 
ATOM      5  C   UNL     1       3.944   3.271  17.651  0.00  0.00    +0.000 A 
ATOM      6  C   UNL     1       4.600   4.110  16.724  0.00  0.00    +0.000 A 
ATOM      7  C   UNL     1       4.583   5.390  17.232  0.00  0.00    +0.000 A 
ATOM      8  N   UNL     1       3.844   5.382  18.405  0.00  0.00    +0.000 N 
ATOM      9  C   UNL     1       3.365   4.092  18.636  0.00  0.00    +0.000 A 
ATOM     10  C   UNL     1       5.253   6.571  16.592  0.00  0.00    +0.000 C 
ATOM     11  C   UNL     1       6.186   6.107  15.455  0.00  0.00    +0.000 C 
ATOM     12  C   UNL     1       5.553   4.997  14.600  0.00  0.00    +0.000 C 
ATOM     13  C   UNL     1       5.265   3.746  15.440  0.00  0.00    +0.000 C 
ENDROOT
BRANCH   1  15
ATOM     14  O   UNL     1       0.487   4.542  20.277  0.00  0.00    +0.000 OA
ATOM     15  C   UNL     1       1.639   4.253  20.534  0.00  0.00    +0.000 C 
BRANCH  15  16
ATOM     16  O   UNL     1       2.286   4.685  21.634  0.00  0.00    +0.000 OA
ATOM     17  H   UNL     1       2.154   5.630  21.834  0.00  0.00    +0.000 HD
ENDBRANCH  15  16
ENDBRANCH   1  15
BRANCH   8  18
ATOM     18  C   UNL     1       3.801   6.515  19.346  0.00  0.00    +0.000 C 
BRANCH  18  19
ATOM     19  C   UNL     1       2.681   7.515  19.132  0.00  0.00    +0.000 A 
ATOM     20  C   UNL     1       2.457   8.197  17.927  0.00  0.00    +0.000 A 
ATOM     21  C   UNL     1       1.469   9.180  17.829  0.00  0.00    +0.000 A 
ATOM     22  C   UNL     1       0.689   9.505  18.936  0.00  0.00    +0.000 A 
ATOM     23  C   UNL     1       0.881   8.846  20.154  0.00  0.00    +0.000 A 
ATOM     24  C   UNL     1       1.865   7.841  20.235  0.00  0.00    +0.000 A 
BRANCH  23  25
ATOM     25  C   UNL     1       0.077   9.224  21.375  0.00  0.00    +0.000 C 
ATOM     26  F   UNL     1       0.848   9.531  22.460  0.00  0.00    +0.000 F 
ATOM     27  F   UNL     1      -0.727  10.300  21.171  0.00  0.00    +0.000 F 
ATOM     28  F   UNL     1      -0.743   8.214  21.786  0.00  0.00    +0.000 F 
ENDBRANCH  23  25
ENDBRANCH  18  19
ENDBRANCH   8  18
TORSDOF 5
ENDMDL
MODEL 6
REMARK VINA RESULT:      -7.5      2.730      4.442
REMARK  Name = 
REMARK  5 active torsions:
REMARK  status: ('A' for Active; 'I' for Inactive)
REMARK    1  A    between atoms: C_2  and  O_3
REMARK    2  A    between atoms: C_2  and  C_4
REMARK    3  A    between atoms: N_11  and  C_12
REMARK    4  A    between atoms: C_12  and  C_13
REMARK    5  A    between atoms: C_17  and  C_18
REMARK                            x       y       z     vdW  Elec       q    Type
REMARK                         _______ _______ _______ _____ _____    ______ ____
ROOT
ATOM      1  C   UNL     1       1.619   8.949  19.188  0.00  0.00    +0.000 A 
ATOM      2  C   UNL     1       1.170   9.487  20.411  0.00  0.00    +0.000 A 
ATOM      3  C   UNL     1       1.008   8.688  21.534  0.00  0.00    +0.000 A 
ATOM      4  C   UNL     1       1.250   7.321  21.447  0.00  0.00    +0.000 A 
ATOM      5  C   UNL     1       1.744   6.762  20.248  0.00  0.00    +0.000 A 
ATOM      6  C   UNL     1       2.056   5.434  19.881  0.00  0.00    +0.000 A 
ATOM      7  C   UNL     1       2.655   5.471  18.641  0.00  0.00    +0.000 A 
ATOM      8  N   UNL     1       2.630   6.781  18.186  0.00  0.00    +0.000 N 
ATOM      9  C   UNL     1       1.990   7.583  19.132  0.00  0.00    +0.000 A 
ATOM     10  C   UNL     1       3.216   4.276  17.929  0.00  0.00    +0.000 C 
ATOM     11  C   UNL     1       3.283   3.066  18.883  0.00  0.00    +0.000 C 
ATOM     12  C   UNL     1       2.027   2.946  19.760  0.00  0.00    +0.000 C 
ATOM     13  C   UNL     1       1.858   4.178  20.660  0.00  0.00    +0.000 C 
ENDROOT
BRANCH   1  15
ATOM     14  O   UNL     1       2.529  10.488  17.621  0.00  0.00    +0.000 OA
ATOM     15  C   UNL     1       1.567   9.866  18.028  0.00  0.00    +0.000 C 
BRANCH  15  16
ATOM     16  O   UNL     1       0.319  10.031  17.551  0.00  0.00    +0.000 OA
ATOM     17  H   UNL     1      -0.178   9.201  17.423  0.00  0.00    +0.000 HD
ENDBRANCH  15  16
ENDBRANCH   1  15
BRANCH   8  18
ATOM     18  C   UNL     1       3.382   7.245  17.008  0.00  0.00    +0.000 C 
BRANCH  18  19
ATOM     19  C   UNL     1       4.727   6.581  16.773  0.00  0.00    +0.000 A 
ATOM     20  C   UNL     1       5.071   5.902  15.596  0.00  0.00    +0.000 A 
ATOM     21  C   UNL     1       6.289   5.227  15.484  0.00  0.00    +0.000 A 
ATOM     22  C   UNL     1       7.185   5.213  16.549  0.00  0.00    +0.000 A 
ATOM     23  C   UNL     1       6.878   5.880  17.740  0.00  0.00    +0.000 A 
ATOM     24  C   UNL     1       5.656   6.575  17.833  0.00  0.00    +0.000 A 
BRANCH  23  25
ATOM     25  C   UNL     1       7.818   5.830  18.921  0.00  0.00    +0.000 C 
ATOM     26  F   UNL     1       8.587   6.951  19.050  0.00  0.00    +0.000 F 
ATOM     27  F   UNL     1       7.175   5.680  20.108  0.00  0.00    +0.000 F 
ATOM     28  F   UNL     1       8.698   4.792  18.836  0.00  0.00    +0.000 F 
ENDBRANCH  23  25
ENDBRANCH  18  19
ENDBRANCH   8  18
TORSDOF 5
ENDMDL
MODEL 7
REMARK VINA RESULT:      -7.4      3.453      5.117
REMARK  Name = 
REMARK  5 active torsions:
REMARK  status: ('A' for Active; 'I' for Inactive)
REMARK    1  A    between atoms: C_2  and  O_3
REMARK    2  A    between atoms: C_2  and  C_4
REMARK    3  A    between atoms: N_11  and  C_12
REMARK    4  A    between atoms: C_12  and  C_13
REMARK    5  A    between atoms: C_17  and  C_18
REMARK                            x       y       z     vdW  Elec       q    Type
REMARK                         _______ _______ _______ _____ _____    ______ ____
ROOT
ATOM      1  C   UNL     1       1.481   9.159  19.275  0.00  0.00    +0.000 A 
ATOM      2  C   UNL     1       0.962   9.744  20.447  0.00  0.00    +0.000 A 
ATOM      3  C   UNL     1       0.808   9.008  21.613  0.00  0.00    +0.000 A 
ATOM      4  C   UNL     1       1.132   7.654  21.620  0.00  0.00    +0.000 A 
ATOM      5  C   UNL     1       1.697   7.053  20.474  0.00  0.00    +0.000 A 
ATOM      6  C   UNL     1       2.096   5.726  20.202  0.00  0.00    +0.000 A 
ATOM      7  C   UNL     1       2.733   5.722  18.980  0.00  0.00    +0.000 A 
ATOM      8  N   UNL     1       2.648   6.997  18.443  0.00  0.00    +0.000 N 
ATOM      9  C   UNL     1       1.932   7.817  19.316  0.00  0.00    +0.000 A 
ATOM     10  C   UNL     1       3.385   4.520  18.363  0.00  0.00    +0.000 C 
ATOM     11  C   UNL     1       3.490   3.378  19.393  0.00  0.00    +0.000 C 
ATOM     12  C   UNL     1       2.214   3.238  20.239  0.00  0.00    +0.000 C 
ATOM     13  C   UNL     1       1.946   4.510  21.053  0.00  0.00    +0.000 C 
ENDROOT
BRANCH   1  15
ATOM     14  O   UNL     1       2.361  10.629  17.626  0.00  0.00    +0.000 OA
ATOM     15  C   UNL     1       1.416   9.998  18.058  0.00  0.00    +0.000 C 
BRANCH  15  16
ATOM     16  O   UNL     1       0.170  10.086  17.552  0.00  0.00    +0.000 OA
ATOM     17  H   UNL     1       0.098   9.834  16.613  0.00  0.00    +0.000 HD
ENDBRANCH  15  16
ENDBRANCH   1  15
BRANCH   8  18
ATOM     18  C   UNL     1       3.411   7.431  17.260  0.00  0.00    +0.000 C 
BRANCH  18  19
ATOM     19  C   UNL     1       4.754   6.757  17.050  0.00  0.00    +0.000 A 
ATOM     20  C   UNL     1       5.886   7.001  17.841  0.00  0.00    +0.000 A 
ATOM     21  C   UNL     1       7.119   6.422  17.531  0.00  0.00    +0.000 A 
ATOM     22  C   UNL     1       7.247   5.592  16.421  0.00  0.00    +0.000 A 
ATOM     23  C   UNL     1       6.140   5.324  15.608  0.00  0.00    +0.000 A 
ATOM     24  C   UNL     1       4.897   5.896  15.943  0.00  0.00    +0.000 A 
BRANCH  23  25
ATOM     25  C   UNL     1       6.276   4.466  14.372  0.00  0.00    +0.000 C 
ATOM     26  F   UNL     1       7.234   4.910  13.507  0.00  0.00    +0.000 F 
ATOM     27  F   UNL     1       6.593   3.176  14.651  0.00  0.00    +0.000 F 
ATOM     28  F   UNL     1       5.122   4.423  13.646  0.00  0.00    +0.000 F 
ENDBRANCH  23  25
ENDBRANCH  18  19
ENDBRANCH   8  18
TORSDOF 5
ENDMDL
MODEL 8
REMARK VINA RESULT:      -7.2      6.781      9.545
REMARK  Name = 
REMARK  5 active torsions:
REMARK  status: ('A' for Active; 'I' for Inactive)
REMARK    1  A    between atoms: C_2  and  O_3
REMARK    2  A    between atoms: C_2  and  C_4
REMARK    3  A    between atoms: N_11  and  C_12
REMARK    4  A    between atoms: C_12  and  C_13
REMARK    5  A    between atoms: C_17  and  C_18
REMARK                            x       y       z     vdW  Elec       q    Type
REMARK                         _______ _______ _______ _____ _____    ______ ____
ROOT
ATOM      1  C   UNL     1      -3.735  11.462  17.840  0.00  0.00    +0.000 A 
ATOM      2  C   UNL     1      -5.058  11.364  17.364  0.00  0.00    +0.000 A 
ATOM      3  C   UNL     1      -6.138  11.714  18.161  0.00  0.00    +0.000 A 
ATOM      4  C   UNL     1      -5.921  12.133  19.470  0.00  0.00    +0.000 A 
ATOM      5  C   UNL     1      -4.605  12.285  19.958  0.00  0.00    +0.000 A 
ATOM      6  C   UNL     1      -4.103  12.668  21.222  0.00  0.00    +0.000 A 
ATOM      7  C   UNL     1      -2.738  12.808  21.106  0.00  0.00    +0.000 A 
ATOM      8  N   UNL     1      -2.369  12.422  19.826  0.00  0.00    +0.000 N 
ATOM      9  C   UNL     1      -3.504  12.011  19.126  0.00  0.00    +0.000 A 
ATOM     10  C   UNL     1      -1.834  13.287  22.203  0.00  0.00    +0.000 C 
ATOM     11  C   UNL     1      -2.663  13.863  23.369  0.00  0.00    +0.000 C 
ATOM     12  C   UNL     1      -3.900  13.006  23.682  0.00  0.00    +0.000 C 
ATOM     13  C   UNL     1      -4.853  12.947  22.481  0.00  0.00    +0.000 C 
ENDROOT
BRANCH   1  15
ATOM     14  O   UNL     1      -2.264   9.751  17.091  0.00  0.00    +0.000 OA
ATOM     15  C   UNL     1      -2.694  10.881  16.964  0.00  0.00    +0.000 C 
BRANCH  15  16
ATOM     16  O   UNL     1      -2.187  11.776  16.094  0.00  0.00    +0.000 OA
ATOM     17  H   UNL     1      -2.591  12.662  16.145  0.00  0.00    +0.000 HD
ENDBRANCH  15  16
ENDBRANCH   1  15
BRANCH   8  18
ATOM     18  C   UNL     1      -1.028  12.655  19.263  0.00  0.00    +0.000 C 
BRANCH  18  19
ATOM     19  C   UNL     1      -0.094  11.460  19.253  0.00  0.00    +0.000 A 
ATOM     20  C   UNL     1       0.769  11.147  18.193  0.00  0.00    +0.000 A 
ATOM     21  C   UNL     1       1.530   9.976  18.204  0.00  0.00    +0.000 A 
ATOM     22  C   UNL     1       1.439   9.090  19.275  0.00  0.00    +0.000 A 
ATOM     23  C   UNL     1       0.591   9.368  20.353  0.00  0.00    +0.000 A 
ATOM     24  C   UNL     1      -0.154  10.563  20.339  0.00  0.00    +0.000 A 
BRANCH  23  25
ATOM     25  C   UNL     1       0.446   8.392  21.496  0.00  0.00    +0.000 C 
ATOM     26  F   UNL     1       1.047   8.812  22.648  0.00  0.00    +0.000 F 
ATOM     27  F   UNL     1      -0.849   8.141  21.820  0.00  0.00    +0.000 F 
ATOM     28  F   UNL     1       1.005   7.181  21.214  0.00  0.00    +0.000 F 
ENDBRANCH  23  25
ENDBRANCH  18  19
ENDBRANCH   8  18
TORSDOF 5
ENDMDL
MODEL 9
REMARK VINA RESULT:      -7.2      5.603      8.415
REMARK  Name = 
REMARK  5 active torsions:
REMARK  status: ('A' for Active; 'I' for Inactive)
REMARK    1  A    between atoms: C_2  and  O_3
REMARK    2  A    between atoms: C_2  and  C_4
REMARK    3  A    between atoms: N_11  and  C_12
REMARK    4  A    between atoms: C_12  and  C_13
REMARK    5  A    between atoms: C_17  and  C_18
REMARK                            x       y       z     vdW  Elec       q    Type
REMARK                         _______ _______ _______ _____ _____    ______ ____
ROOT
ATOM      1  C   UNL     1       0.005  13.402  20.616  0.00  0.00    +0.000 A 
ATOM      2  C   UNL     1      -0.632  14.066  21.684  0.00  0.00    +0.000 A 
ATOM      3  C   UNL     1      -2.006  13.993  21.861  0.00  0.00    +0.000 A 
ATOM      4  C   UNL     1      -2.782  13.287  20.947  0.00  0.00    +0.000 A 
ATOM      5  C   UNL     1      -2.167  12.574  19.895  0.00  0.00    +0.000 A 
ATOM      6  C   UNL     1      -2.698  11.804  18.836  0.00  0.00    +0.000 A 
ATOM      7  C   UNL     1      -1.644  11.198  18.188  0.00  0.00    +0.000 A 
ATOM      8  N   UNL     1      -0.465  11.655  18.757  0.00  0.00    +0.000 N 
ATOM      9  C   UNL     1      -0.766  12.577  19.760  0.00  0.00    +0.000 A 
ATOM     10  C   UNL     1      -1.786  10.224  17.056  0.00  0.00    +0.000 C 
ATOM     11  C   UNL     1      -3.257   9.785  16.907  0.00  0.00    +0.000 C 
ATOM     12  C   UNL     1      -4.234  10.961  17.065  0.00  0.00    +0.000 C 
ATOM     13  C   UNL     1      -4.125  11.588  18.461  0.00  0.00    +0.000 C 
ENDROOT
BRANCH   1  15
ATOM     14  O   UNL     1       1.856  14.480  19.583  0.00  0.00    +0.000 OA
ATOM     15  C   UNL     1       1.439  13.714  20.431  0.00  0.00    +0.000 C 
BRANCH  15  16
ATOM     16  O   UNL     1       2.239  12.969  21.217  0.00  0.00    +0.000 OA
ATOM     17  H   UNL     1       2.343  13.309  22.125  0.00  0.00    +0.000 HD
ENDBRANCH  15  16
ENDBRANCH   1  15
BRANCH   8  18
ATOM     18  C   UNL     1       0.853  11.057  18.482  0.00  0.00    +0.000 C 
BRANCH  18  19
ATOM     19  C   UNL     1       1.135   9.729  19.159  0.00  0.00    +0.000 A 
ATOM     20  C   UNL     1       0.793   9.437  20.488  0.00  0.00    +0.000 A 
ATOM     21  C   UNL     1       1.172   8.230  21.081  0.00  0.00    +0.000 A 
ATOM     22  C   UNL     1       1.904   7.292  20.358  0.00  0.00    +0.000 A 
ATOM     23  C   UNL     1       2.263   7.546  19.030  0.00  0.00    +0.000 A 
ATOM     24  C   UNL     1       1.856   8.757  18.437  0.00  0.00    +0.000 A 
BRANCH  23  25
ATOM     25  C   UNL     1       3.100   6.559  18.251  0.00  0.00    +0.000 C 
ATOM     26  F   UNL     1       3.769   7.123  17.203  0.00  0.00    +0.000 F 
ATOM     27  F   UNL     1       4.045   5.947  19.011  0.00  0.00    +0.000 F 
ATOM     28  F   UNL     1       2.348   5.560  17.708  0.00  0.00    +0.000 F 
ENDBRANCH  23  25
ENDBRANCH  18  19
ENDBRANCH   8  18
TORSDOF 5
ENDMDL
