MODEL 1
REMARK VINA RESULT:      -7.9      0.000      0.000
REMARK  Name = 
REMARK  6 active torsions:
REMARK  status: ('A' for Active; 'I' for Inactive)
REMARK    1  A    between atoms: C_2  and  O_3
REMARK    2  A    between atoms: C_2  and  C_4
REMARK    3  A    between atoms: C_7  and  C_8
REMARK    4  A    between atoms: C_9  and  C_10
REMARK    5  A    between atoms: C_11  and  C_12
REMARK    6  A    between atoms: C_24  and  N_25
REMARK                            x       y       z     vdW  Elec       q    Type
REMARK                         _______ _______ _______ _____ _____    ______ ____
ROOT
ATOM      1  C   UNL     1       0.026  12.913  18.842  0.00  0.00    +0.000 A 
ATOM      2  C   UNL     1       1.237  12.244  18.808  0.00  0.00    +0.000 A 
ATOM      3  N   UNL     1       2.301  13.110  18.760  0.00  0.00    +0.000 NA
ATOM      4  C   UNL     1       1.772  14.324  18.740  0.00  0.00    +0.000 A 
ATOM      5  C   UNL     1       2.379  15.636  18.718  0.00  0.00    +0.000 A 
ATOM      6  C   UNL     1       1.533  16.685  18.712  0.00  0.00    +0.000 A 
ATOM      7  C   UNL     1       0.084  16.454  18.727  0.00  0.00    +0.000 A 
ATOM      8  N   UNL     1      -0.500  15.302  18.767  0.00  0.00    +0.000 NA
ATOM      9  N   UNL     1       0.383  14.254  18.784  0.00  0.00    +0.000 N 
ENDROOT
BRANCH   5  10
ATOM     10  N   UNL     1       3.768  15.842  18.709  0.00  0.00    +0.000 N 
ATOM     11  C   UNL     1       4.632  15.579  17.539  0.00  0.00    +0.000 C 
ATOM     12  C   UNL     1       5.722  14.564  17.906  0.00  0.00    +0.000 C 
ATOM     13  O   UNL     1       6.502  15.022  19.027  0.00  0.00    +0.000 OA
ATOM     14  C   UNL     1       5.658  15.214  20.172  0.00  0.00    +0.000 C 
ATOM     15  C   UNL     1       4.553  16.245  19.895  0.00  0.00    +0.000 C 
ENDBRANCH   5  10
BRANCH   1  19
ATOM     16  C   UNL     1      -3.607  11.594  18.351  0.00  0.00    +0.000 A 
ATOM     17  C   UNL     1      -3.545  12.148  19.613  0.00  0.00    +0.000 A 
ATOM     18  C   UNL     1      -2.240  12.616  19.936  0.00  0.00    +0.000 A 
ATOM     19  C   UNL     1      -1.339  12.453  18.900  0.00  0.00    +0.000 A 
ATOM     20  S   UNL     1      -2.075  11.626  17.591  0.00  0.00    +0.000 S 
BRANCH  16  22
ATOM     21  O   UNL     1      -5.764  10.600  18.276  0.00  0.00    +0.000 OA
ATOM     22  C   UNL     1      -4.786  11.055  17.697  0.00  0.00    +0.000 C 
BRANCH  22  23
ATOM     23  O   UNL     1      -4.709  11.084  16.342  0.00  0.00    +0.000 OA
ATOM     24  H   UNL     1      -3.842  10.764  16.026  0.00  0.00    +0.000 HD
ENDBRANCH  22  23
ENDBRANCH  16  22
ENDBRANCH   1  19
BRANCH   2  25
ATOM     25  C   UNL     1       1.466  10.830  18.854  0.00  0.00    +0.000 C 
ATOM     26  C   UNL     1       1.729   9.656  18.843  0.00  0.00    +0.000 C 
BRANCH  26  27
ATOM     27  C   UNL     1       2.142   8.283  18.769  0.00  0.00    +0.000 A 
ATOM     28  C   UNL     1       2.925   7.841  17.715  0.00  0.00    +0.000 A 
ATOM     29  C   UNL     1       3.337   6.513  17.714  0.00  0.00    +0.000 A 
ATOM     30  C   UNL     1       2.974   5.670  18.774  0.00  0.00    +0.000 A 
ATOM     31  C   UNL     1       3.412   4.334  18.830  0.00  0.00    +0.000 A 
ATOM     32  C   UNL     1       3.069   3.525  19.911  0.00  0.00    +0.000 A 
ATOM     33  C   UNL     1       2.263   4.040  20.918  0.00  0.00    +0.000 A 
ATOM     34  C   UNL     1       1.812   5.364  20.846  0.00  0.00    +0.000 A 
ATOM     35  C   UNL     1       2.164   6.209  19.798  0.00  0.00    +0.000 A 
ATOM     36  N   UNL     1       1.750   7.494  19.795  0.00  0.00    +0.000 NA
ENDBRANCH  26  27
ENDBRANCH   2  25
TORSDOF 6
ENDMDL
MODEL 2
REMARK VINA RESULT:      -7.9      5.284      8.196
REMARK  Name = 
REMARK  6 active torsions:
REMARK  status: ('A' for Active; 'I' for Inactive)
REMARK    1  A    between atoms: C_2  and  O_3
REMARK    2  A    between atoms: C_2  and  C_4
REMARK    3  A    between atoms: C_7  and  C_8
REMARK    4  A    between atoms: C_9  and  C_10
REMARK    5  A    between atoms: C_11  and  C_12
REMARK    6  A    between atoms: C_24  and  N_25
REMARK                            x       y       z     vdW  Elec       q    Type
REMARK                         _______ _______ _______ _____ _____    ______ ____
ROOT
ATOM      1  C   UNL     1       2.783   6.520  19.226  0.00  0.00    +0.000 A 
ATOM      2  C   UNL     1       3.217   7.128  18.061  0.00  0.00    +0.000 A 
ATOM      3  N   UNL     1       2.722   8.401  17.930  0.00  0.00    +0.000 NA
ATOM      4  C   UNL     1       1.955   8.597  18.993  0.00  0.00    +0.000 A 
ATOM      5  C   UNL     1       1.191   9.744  19.429  0.00  0.00    +0.000 A 
ATOM      6  C   UNL     1       0.519   9.607  20.589  0.00  0.00    +0.000 A 
ATOM      7  C   UNL     1       0.590   8.343  21.329  0.00  0.00    +0.000 A 
ATOM      8  N   UNL     1       1.275   7.301  20.988  0.00  0.00    +0.000 NA
ATOM      9  N   UNL     1       1.959   7.472  19.812  0.00  0.00    +0.000 N 
ENDROOT
BRANCH   5  10
ATOM     10  N   UNL     1       1.136  10.949  18.712  0.00  0.00    +0.000 N 
ATOM     11  C   UNL     1       2.327  11.652  18.188  0.00  0.00    +0.000 C 
ATOM     12  C   UNL     1       2.393  13.074  18.759  0.00  0.00    +0.000 C 
ATOM     13  O   UNL     1       1.192  13.810  18.462  0.00  0.00    +0.000 OA
ATOM     14  C   UNL     1       0.052  13.147  19.029  0.00  0.00    +0.000 C 
ATOM     15  C   UNL     1      -0.104  11.720  18.483  0.00  0.00    +0.000 C 
ENDBRANCH   5  10
BRANCH   1  19
ATOM     16  C   UNL     1       3.939   2.968  20.333  0.00  0.00    +0.000 A 
ATOM     17  C   UNL     1       2.689   3.175  20.878  0.00  0.00    +0.000 A 
ATOM     18  C   UNL     1       2.180   4.473  20.591  0.00  0.00    +0.000 A 
ATOM     19  C   UNL     1       3.030   5.219  19.795  0.00  0.00    +0.000 A 
ATOM     20  S   UNL     1       4.486   4.362  19.506  0.00  0.00    +0.000 S 
BRANCH  16  22
ATOM     21  O   UNL     1       5.386   1.395  21.371  0.00  0.00    +0.000 OA
ATOM     22  C   UNL     1       4.726   1.750  20.403  0.00  0.00    +0.000 C 
BRANCH  22  23
ATOM     23  O   UNL     1       4.681   1.014  19.263  0.00  0.00    +0.000 OA
ATOM     24  H   UNL     1       5.141   1.464  18.528  0.00  0.00    +0.000 HD
ENDBRANCH  22  23
ENDBRANCH  16  22
ENDBRANCH   1  19
BRANCH   2  25
ATOM     25  C   UNL     1       4.106   6.601  17.068  0.00  0.00    +0.000 C 
ATOM     26  C   UNL     1       4.789   6.105  16.210  0.00  0.00    +0.000 C 
BRANCH  26  27
ATOM     27  C   UNL     1       5.507   5.449  15.155  0.00  0.00    +0.000 A 
ATOM     28  C   UNL     1       6.884   5.567  15.064  0.00  0.00    +0.000 A 
ATOM     29  C   UNL     1       7.539   4.875  14.051  0.00  0.00    +0.000 A 
ATOM     30  C   UNL     1       6.804   4.067  13.173  0.00  0.00    +0.000 A 
ATOM     31  C   UNL     1       7.438   3.315  12.166  0.00  0.00    +0.000 A 
ATOM     32  C   UNL     1       6.692   2.490  11.327  0.00  0.00    +0.000 A 
ATOM     33  C   UNL     1       5.310   2.443  11.472  0.00  0.00    +0.000 A 
ATOM     34  C   UNL     1       4.683   3.210  12.461  0.00  0.00    +0.000 A 
ATOM     35  C   UNL     1       5.403   4.017  13.337  0.00  0.00    +0.000 A 
ATOM     36  N   UNL     1       4.762   4.700  14.310  0.00  0.00    +0.000 NA
ENDBRANCH  26  27
ENDBRANCH   2  25
TORSDOF 6
ENDMDL
MODEL 3
REMARK VINA RESULT:      -7.8      0.608      1.317
REMARK  Name = 
REMARK  6 active torsions:
REMARK  status: ('A' for Active; 'I' for Inactive)
REMARK    1  A    between atoms: C_2  and  O_3
REMARK    2  A    between atoms: C_2  and  C_4
REMARK    3  A    between atoms: C_7  and  C_8
REMARK    4  A    between atoms: C_9  and  C_10
REMARK    5  A    between atoms: C_11  and  C_12
REMARK    6  A    between atoms: C_24  and  N_25
REMARK                            x       y       z     vdW  Elec       q    Type
REMARK                         _______ _______ _______ _____ _____    ______ ____
ROOT
ATOM      1  C   UNL     1      -0.081  12.884  18.843  0.00  0.00    +0.000 A 
ATOM      2  C   UNL     1       1.119  12.193  18.846  0.00  0.00    +0.000 A 
ATOM      3  N   UNL     1       2.199  13.039  18.799  0.00  0.00    +0.000 NA
ATOM      4  C   UNL     1       1.692  14.262  18.742  0.00  0.00    +0.000 A 
ATOM      5  C   UNL     1       2.321  15.562  18.704  0.00  0.00    +0.000 A 
ATOM      6  C   UNL     1       1.494  16.625  18.660  0.00  0.00    +0.000 A 
ATOM      7  C   UNL     1       0.042  16.419  18.652  0.00  0.00    +0.000 A 
ATOM      8  N   UNL     1      -0.564  15.279  18.706  0.00  0.00    +0.000 NA
ATOM      9  N   UNL     1       0.301  14.216  18.763  0.00  0.00    +0.000 N 
ENDROOT
BRANCH   5  10
ATOM     10  N   UNL     1       3.713  15.744  18.717  0.00  0.00    +0.000 N 
ATOM     11  C   UNL     1       4.592  15.462  17.561  0.00  0.00    +0.000 C 
ATOM     12  C   UNL     1       5.658  14.430  17.950  0.00  0.00    +0.000 C 
ATOM     13  O   UNL     1       6.428  14.879  19.081  0.00  0.00    +0.000 OA
ATOM     14  C   UNL     1       5.569  15.090  20.212  0.00  0.00    +0.000 C 
ATOM     15  C   UNL     1       4.486  16.138  19.913  0.00  0.00    +0.000 C 
ENDBRANCH   5  10
BRANCH   1  19
ATOM     16  C   UNL     1      -3.734  11.636  18.310  0.00  0.00    +0.000 A 
ATOM     17  C   UNL     1      -3.671  12.176  19.578  0.00  0.00    +0.000 A 
ATOM     18  C   UNL     1      -2.360  12.617  19.916  0.00  0.00    +0.000 A 
ATOM     19  C   UNL     1      -1.454  12.448  18.885  0.00  0.00    +0.000 A 
ATOM     20  S   UNL     1      -2.195  11.648  17.562  0.00  0.00    +0.000 S 
BRANCH  16  22
ATOM     21  O   UNL     1      -5.975  10.857  18.194  0.00  0.00    +0.000 OA
ATOM     22  C   UNL     1      -4.917  11.126  17.641  0.00  0.00    +0.000 C 
BRANCH  22  23
ATOM     23  O   UNL     1      -4.746  10.952  16.305  0.00  0.00    +0.000 OA
ATOM     24  H   UNL     1      -4.940  11.771  15.810  0.00  0.00    +0.000 HD
ENDBRANCH  22  23
ENDBRANCH  16  22
ENDBRANCH   1  19
BRANCH   2  25
ATOM     25  C   UNL     1       1.323  10.777  18.927  0.00  0.00    +0.000 C 
ATOM     26  C   UNL     1       1.565   9.604  19.043  0.00  0.00    +0.000 C 
BRANCH  26  27
ATOM     27  C   UNL     1       1.944   8.235  19.252  0.00  0.00    +0.000 A 
ATOM     28  C   UNL     1       1.530   7.558  20.388  0.00  0.00    +0.000 A 
ATOM     29  C   UNL     1       1.884   6.220  20.522  0.00  0.00    +0.000 A 
ATOM     30  C   UNL     1       2.622   5.591  19.509  0.00  0.00    +0.000 A 
ATOM     31  C   UNL     1       2.958   4.226  19.588  0.00  0.00    +0.000 A 
ATOM     32  C   UNL     1       3.659   3.612  18.553  0.00  0.00    +0.000 A 
ATOM     33  C   UNL     1       4.055   4.368  17.457  0.00  0.00    +0.000 A 
ATOM     34  C   UNL     1       3.737   5.730  17.393  0.00  0.00    +0.000 A 
ATOM     35  C   UNL     1       3.007   6.366  18.394  0.00  0.00    +0.000 A 
ATOM     36  N   UNL     1       2.678   7.669  18.268  0.00  0.00    +0.000 NA
ENDBRANCH  26  27
ENDBRANCH   2  25
TORSDOF 6
ENDMDL
MODEL 4
REMARK VINA RESULT:      -7.7      1.538      1.999
REMARK  Name = 
REMARK  6 active torsions:
REMARK  status: ('A' for Active; 'I' for Inactive)
REMARK    1  A    between atoms: C_2  and  O_3
REMARK    2  A    between atoms: C_2  and  C_4
REMARK    3  A    between atoms: C_7  and  C_8
REMARK    4  A    between atoms: C_9  and  C_10
REMARK    5  A    between atoms: C_11  and  C_12
REMARK    6  A    between atoms: C_24  and  N_25
REMARK                            x       y       z     vdW  Elec       q    Type
REMARK                         _______ _______ _______ _____ _____    ______ ____
ROOT
ATOM      1  C   UNL     1       0.127  11.630  18.379  0.00  0.00    +0.000 A 
ATOM      2  C   UNL     1       1.368  11.031  18.499  0.00  0.00    +0.000 A 
ATOM      3  N   UNL     1       2.340  11.930  18.861  0.00  0.00    +0.000 NA
ATOM      4  C   UNL     1       1.727  13.102  18.947  0.00  0.00    +0.000 A 
ATOM      5  C   UNL     1       2.210  14.414  19.313  0.00  0.00    +0.000 A 
ATOM      6  C   UNL     1       1.300  15.408  19.309  0.00  0.00    +0.000 A 
ATOM      7  C   UNL     1      -0.092  15.120  18.946  0.00  0.00    +0.000 A 
ATOM      8  N   UNL     1      -0.571  13.961  18.634  0.00  0.00    +0.000 NA
ATOM      9  N   UNL     1       0.373  12.968  18.657  0.00  0.00    +0.000 N 
ENDROOT
BRANCH   5  10
ATOM     10  N   UNL     1       3.545  14.673  19.662  0.00  0.00    +0.000 N 
ATOM     11  C   UNL     1       4.067  14.585  21.043  0.00  0.00    +0.000 C 
ATOM     12  C   UNL     1       4.670  15.930  21.466  0.00  0.00    +0.000 C 
ATOM     13  O   UNL     1       5.704  16.346  20.553  0.00  0.00    +0.000 OA
ATOM     14  C   UNL     1       5.167  16.486  19.228  0.00  0.00    +0.000 C 
ATOM     15  C   UNL     1       4.568  15.168  18.717  0.00  0.00    +0.000 C 
ENDBRANCH   5  10
BRANCH   1  19
ATOM     16  C   UNL     1      -3.617  10.684  17.858  0.00  0.00    +0.000 A 
ATOM     17  C   UNL     1      -2.862   9.657  17.330  0.00  0.00    +0.000 A 
ATOM     18  C   UNL     1      -1.465   9.915  17.407  0.00  0.00    +0.000 A 
ATOM     19  C   UNL     1      -1.174  11.113  18.033  0.00  0.00    +0.000 A 
ATOM     20  S   UNL     1      -2.618  11.956  18.414  0.00  0.00    +0.000 S 
BRANCH  16  22
ATOM     21  O   UNL     1      -5.719  10.163  18.836  0.00  0.00    +0.000 OA
ATOM     22  C   UNL     1      -5.064  10.729  17.970  0.00  0.00    +0.000 C 
BRANCH  22  23
ATOM     23  O   UNL     1      -5.656  11.465  16.995  0.00  0.00    +0.000 OA
ATOM     24  H   UNL     1      -5.216  11.336  16.132  0.00  0.00    +0.000 HD
ENDBRANCH  22  23
ENDBRANCH  16  22
ENDBRANCH   1  19
BRANCH   2  25
ATOM     25  C   UNL     1       1.702   9.647  18.331  0.00  0.00    +0.000 C 
ATOM     26  C   UNL     1       2.058   8.511  18.156  0.00  0.00    +0.000 C 
BRANCH  26  27
ATOM     27  C   UNL     1       2.587   7.199  17.910  0.00  0.00    +0.000 A 
ATOM     28  C   UNL     1       3.889   7.040  17.465  0.00  0.00    +0.000 A 
ATOM     29  C   UNL     1       4.369   5.747  17.286  0.00  0.00    +0.000 A 
ATOM     30  C   UNL     1       3.545   4.652  17.578  0.00  0.00    +0.000 A 
ATOM     31  C   UNL     1       4.012   3.330  17.455  0.00  0.00    +0.000 A 
ATOM     32  C   UNL     1       3.187   2.257  17.786  0.00  0.00    +0.000 A 
ATOM     33  C   UNL     1       1.886   2.503  18.207  0.00  0.00    +0.000 A 
ATOM     34  C   UNL     1       1.420   3.819  18.307  0.00  0.00    +0.000 A 
ATOM     35  C   UNL     1       2.228   4.914  18.017  0.00  0.00    +0.000 A 
ATOM     36  N   UNL     1       1.754   6.168  18.178  0.00  0.00    +0.000 NA
ENDBRANCH  26  27
ENDBRANCH   2  25
TORSDOF 6
ENDMDL
MODEL 5
REMARK VINA RESULT:      -7.5      0.907      1.704
REMARK  Name = 
REMARK  6 active torsions:
REMARK  status: ('A' for Active; 'I' for Inactive)
REMARK    1  A    between atoms: C_2  and  O_3
REMARK    2  A    between atoms: C_2  and  C_4
REMARK    3  A    between atoms: C_7  and  C_8
REMARK    4  A    between atoms: C_9  and  C_10
REMARK    5  A    between atoms: C_11  and  C_12
REMARK    6  A    between atoms: C_24  and  N_25
REMARK                            x       y       z     vdW  Elec       q    Type
REMARK                         _______ _______ _______ _____ _____    ______ ____
ROOT
ATOM      1  C   UNL     1       0.014  12.501  18.951  0.00  0.00    +0.000 A 
ATOM      2  C   UNL     1       1.172  11.755  19.088  0.00  0.00    +0.000 A 
ATOM      3  N   UNL     1       2.290  12.549  19.156  0.00  0.00    +0.000 NA
ATOM      4  C   UNL     1       1.851  13.794  19.038  0.00  0.00    +0.000 A 
ATOM      5  C   UNL     1       2.543  15.062  19.063  0.00  0.00    +0.000 A 
ATOM      6  C   UNL     1       1.777  16.163  18.924  0.00  0.00    +0.000 A 
ATOM      7  C   UNL     1       0.326  16.025  18.758  0.00  0.00    +0.000 A 
ATOM      8  N   UNL     1      -0.335  14.915  18.752  0.00  0.00    +0.000 NA
ATOM      9  N   UNL     1       0.466  13.813  18.907  0.00  0.00    +0.000 N 
ENDROOT
BRANCH   5  10
ATOM     10  N   UNL     1       3.932  15.179  19.227  0.00  0.00    +0.000 N 
ATOM     11  C   UNL     1       4.626  15.018  20.523  0.00  0.00    +0.000 C 
ATOM     12  C   UNL     1       5.417  16.288  20.859  0.00  0.00    +0.000 C 
ATOM     13  O   UNL     1       6.353  16.609  19.813  0.00  0.00    +0.000 OA
ATOM     14  C   UNL     1       5.658  16.823  18.575  0.00  0.00    +0.000 C 
ATOM     15  C   UNL     1       4.862  15.579  18.150  0.00  0.00    +0.000 C 
ENDBRANCH   5  10
BRANCH   1  19
ATOM     16  C   UNL     1      -3.635  11.503  18.019  0.00  0.00    +0.000 A 
ATOM     17  C   UNL     1      -3.646  11.890  19.343  0.00  0.00    +0.000 A 
ATOM     18  C   UNL     1      -2.349  12.225  19.822  0.00  0.00    +0.000 A 
ATOM     19  C   UNL     1      -1.375  12.131  18.845  0.00  0.00    +0.000 A 
ATOM     20  S   UNL     1      -2.045  11.525  17.388  0.00  0.00    +0.000 S 
BRANCH  16  22
ATOM     21  O   UNL     1      -5.944  11.131  17.603  0.00  0.00    +0.000 OA
ATOM     22  C   UNL     1      -4.784  11.131  17.214  0.00  0.00    +0.000 C 
BRANCH  22  23
ATOM     23  O   UNL     1      -4.456  10.756  15.950  0.00  0.00    +0.000 OA
ATOM     24  H   UNL     1      -4.093   9.849  15.929  0.00  0.00    +0.000 HD
ENDBRANCH  22  23
ENDBRANCH  16  22
ENDBRANCH   1  19
BRANCH   2  25
ATOM     25  C   UNL     1       1.298  10.332  19.197  0.00  0.00    +0.000 C 
ATOM     26  C   UNL     1       1.490   9.148  19.298  0.00  0.00    +0.000 C 
BRANCH  26  27
ATOM     27  C   UNL     1       1.833   7.761  19.438  0.00  0.00    +0.000 A 
ATOM     28  C   UNL     1       1.405   7.041  20.541  0.00  0.00    +0.000 A 
ATOM     29  C   UNL     1       1.724   5.689  20.608  0.00  0.00    +0.000 A 
ATOM     30  C   UNL     1       2.441   5.091  19.562  0.00  0.00    +0.000 A 
ATOM     31  C   UNL     1       2.740   3.715  19.572  0.00  0.00    +0.000 A 
ATOM     32  C   UNL     1       3.421   3.134  18.505  0.00  0.00    +0.000 A 
ATOM     33  C   UNL     1       3.833   3.932  17.445  0.00  0.00    +0.000 A 
ATOM     34  C   UNL     1       3.551   5.304  17.450  0.00  0.00    +0.000 A 
ATOM     35  C   UNL     1       2.843   5.909  18.484  0.00  0.00    +0.000 A 
ATOM     36  N   UNL     1       2.547   7.225  18.423  0.00  0.00    +0.000 NA
ENDBRANCH  26  27
ENDBRANCH   2  25
TORSDOF 6
ENDMDL
MODEL 6
REMARK VINA RESULT:      -7.5      1.292      1.754
REMARK  Name = 
REMARK  6 active torsions:
REMARK  status: ('A' for Active; 'I' for Inactive)
REMARK    1  A    between atoms: C_2  and  O_3
REMARK    2  A    between atoms: C_2  and  C_4
REMARK    3  A    between atoms: C_7  and  C_8
REMARK    4  A    between atoms: C_9  and  C_10
REMARK    5  A    between atoms: C_11  and  C_12
REMARK    6  A    between atoms: C_24  and  N_25
REMARK                            x       y       z     vdW  Elec       q    Type
REMARK                         _______ _______ _______ _____ _____    ______ ____
ROOT
ATOM      1  C   UNL     1       0.017  11.743  18.531  0.00  0.00    +0.000 A 
ATOM      2  C   UNL     1       1.242  11.137  18.751  0.00  0.00    +0.000 A 
ATOM      3  N   UNL     1       2.200  12.041  19.138  0.00  0.00    +0.000 NA
ATOM      4  C   UNL     1       1.597  13.220  19.141  0.00  0.00    +0.000 A 
ATOM      5  C   UNL     1       2.072  14.541  19.485  0.00  0.00    +0.000 A 
ATOM      6  C   UNL     1       1.176  15.543  19.387  0.00  0.00    +0.000 A 
ATOM      7  C   UNL     1      -0.194  15.255  18.949  0.00  0.00    +0.000 A 
ATOM      8  N   UNL     1      -0.667  14.089  18.653  0.00  0.00    +0.000 NA
ATOM      9  N   UNL     1       0.262  13.088  18.772  0.00  0.00    +0.000 N 
ENDROOT
BRANCH   5  10
ATOM     10  N   UNL     1       3.386  14.801  19.908  0.00  0.00    +0.000 N 
ATOM     11  C   UNL     1       3.845  14.661  21.306  0.00  0.00    +0.000 C 
ATOM     12  C   UNL     1       4.410  15.994  21.812  0.00  0.00    +0.000 C 
ATOM     13  O   UNL     1       5.478  16.461  20.967  0.00  0.00    +0.000 OA
ATOM     14  C   UNL     1       5.001  16.650  19.626  0.00  0.00    +0.000 C 
ATOM     15  C   UNL     1       4.445  15.347  19.032  0.00  0.00    +0.000 C 
ENDBRANCH   5  10
BRANCH   1  19
ATOM     16  C   UNL     1      -3.694  10.746  17.887  0.00  0.00    +0.000 A 
ATOM     17  C   UNL     1      -2.906   9.797  17.268  0.00  0.00    +0.000 A 
ATOM     18  C   UNL     1      -1.517  10.086  17.383  0.00  0.00    +0.000 A 
ATOM     19  C   UNL     1      -1.265  11.226  18.125  0.00  0.00    +0.000 A 
ATOM     20  S   UNL     1      -2.735  11.987  18.572  0.00  0.00    +0.000 S 
BRANCH  16  22
ATOM     21  O   UNL     1      -5.783  10.132  18.836  0.00  0.00    +0.000 OA
ATOM     22  C   UNL     1      -5.142  10.740  17.989  0.00  0.00    +0.000 C 
BRANCH  22  23
ATOM     23  O   UNL     1      -5.752  11.479  17.027  0.00  0.00    +0.000 OA
ATOM     24  H   UNL     1      -5.111  12.033  16.540  0.00  0.00    +0.000 HD
ENDBRANCH  22  23
ENDBRANCH  16  22
ENDBRANCH   1  19
BRANCH   2  25
ATOM     25  C   UNL     1       1.569   9.745  18.657  0.00  0.00    +0.000 C 
ATOM     26  C   UNL     1       1.894   8.586  18.648  0.00  0.00    +0.000 C 
BRANCH  26  27
ATOM     27  C   UNL     1       2.341   7.225  18.738  0.00  0.00    +0.000 A 
ATOM     28  C   UNL     1       3.188   6.700  17.777  0.00  0.00    +0.000 A 
ATOM     29  C   UNL     1       3.630   5.391  17.934  0.00  0.00    +0.000 A 
ATOM     30  C   UNL     1       3.232   4.652  19.056  0.00  0.00    +0.000 A 
ATOM     31  C   UNL     1       3.697   3.341  19.273  0.00  0.00    +0.000 A 
ATOM     32  C   UNL     1       3.317   2.638  20.414  0.00  0.00    +0.000 A 
ATOM     33  C   UNL     1       2.447   3.231  21.321  0.00  0.00    +0.000 A 
ATOM     34  C   UNL     1       1.971   4.527  21.090  0.00  0.00    +0.000 A 
ATOM     35  C   UNL     1       2.358   5.269  19.978  0.00  0.00    +0.000 A 
ATOM     36  N   UNL     1       1.915   6.535  19.820  0.00  0.00    +0.000 NA
ENDBRANCH  26  27
ENDBRANCH   2  25
TORSDOF 6
ENDMDL
MODEL 7
REMARK VINA RESULT:      -7.5      3.005      6.902
REMARK  Name = 
REMARK  6 active torsions:
REMARK  status: ('A' for Active; 'I' for Inactive)
REMARK    1  A    between atoms: C_2  and  O_3
REMARK    2  A    between atoms: C_2  and  C_4
REMARK    3  A    between atoms: C_7  and  C_8
REMARK    4  A    between atoms: C_9  and  C_10
REMARK    5  A    between atoms: C_11  and  C_12
REMARK    6  A    between atoms: C_24  and  N_25
REMARK                            x       y       z     vdW  Elec       q    Type
REMARK                         _______ _______ _______ _____ _____    ______ ____
ROOT
ATOM      1  C   UNL     1      -0.456  13.953  20.897  0.00  0.00    +0.000 A 
ATOM      2  C   UNL     1      -0.778  12.607  20.900  0.00  0.00    +0.000 A 
ATOM      3  N   UNL     1      -2.047  12.383  21.375  0.00  0.00    +0.000 NA
ATOM      4  C   UNL     1      -2.523  13.577  21.695  0.00  0.00    +0.000 A 
ATOM      5  C   UNL     1      -3.806  13.991  22.216  0.00  0.00    +0.000 A 
ATOM      6  C   UNL     1      -3.969  15.313  22.424  0.00  0.00    +0.000 A 
ATOM      7  C   UNL     1      -2.871  16.238  22.122  0.00  0.00    +0.000 A 
ATOM      8  N   UNL     1      -1.718  15.916  21.636  0.00  0.00    +0.000 NA
ATOM      9  N   UNL     1      -1.584  14.568  21.424  0.00  0.00    +0.000 N 
ENDROOT
BRANCH   5  10
ATOM     10  N   UNL     1      -4.849  13.094  22.496  0.00  0.00    +0.000 N 
ATOM     11  C   UNL     1      -5.715  12.488  21.462  0.00  0.00    +0.000 C 
ATOM     12  C   UNL     1      -7.184  12.831  21.737  0.00  0.00    +0.000 C 
ATOM     13  O   UNL     1      -7.581  12.402  23.054  0.00  0.00    +0.000 OA
ATOM     14  C   UNL     1      -6.771  13.045  24.049  0.00  0.00    +0.000 C 
ATOM     15  C   UNL     1      -5.280  12.725  23.861  0.00  0.00    +0.000 C 
ENDBRANCH   5  10
BRANCH   1  19
ATOM     16  C   UNL     1       2.595  15.690  19.207  0.00  0.00    +0.000 A 
ATOM     17  C   UNL     1       2.836  15.680  20.566  0.00  0.00    +0.000 A 
ATOM     18  C   UNL     1       1.756  15.119  21.304  0.00  0.00    +0.000 A 
ATOM     19  C   UNL     1       0.729  14.669  20.495  0.00  0.00    +0.000 A 
ATOM     20  S   UNL     1       1.051  15.044  18.853  0.00  0.00    +0.000 S 
BRANCH  16  22
ATOM     21  O   UNL     1       4.120  17.210  18.203  0.00  0.00    +0.000 OA
ATOM     22  C   UNL     1       3.497  16.156  18.170  0.00  0.00    +0.000 C 
BRANCH  22  23
ATOM     23  O   UNL     1       3.587  15.307  17.114  0.00  0.00    +0.000 OA
ATOM     24  H   UNL     1       4.503  14.992  16.985  0.00  0.00    +0.000 HD
ENDBRANCH  22  23
ENDBRANCH  16  22
ENDBRANCH   1  19
BRANCH   2  25
ATOM     25  C   UNL     1       0.021  11.507  20.450  0.00  0.00    +0.000 C 
ATOM     26  C   UNL     1       0.625  10.556  20.023  0.00  0.00    +0.000 C 
BRANCH  26  27
ATOM     27  C   UNL     1       1.250   9.401  19.445  0.00  0.00    +0.000 A 
ATOM     28  C   UNL     1       1.758   9.448  18.157  0.00  0.00    +0.000 A 
ATOM     29  C   UNL     1       2.396   8.316  17.660  0.00  0.00    +0.000 A 
ATOM     30  C   UNL     1       2.528   7.180  18.469  0.00  0.00    +0.000 A 
ATOM     31  C   UNL     1       3.208   6.033  18.017  0.00  0.00    +0.000 A 
ATOM     32  C   UNL     1       3.360   4.929  18.852  0.00  0.00    +0.000 A 
ATOM     33  C   UNL     1       2.802   4.955  20.125  0.00  0.00    +0.000 A 
ATOM     34  C   UNL     1       2.108   6.089  20.561  0.00  0.00    +0.000 A 
ATOM     35  C   UNL     1       1.968   7.223  19.765  0.00  0.00    +0.000 A 
ATOM     36  N   UNL     1       1.336   8.314  20.246  0.00  0.00    +0.000 NA
ENDBRANCH  26  27
ENDBRANCH   2  25
TORSDOF 6
ENDMDL
MODEL 8
REMARK VINA RESULT:      -7.5      2.836      6.601
REMARK  Name = 
REMARK  6 active torsions:
REMARK  status: ('A' for Active; 'I' for Inactive)
REMARK    1  A    between atoms: C_2  and  O_3
REMARK    2  A    between atoms: C_2  and  C_4
REMARK    3  A    between atoms: C_7  and  C_8
REMARK    4  A    between atoms: C_9  and  C_10
REMARK    5  A    between atoms: C_11  and  C_12
REMARK    6  A    between atoms: C_24  and  N_25
REMARK                            x       y       z     vdW  Elec       q    Type
REMARK                         _______ _______ _______ _____ _____    ______ ____
ROOT
ATOM      1  C   UNL     1       0.508  12.961  20.237  0.00  0.00    +0.000 A 
ATOM      2  C   UNL     1       0.127  11.667  20.547  0.00  0.00    +0.000 A 
ATOM      3  N   UNL     1      -1.076  11.630  21.208  0.00  0.00    +0.000 NA
ATOM      4  C   UNL     1      -1.449  12.894  21.340  0.00  0.00    +0.000 A 
ATOM      5  C   UNL     1      -2.631  13.491  21.920  0.00  0.00    +0.000 A 
ATOM      6  C   UNL     1      -2.702  14.836  21.879  0.00  0.00    +0.000 A 
ATOM      7  C   UNL     1      -1.612  15.606  21.268  0.00  0.00    +0.000 A 
ATOM      8  N   UNL     1      -0.550  15.114  20.720  0.00  0.00    +0.000 NA
ATOM      9  N   UNL     1      -0.510  13.744  20.765  0.00  0.00    +0.000 N 
ENDROOT
BRANCH   5  10
ATOM     10  N   UNL     1      -3.668  12.742  22.497  0.00  0.00    +0.000 N 
ATOM     11  C   UNL     1      -5.028  12.639  21.925  0.00  0.00    +0.000 C 
ATOM     12  C   UNL     1      -6.067  13.124  22.944  0.00  0.00    +0.000 C 
ATOM     13  O   UNL     1      -5.972  12.384  24.176  0.00  0.00    +0.000 OA
ATOM     14  C   UNL     1      -4.665  12.544  24.749  0.00  0.00    +0.000 C 
ATOM     15  C   UNL     1      -3.564  12.050  23.799  0.00  0.00    +0.000 C 
ENDBRANCH   5  10
BRANCH   1  19
ATOM     16  C   UNL     1       3.706  14.776  18.948  0.00  0.00    +0.000 A 
ATOM     17  C   UNL     1       3.117  14.169  17.858  0.00  0.00    +0.000 A 
ATOM     18  C   UNL     1       1.961  13.418  18.213  0.00  0.00    +0.000 A 
ATOM     19  C   UNL     1       1.661  13.500  19.561  0.00  0.00    +0.000 A 
ATOM     20  S   UNL     1       2.862  14.400  20.389  0.00  0.00    +0.000 S 
BRANCH  16  22
ATOM     21  O   UNL     1       6.034  15.251  18.981  0.00  0.00    +0.000 OA
ATOM     22  C   UNL     1       4.873  15.639  18.936  0.00  0.00    +0.000 C 
BRANCH  22  23
ATOM     23  O   UNL     1       4.564  16.960  18.883  0.00  0.00    +0.000 OA
ATOM     24  H   UNL     1       4.564  17.291  17.964  0.00  0.00    +0.000 HD
ENDBRANCH  22  23
ENDBRANCH  16  22
ENDBRANCH   1  19
BRANCH   2  25
ATOM     25  C   UNL     1       0.806  10.446  20.231  0.00  0.00    +0.000 C 
ATOM     26  C   UNL     1       1.327   9.414  19.893  0.00  0.00    +0.000 C 
BRANCH  26  27
ATOM     27  C   UNL     1       1.882   8.189  19.393  0.00  0.00    +0.000 A 
ATOM     28  C   UNL     1       2.508   8.155  18.157  0.00  0.00    +0.000 A 
ATOM     29  C   UNL     1       3.071   6.954  17.738  0.00  0.00    +0.000 A 
ATOM     30  C   UNL     1       3.011   5.829  18.571  0.00  0.00    +0.000 A 
ATOM     31  C   UNL     1       3.610   4.611  18.201  0.00  0.00    +0.000 A 
ATOM     32  C   UNL     1       3.572   3.516  19.061  0.00  0.00    +0.000 A 
ATOM     33  C   UNL     1       2.906   3.627  20.275  0.00  0.00    +0.000 A 
ATOM     34  C   UNL     1       2.293   4.835  20.629  0.00  0.00    +0.000 A 
ATOM     35  C   UNL     1       2.343   5.958  19.808  0.00  0.00    +0.000 A 
ATOM     36  N   UNL     1       1.783   7.118  20.213  0.00  0.00    +0.000 NA
ENDBRANCH  26  27
ENDBRANCH   2  25
TORSDOF 6
ENDMDL
MODEL 9
REMARK VINA RESULT:      -7.5      0.807      1.282
REMARK  Name = 
REMARK  6 active torsions:
REMARK  status: ('A' for Active; 'I' for Inactive)
REMARK    1  A    between atoms: C_2  and  O_3
REMARK    2  A    between atoms: C_2  and  C_4
REMARK    3  A    between atoms: C_7  and  C_8
REMARK    4  A    between atoms: C_9  and  C_10
REMARK    5  A    between atoms: C_11  and  C_12
REMARK    6  A    between atoms: C_24  and  N_25
REMARK                            x       y       z     vdW  Elec       q    Type
REMARK                         _______ _______ _______ _____ _____    ______ ____
ROOT
ATOM      1  C   UNL     1       0.166  12.617  18.792  0.00  0.00    +0.000 A 
ATOM      2  C   UNL     1       1.361  11.923  18.854  0.00  0.00    +0.000 A 
ATOM      3  N   UNL     1       2.431  12.758  19.060  0.00  0.00    +0.000 NA
ATOM      4  C   UNL     1       1.924  13.981  19.105  0.00  0.00    +0.000 A 
ATOM      5  C   UNL     1       2.542  15.269  19.324  0.00  0.00    +0.000 A 
ATOM      6  C   UNL     1       1.718  16.335  19.320  0.00  0.00    +0.000 A 
ATOM      7  C   UNL     1       0.280  16.145  19.099  0.00  0.00    +0.000 A 
ATOM      8  N   UNL     1      -0.317  15.013  18.921  0.00  0.00    +0.000 NA
ATOM      9  N   UNL     1       0.543  13.945  18.942  0.00  0.00    +0.000 N 
ENDROOT
BRANCH   5  10
ATOM     10  N   UNL     1       3.920  15.436  19.538  0.00  0.00    +0.000 N 
ATOM     11  C   UNL     1       4.589  15.180  20.832  0.00  0.00    +0.000 C 
ATOM     12  C   UNL     1       5.306  16.448  21.314  0.00  0.00    +0.000 C 
ATOM     13  O   UNL     1       6.249  16.917  20.332  0.00  0.00    +0.000 OA
ATOM     14  C   UNL     1       5.574  17.218  19.101  0.00  0.00    +0.000 C 
ATOM     15  C   UNL     1       4.853  15.987  18.534  0.00  0.00    +0.000 C 
ENDBRANCH   5  10
BRANCH   1  19
ATOM     16  C   UNL     1      -3.372  11.465  17.635  0.00  0.00    +0.000 A 
ATOM     17  C   UNL     1      -3.486  11.866  18.950  0.00  0.00    +0.000 A 
ATOM     18  C   UNL     1      -2.237  12.258  19.509  0.00  0.00    +0.000 A 
ATOM     19  C   UNL     1      -1.198  12.192  18.599  0.00  0.00    +0.000 A 
ATOM     20  S   UNL     1      -1.746  11.544  17.109  0.00  0.00    +0.000 S 
BRANCH  16  22
ATOM     21  O   UNL     1      -4.308  10.661  15.605  0.00  0.00    +0.000 OA
ATOM     22  C   UNL     1      -4.450  11.040  16.760  0.00  0.00    +0.000 C 
BRANCH  22  23
ATOM     23  O   UNL     1      -5.675  11.112  17.342  0.00  0.00    +0.000 OA
ATOM     24  H   UNL     1      -6.140  10.253  17.305  0.00  0.00    +0.000 HD
ENDBRANCH  22  23
ENDBRANCH  16  22
ENDBRANCH   1  19
BRANCH   2  25
ATOM     25  C   UNL     1       1.566  10.507  18.767  0.00  0.00    +0.000 C 
ATOM     26  C   UNL     1       1.820   9.331  18.721  0.00  0.00    +0.000 C 
BRANCH  26  27
ATOM     27  C   UNL     1       2.229   7.955  18.711  0.00  0.00    +0.000 A 
ATOM     28  C   UNL     1       3.033   7.470  17.693  0.00  0.00    +0.000 A 
ATOM     29  C   UNL     1       3.441   6.141  17.754  0.00  0.00    +0.000 A 
ATOM     30  C   UNL     1       3.053   5.343  18.838  0.00  0.00    +0.000 A 
ATOM     31  C   UNL     1       3.485   4.009  18.958  0.00  0.00    +0.000 A 
ATOM     32  C   UNL     1       3.118   3.245  20.063  0.00  0.00    +0.000 A 
ATOM     33  C   UNL     1       2.292   3.803  21.032  0.00  0.00    +0.000 A 
ATOM     34  C   UNL     1       1.847   5.123  20.897  0.00  0.00    +0.000 A 
ATOM     35  C   UNL     1       2.224   5.924  19.823  0.00  0.00    +0.000 A 
ATOM     36  N   UNL     1       1.814   7.209  19.759  0.00  0.00    +0.000 NA
ENDBRANCH  26  27
ENDBRANCH   2  25
TORSDOF 6
ENDMDL
