MODEL 1
REMARK VINA RESULT:      -8.3      0.000      0.000
REMARK  Name = 
REMARK  9 active torsions:
REMARK  status: ('A' for Active; 'I' for Inactive)
REMARK    1  A    between atoms: C_1  and  C_2
REMARK    2  A    between atoms: C_2  and  C_3
REMARK    3  A    between atoms: C_7  and  C_8
REMARK    4  A    between atoms: N_10  and  C_11
REMARK    5  A    between atoms: C_11  and  C_12
REMARK    6  A    between atoms: C_12  and  O_13
REMARK    7  A    between atoms: C_12  and  C_14
REMARK    8  A    between atoms: C_14  and  O_15
REMARK    9  A    between atoms: O_15  and  C_16
REMARK                            x       y       z     vdW  Elec       q    Type
REMARK                         _______ _______ _______ _____ _____    ______ ____
ROOT
ATOM      1  C   UNL     1       6.459   5.355  18.968  0.00  0.00    +0.000 C 
ENDROOT
BRANCH   1  11
ATOM      2  C   UNL     1       1.773   2.378  18.077  0.00  0.00    +0.000 C 
ATOM      3  C   UNL     1       2.128   3.701  18.804  0.00  0.00    +0.000 C 
ATOM      4  C   UNL     1       1.091   3.841  19.944  0.00  0.00    +0.000 C 
ATOM      5  C   UNL     1       3.508   3.539  19.442  0.00  0.00    +0.000 C 
ATOM      6  C   UNL     1       4.163   4.892  19.819  0.00  0.00    +0.000 C 
ATOM      7  C   UNL     1       3.178   6.069  19.848  0.00  0.00    +0.000 C 
ATOM      8  C   UNL     1       2.951   6.226  18.359  0.00  0.00    +0.000 C 
ATOM      9  C   UNL     1       2.199   7.494  17.957  0.00  0.00    +0.000 C 
ATOM     10  C   UNL     1       4.434   6.325  17.943  0.00  0.00    +0.000 C 
ATOM     11  N   UNL     1       5.034   5.194  18.657  0.00  0.00    +0.000 NA
ATOM     12  C   UNL     1       2.259   4.926  17.811  0.00  0.00    +0.000 C 
ENDBRANCH   1  11
BRANCH   1  13
ATOM     13  C   UNL     1       7.376   5.296  17.718  0.00  0.00    +0.000 C 
BRANCH  13  14
ATOM     14  O   UNL     1       8.174   4.103  17.733  0.00  0.00    +0.000 OA
ATOM     15  H   UNL     1       7.594   3.377  18.025  0.00  0.00    +0.000 HD
ENDBRANCH  13  14
BRANCH  13  16
ATOM     16  C   UNL     1       6.561   5.420  16.420  0.00  0.00    +0.000 C 
BRANCH  16  17
ATOM     17  O   UNL     1       7.435   5.607  15.306  0.00  0.00    +0.000 OA
BRANCH  17  18
ATOM     18  C   UNL     1       7.057   4.945  14.168  0.00  0.00    +0.000 A 
ATOM     19  C   UNL     1       5.880   4.209  14.283  0.00  0.00    +0.000 A 
ATOM     20  C   UNL     1       5.415   3.453  13.207  0.00  0.00    +0.000 A 
ATOM     21  C   UNL     1       6.117   3.450  12.003  0.00  0.00    +0.000 A 
ATOM     22  C   UNL     1       7.268   4.223  11.866  0.00  0.00    +0.000 A 
ATOM     23  C   UNL     1       7.734   4.977  12.943  0.00  0.00    +0.000 A 
ENDBRANCH  17  18
ENDBRANCH  16  17
ENDBRANCH  13  16
ENDBRANCH   1  13
TORSDOF 6
ENDMDL
MODEL 2
REMARK VINA RESULT:      -8.1      0.427      1.095
REMARK  Name = 
REMARK  9 active torsions:
REMARK  status: ('A' for Active; 'I' for Inactive)
REMARK    1  A    between atoms: C_1  and  C_2
REMARK    2  A    between atoms: C_2  and  C_3
REMARK    3  A    between atoms: C_7  and  C_8
REMARK    4  A    between atoms: N_10  and  C_11
REMARK    5  A    between atoms: C_11  and  C_12
REMARK    6  A    between atoms: C_12  and  O_13
REMARK    7  A    between atoms: C_12  and  C_14
REMARK    8  A    between atoms: C_14  and  O_15
REMARK    9  A    between atoms: O_15  and  C_16
REMARK                            x       y       z     vdW  Elec       q    Type
REMARK                         _______ _______ _______ _____ _____    ______ ____
ROOT
ATOM      1  C   UNL     1       6.434   5.928  18.836  0.00  0.00    +0.000 C 
ENDROOT
BRANCH   1  11
ATOM      2  C   UNL     1       2.247   2.325  17.787  0.00  0.00    +0.000 C 
ATOM      3  C   UNL     1       2.400   3.651  18.574  0.00  0.00    +0.000 C 
ATOM      4  C   UNL     1       1.356   3.581  19.714  0.00  0.00    +0.000 C 
ATOM      5  C   UNL     1       3.790   3.670  19.211  0.00  0.00    +0.000 C 
ATOM      6  C   UNL     1       4.234   5.087  19.653  0.00  0.00    +0.000 C 
ATOM      7  C   UNL     1       3.084   6.100  19.730  0.00  0.00    +0.000 C 
ATOM      8  C   UNL     1       2.834   6.289  18.249  0.00  0.00    +0.000 C 
ATOM      9  C   UNL     1       1.899   7.447  17.900  0.00  0.00    +0.000 C 
ATOM     10  C   UNL     1       4.284   6.628  17.845  0.00  0.00    +0.000 C 
ATOM     11  N   UNL     1       5.049   5.570  18.510  0.00  0.00    +0.000 NA
ATOM     12  C   UNL     1       2.344   4.926  17.638  0.00  0.00    +0.000 C 
ENDBRANCH   1  11
BRANCH   1  13
ATOM     13  C   UNL     1       7.475   5.336  17.849  0.00  0.00    +0.000 C 
BRANCH  13  14
ATOM     14  O   UNL     1       8.287   4.350  18.504  0.00  0.00    +0.000 OA
ATOM     15  H   UNL     1       8.815   3.913  17.813  0.00  0.00    +0.000 HD
ENDBRANCH  13  14
BRANCH  13  16
ATOM     16  C   UNL     1       6.795   4.771  16.592  0.00  0.00    +0.000 C 
BRANCH  16  17
ATOM     17  O   UNL     1       7.294   5.426  15.425  0.00  0.00    +0.000 OA
BRANCH  17  18
ATOM     18  C   UNL     1       6.969   4.815  14.244  0.00  0.00    +0.000 A 
ATOM     19  C   UNL     1       7.771   5.169  13.161  0.00  0.00    +0.000 A 
ATOM     20  C   UNL     1       7.511   4.650  11.893  0.00  0.00    +0.000 A 
ATOM     21  C   UNL     1       6.460   3.754  11.710  0.00  0.00    +0.000 A 
ATOM     22  C   UNL     1       5.686   3.356  12.797  0.00  0.00    +0.000 A 
ATOM     23  C   UNL     1       5.944   3.879  14.065  0.00  0.00    +0.000 A 
ENDBRANCH  17  18
ENDBRANCH  16  17
ENDBRANCH  13  16
ENDBRANCH   1  13
TORSDOF 6
ENDMDL
MODEL 3
REMARK VINA RESULT:      -8.0      1.233      2.125
REMARK  Name = 
REMARK  9 active torsions:
REMARK  status: ('A' for Active; 'I' for Inactive)
REMARK    1  A    between atoms: C_1  and  C_2
REMARK    2  A    between atoms: C_2  and  C_3
REMARK    3  A    between atoms: C_7  and  C_8
REMARK    4  A    between atoms: N_10  and  C_11
REMARK    5  A    between atoms: C_11  and  C_12
REMARK    6  A    between atoms: C_12  and  O_13
REMARK    7  A    between atoms: C_12  and  C_14
REMARK    8  A    between atoms: C_14  and  O_15
REMARK    9  A    between atoms: O_15  and  C_16
REMARK                            x       y       z     vdW  Elec       q    Type
REMARK                         _______ _______ _______ _____ _____    ______ ____
ROOT
ATOM      1  C   UNL     1       5.944   5.494  18.806  0.00  0.00    +0.000 C 
ENDROOT
BRANCH   1  11
ATOM      2  C   UNL     1       2.045   2.951  21.960  0.00  0.00    +0.000 C 
ATOM      3  C   UNL     1       2.094   3.576  20.541  0.00  0.00    +0.000 C 
ATOM      4  C   UNL     1       0.657   4.079  20.260  0.00  0.00    +0.000 C 
ATOM      5  C   UNL     1       3.018   4.793  20.587  0.00  0.00    +0.000 C 
ATOM      6  C   UNL     1       3.493   5.244  19.183  0.00  0.00    +0.000 C 
ATOM      7  C   UNL     1       2.665   4.658  18.031  0.00  0.00    +0.000 C 
ATOM      8  C   UNL     1       3.154   3.227  18.090  0.00  0.00    +0.000 C 
ATOM      9  C   UNL     1       2.735   2.357  16.906  0.00  0.00    +0.000 C 
ATOM     10  C   UNL     1       4.665   3.532  18.026  0.00  0.00    +0.000 C 
ATOM     11  N   UNL     1       4.814   4.586  19.033  0.00  0.00    +0.000 NA
ATOM     12  C   UNL     1       2.726   2.601  19.468  0.00  0.00    +0.000 C 
ENDBRANCH   1  11
BRANCH   1  13
ATOM     13  C   UNL     1       6.089   5.944  17.327  0.00  0.00    +0.000 C 
BRANCH  13  14
ATOM     14  O   UNL     1       6.371   7.350  17.254  0.00  0.00    +0.000 OA
ATOM     15  H   UNL     1       5.964   7.763  18.036  0.00  0.00    +0.000 HD
ENDBRANCH  13  14
BRANCH  13  16
ATOM     16  C   UNL     1       7.150   5.111  16.591  0.00  0.00    +0.000 C 
BRANCH  16  17
ATOM     17  O   UNL     1       7.488   5.729  15.349  0.00  0.00    +0.000 OA
BRANCH  17  18
ATOM     18  C   UNL     1       7.090   5.033  14.239  0.00  0.00    +0.000 A 
ATOM     19  C   UNL     1       5.918   4.296  14.398  0.00  0.00    +0.000 A 
ATOM     20  C   UNL     1       5.435   3.508  13.355  0.00  0.00    +0.000 A 
ATOM     21  C   UNL     1       6.113   3.472  12.138  0.00  0.00    +0.000 A 
ATOM     22  C   UNL     1       7.257   4.244  11.955  0.00  0.00    +0.000 A 
ATOM     23  C   UNL     1       7.743   5.031  13.001  0.00  0.00    +0.000 A 
ENDBRANCH  17  18
ENDBRANCH  16  17
ENDBRANCH  13  16
ENDBRANCH   1  13
TORSDOF 6
ENDMDL
MODEL 4
REMARK VINA RESULT:      -8.0      1.155      1.445
REMARK  Name = 
REMARK  9 active torsions:
REMARK  status: ('A' for Active; 'I' for Inactive)
REMARK    1  A    between atoms: C_1  and  C_2
REMARK    2  A    between atoms: C_2  and  C_3
REMARK    3  A    between atoms: C_7  and  C_8
REMARK    4  A    between atoms: N_10  and  C_11
REMARK    5  A    between atoms: C_11  and  C_12
REMARK    6  A    between atoms: C_12  and  O_13
REMARK    7  A    between atoms: C_12  and  C_14
REMARK    8  A    between atoms: C_14  and  O_15
REMARK    9  A    between atoms: O_15  and  C_16
REMARK                            x       y       z     vdW  Elec       q    Type
REMARK                         _______ _______ _______ _____ _____    ______ ____
ROOT
ATOM      1  C   UNL     1       6.082   4.530  17.391  0.00  0.00    +0.000 C 
ENDROOT
BRANCH   1  11
ATOM      2  C   UNL     1       0.950   2.577  18.601  0.00  0.00    +0.000 C 
ATOM      3  C   UNL     1       1.824   3.770  19.067  0.00  0.00    +0.000 C 
ATOM      4  C   UNL     1       1.389   4.059  20.524  0.00  0.00    +0.000 C 
ATOM      5  C   UNL     1       3.282   3.311  19.095  0.00  0.00    +0.000 C 
ATOM      6  C   UNL     1       4.287   4.490  19.120  0.00  0.00    +0.000 C 
ATOM      7  C   UNL     1       3.653   5.836  19.500  0.00  0.00    +0.000 C 
ATOM      8  C   UNL     1       2.878   6.102  18.227  0.00  0.00    +0.000 C 
ATOM      9  C   UNL     1       2.294   7.510  18.115  0.00  0.00    +0.000 C 
ATOM     10  C   UNL     1       4.051   5.925  17.241  0.00  0.00    +0.000 C 
ATOM     11  N   UNL     1       4.653   4.668  17.693  0.00  0.00    +0.000 NA
ATOM     12  C   UNL     1       1.780   4.989  18.059  0.00  0.00    +0.000 C 
ENDBRANCH   1  11
BRANCH   1  13
ATOM     13  C   UNL     1       6.542   5.375  16.173  0.00  0.00    +0.000 C 
BRANCH  13  14
ATOM     14  O   UNL     1       7.462   6.396  16.586  0.00  0.00    +0.000 OA
ATOM     15  H   UNL     1       7.502   6.367  17.559  0.00  0.00    +0.000 HD
ENDBRANCH  13  14
BRANCH  13  16
ATOM     16  C   UNL     1       7.136   4.485  15.069  0.00  0.00    +0.000 C 
BRANCH  16  17
ATOM     17  O   UNL     1       6.772   4.987  13.782  0.00  0.00    +0.000 OA
BRANCH  17  18
ATOM     18  C   UNL     1       6.423   4.025  12.872  0.00  0.00    +0.000 A 
ATOM     19  C   UNL     1       5.053   3.895  12.654  0.00  0.00    +0.000 A 
ATOM     20  C   UNL     1       4.570   2.918  11.784  0.00  0.00    +0.000 A 
ATOM     21  C   UNL     1       5.459   2.082  11.111  0.00  0.00    +0.000 A 
ATOM     22  C   UNL     1       6.832   2.240  11.287  0.00  0.00    +0.000 A 
ATOM     23  C   UNL     1       7.316   3.215  12.160  0.00  0.00    +0.000 A 
ENDBRANCH  17  18
ENDBRANCH  16  17
ENDBRANCH  13  16
ENDBRANCH   1  13
TORSDOF 6
ENDMDL
MODEL 5
REMARK VINA RESULT:      -7.9      0.920      1.431
REMARK  Name = 
REMARK  9 active torsions:
REMARK  status: ('A' for Active; 'I' for Inactive)
REMARK    1  A    between atoms: C_1  and  C_2
REMARK    2  A    between atoms: C_2  and  C_3
REMARK    3  A    between atoms: C_7  and  C_8
REMARK    4  A    between atoms: N_10  and  C_11
REMARK    5  A    between atoms: C_11  and  C_12
REMARK    6  A    between atoms: C_12  and  O_13
REMARK    7  A    between atoms: C_12  and  C_14
REMARK    8  A    between atoms: C_14  and  O_15
REMARK    9  A    between atoms: O_15  and  C_16
REMARK                            x       y       z     vdW  Elec       q    Type
REMARK                         _______ _______ _______ _____ _____    ______ ____
ROOT
ATOM      1  C   UNL     1       5.736   3.617  17.207  0.00  0.00    +0.000 C 
ENDROOT
BRANCH   1  11
ATOM      2  C   UNL     1       0.593   2.458  19.162  0.00  0.00    +0.000 C 
ATOM      3  C   UNL     1       1.680   3.524  19.457  0.00  0.00    +0.000 C 
ATOM      4  C   UNL     1       1.491   3.909  20.944  0.00  0.00    +0.000 C 
ATOM      5  C   UNL     1       3.050   2.859  19.314  0.00  0.00    +0.000 C 
ATOM      6  C   UNL     1       4.204   3.881  19.155  0.00  0.00    +0.000 C 
ATOM      7  C   UNL     1       3.822   5.313  19.554  0.00  0.00    +0.000 C 
ATOM      8  C   UNL     1       2.926   5.656  18.383  0.00  0.00    +0.000 C 
ATOM      9  C   UNL     1       2.536   7.130  18.286  0.00  0.00    +0.000 C 
ATOM     10  C   UNL     1       3.919   5.287  17.261  0.00  0.00    +0.000 C 
ATOM     11  N   UNL     1       4.394   3.967  17.686  0.00  0.00    +0.000 NA
ATOM     12  C   UNL     1       1.671   4.710  18.410  0.00  0.00    +0.000 C 
ENDBRANCH   1  11
BRANCH   1  13
ATOM     13  C   UNL     1       6.785   4.739  17.427  0.00  0.00    +0.000 C 
BRANCH  13  14
ATOM     14  O   UNL     1       8.096   4.178  17.591  0.00  0.00    +0.000 OA
ATOM     15  H   UNL     1       8.184   3.931  18.529  0.00  0.00    +0.000 HD
ENDBRANCH  13  14
BRANCH  13  16
ATOM     16  C   UNL     1       6.745   5.772  16.289  0.00  0.00    +0.000 C 
BRANCH  16  17
ATOM     17  O   UNL     1       7.712   5.443  15.291  0.00  0.00    +0.000 OA
BRANCH  17  18
ATOM     18  C   UNL     1       7.195   4.847  14.171  0.00  0.00    +0.000 A 
ATOM     19  C   UNL     1       7.860   5.155  12.985  0.00  0.00    +0.000 A 
ATOM     20  C   UNL     1       7.401   4.647  11.770  0.00  0.00    +0.000 A 
ATOM     21  C   UNL     1       6.288   3.810  11.741  0.00  0.00    +0.000 A 
ATOM     22  C   UNL     1       5.649   3.459  12.928  0.00  0.00    +0.000 A 
ATOM     23  C   UNL     1       6.106   3.969  14.143  0.00  0.00    +0.000 A 
ENDBRANCH  17  18
ENDBRANCH  16  17
ENDBRANCH  13  16
ENDBRANCH   1  13
TORSDOF 6
ENDMDL
MODEL 6
REMARK VINA RESULT:      -7.8      0.898      1.016
REMARK  Name = 
REMARK  9 active torsions:
REMARK  status: ('A' for Active; 'I' for Inactive)
REMARK    1  A    between atoms: C_1  and  C_2
REMARK    2  A    between atoms: C_2  and  C_3
REMARK    3  A    between atoms: C_7  and  C_8
REMARK    4  A    between atoms: N_10  and  C_11
REMARK    5  A    between atoms: C_11  and  C_12
REMARK    6  A    between atoms: C_12  and  O_13
REMARK    7  A    between atoms: C_12  and  C_14
REMARK    8  A    between atoms: C_14  and  O_15
REMARK    9  A    between atoms: O_15  and  C_16
REMARK                            x       y       z     vdW  Elec       q    Type
REMARK                         _______ _______ _______ _____ _____    ______ ____
ROOT
ATOM      1  C   UNL     1       6.037   4.268  18.405  0.00  0.00    +0.000 C 
ENDROOT
BRANCH   1  11
ATOM      2  C   UNL     1       0.755   2.357  18.646  0.00  0.00    +0.000 C 
ATOM      3  C   UNL     1       1.512   3.601  19.178  0.00  0.00    +0.000 C 
ATOM      4  C   UNL     1       0.771   4.016  20.472  0.00  0.00    +0.000 C 
ATOM      5  C   UNL     1       2.927   3.169  19.565  0.00  0.00    +0.000 C 
ATOM      6  C   UNL     1       3.908   4.360  19.698  0.00  0.00    +0.000 C 
ATOM      7  C   UNL     1       3.214   5.725  19.805  0.00  0.00    +0.000 C 
ATOM      8  C   UNL     1       2.736   5.861  18.374  0.00  0.00    +0.000 C 
ATOM      9  C   UNL     1       2.198   7.244  18.008  0.00  0.00    +0.000 C 
ATOM     10  C   UNL     1       4.095   5.613  17.688  0.00  0.00    +0.000 C 
ATOM     11  N   UNL     1       4.577   4.411  18.375  0.00  0.00    +0.000 NA
ATOM     12  C   UNL     1       1.695   4.721  18.076  0.00  0.00    +0.000 C 
ENDBRANCH   1  11
BRANCH   1  13
ATOM     13  C   UNL     1       6.793   5.526  17.901  0.00  0.00    +0.000 C 
BRANCH  13  14
ATOM     14  O   UNL     1       7.787   5.932  18.854  0.00  0.00    +0.000 OA
ATOM     15  H   UNL     1       7.733   5.312  19.603  0.00  0.00    +0.000 HD
ENDBRANCH  13  14
BRANCH  13  16
ATOM     16  C   UNL     1       7.401   5.292  16.509  0.00  0.00    +0.000 C 
BRANCH  16  17
ATOM     17  O   UNL     1       6.541   4.458  15.731  0.00  0.00    +0.000 OA
BRANCH  17  18
ATOM     18  C   UNL     1       6.783   4.490  14.383  0.00  0.00    +0.000 A 
ATOM     19  C   UNL     1       6.073   3.549  13.639  0.00  0.00    +0.000 A 
ATOM     20  C   UNL     1       6.268   3.449  12.262  0.00  0.00    +0.000 A 
ATOM     21  C   UNL     1       7.158   4.309  11.620  0.00  0.00    +0.000 A 
ATOM     22  C   UNL     1       7.833   5.284  12.350  0.00  0.00    +0.000 A 
ATOM     23  C   UNL     1       7.641   5.381  13.729  0.00  0.00    +0.000 A 
ENDBRANCH  17  18
ENDBRANCH  16  17
ENDBRANCH  13  16
ENDBRANCH   1  13
TORSDOF 6
ENDMDL
MODEL 7
REMARK VINA RESULT:      -7.8      1.248      2.399
REMARK  Name = 
REMARK  9 active torsions:
REMARK  status: ('A' for Active; 'I' for Inactive)
REMARK    1  A    between atoms: C_1  and  C_2
REMARK    2  A    between atoms: C_2  and  C_3
REMARK    3  A    between atoms: C_7  and  C_8
REMARK    4  A    between atoms: N_10  and  C_11
REMARK    5  A    between atoms: C_11  and  C_12
REMARK    6  A    between atoms: C_12  and  O_13
REMARK    7  A    between atoms: C_12  and  C_14
REMARK    8  A    between atoms: C_14  and  O_15
REMARK    9  A    between atoms: O_15  and  C_16
REMARK                            x       y       z     vdW  Elec       q    Type
REMARK                         _______ _______ _______ _____ _____    ______ ____
ROOT
ATOM      1  C   UNL     1       6.289   5.459  18.997  0.00  0.00    +0.000 C 
ENDROOT
BRANCH   1  11
ATOM      2  C   UNL     1       0.877   4.777  20.357  0.00  0.00    +0.000 C 
ATOM      3  C   UNL     1       1.811   4.272  19.227  0.00  0.00    +0.000 C 
ATOM      4  C   UNL     1       0.896   4.053  17.998  0.00  0.00    +0.000 C 
ATOM      5  C   UNL     1       2.795   5.392  18.886  0.00  0.00    +0.000 C 
ATOM      6  C   UNL     1       4.034   4.890  18.102  0.00  0.00    +0.000 C 
ATOM      7  C   UNL     1       3.856   3.493  17.493  0.00  0.00    +0.000 C 
ATOM      8  C   UNL     1       3.924   2.669  18.761  0.00  0.00    +0.000 C 
ATOM      9  C   UNL     1       4.038   1.161  18.540  0.00  0.00    +0.000 C 
ATOM     10  C   UNL     1       5.256   3.237  19.294  0.00  0.00    +0.000 C 
ATOM     11  N   UNL     1       5.055   4.683  19.159  0.00  0.00    +0.000 NA
ATOM     12  C   UNL     1       2.702   3.044  19.676  0.00  0.00    +0.000 C 
ENDBRANCH   1  11
BRANCH   1  13
ATOM     13  C   UNL     1       6.464   6.056  17.575  0.00  0.00    +0.000 C 
BRANCH  13  14
ATOM     14  O   UNL     1       7.204   7.285  17.632  0.00  0.00    +0.000 OA
ATOM     15  H   UNL     1       6.594   7.970  17.957  0.00  0.00    +0.000 HD
ENDBRANCH  13  14
BRANCH  13  16
ATOM     16  C   UNL     1       7.114   5.042  16.620  0.00  0.00    +0.000 C 
BRANCH  16  17
ATOM     17  O   UNL     1       7.465   5.679  15.390  0.00  0.00    +0.000 OA
BRANCH  17  18
ATOM     18  C   UNL     1       7.071   5.004  14.266  0.00  0.00    +0.000 A 
ATOM     19  C   UNL     1       5.905   4.255  14.411  0.00  0.00    +0.000 A 
ATOM     20  C   UNL     1       5.427   3.486  13.351  0.00  0.00    +0.000 A 
ATOM     21  C   UNL     1       6.103   3.483  12.132  0.00  0.00    +0.000 A 
ATOM     22  C   UNL     1       7.241   4.268  11.965  0.00  0.00    +0.000 A 
ATOM     23  C   UNL     1       7.722   5.035  13.027  0.00  0.00    +0.000 A 
ENDBRANCH  17  18
ENDBRANCH  16  17
ENDBRANCH  13  16
ENDBRANCH   1  13
TORSDOF 6
ENDMDL
MODEL 8
REMARK VINA RESULT:      -7.8      2.777      5.714
REMARK  Name = 
REMARK  9 active torsions:
REMARK  status: ('A' for Active; 'I' for Inactive)
REMARK    1  A    between atoms: C_1  and  C_2
REMARK    2  A    between atoms: C_2  and  C_3
REMARK    3  A    between atoms: C_7  and  C_8
REMARK    4  A    between atoms: N_10  and  C_11
REMARK    5  A    between atoms: C_11  and  C_12
REMARK    6  A    between atoms: C_12  and  O_13
REMARK    7  A    between atoms: C_12  and  C_14
REMARK    8  A    between atoms: C_14  and  O_15
REMARK    9  A    between atoms: O_15  and  C_16
REMARK                            x       y       z     vdW  Elec       q    Type
REMARK                         _______ _______ _______ _____ _____    ______ ____
ROOT
ATOM      1  C   UNL     1       5.005   4.752  16.656  0.00  0.00    +0.000 C 
ENDROOT
BRANCH   1  11
ATOM      2  C   UNL     1       0.711   4.601  20.283  0.00  0.00    +0.000 C 
ATOM      3  C   UNL     1       1.604   3.551  19.573  0.00  0.00    +0.000 C 
ATOM      4  C   UNL     1       0.719   2.290  19.420  0.00  0.00    +0.000 C 
ATOM      5  C   UNL     1       1.928   4.070  18.172  0.00  0.00    +0.000 C 
ATOM      6  C   UNL     1       3.137   3.349  17.525  0.00  0.00    +0.000 C 
ATOM      7  C   UNL     1       3.516   2.033  18.218  0.00  0.00    +0.000 C 
ATOM      8  C   UNL     1       4.120   2.597  19.486  0.00  0.00    +0.000 C 
ATOM      9  C   UNL     1       4.861   1.578  20.351  0.00  0.00    +0.000 C 
ATOM     10  C   UNL     1       5.120   3.562  18.816  0.00  0.00    +0.000 C 
ATOM     11  N   UNL     1       4.281   4.244  17.827  0.00  0.00    +0.000 NA
ATOM     12  C   UNL     1       3.001   3.355  20.289  0.00  0.00    +0.000 C 
ENDBRANCH   1  11
BRANCH   1  13
ATOM     13  C   UNL     1       5.227   6.288  16.683  0.00  0.00    +0.000 C 
BRANCH  13  14
ATOM     14  O   UNL     1       4.974   6.857  15.390  0.00  0.00    +0.000 OA
ATOM     15  H   UNL     1       5.194   7.804  15.449  0.00  0.00    +0.000 HD
ENDBRANCH  13  14
BRANCH  13  16
ATOM     16  C   UNL     1       4.378   6.956  17.777  0.00  0.00    +0.000 C 
BRANCH  16  17
ATOM     17  O   UNL     1       3.232   7.581  17.197  0.00  0.00    +0.000 OA
BRANCH  17  18
ATOM     18  C   UNL     1       2.441   8.259  18.086  0.00  0.00    +0.000 A 
ATOM     19  C   UNL     1       2.309   7.651  19.333  0.00  0.00    +0.000 A 
ATOM     20  C   UNL     1       1.491   8.220  20.309  0.00  0.00    +0.000 A 
ATOM     21  C   UNL     1       0.821   9.414  20.047  0.00  0.00    +0.000 A 
ATOM     22  C   UNL     1       0.989  10.052  18.821  0.00  0.00    +0.000 A 
ATOM     23  C   UNL     1       1.804   9.481  17.843  0.00  0.00    +0.000 A 
ENDBRANCH  17  18
ENDBRANCH  16  17
ENDBRANCH  13  16
ENDBRANCH   1  13
TORSDOF 6
ENDMDL
MODEL 9
REMARK VINA RESULT:      -7.8      2.769      5.843
REMARK  Name = 
REMARK  9 active torsions:
REMARK  status: ('A' for Active; 'I' for Inactive)
REMARK    1  A    between atoms: C_1  and  C_2
REMARK    2  A    between atoms: C_2  and  C_3
REMARK    3  A    between atoms: C_7  and  C_8
REMARK    4  A    between atoms: N_10  and  C_11
REMARK    5  A    between atoms: C_11  and  C_12
REMARK    6  A    between atoms: C_12  and  O_13
REMARK    7  A    between atoms: C_12  and  C_14
REMARK    8  A    between atoms: C_14  and  O_15
REMARK    9  A    between atoms: O_15  and  C_16
REMARK                            x       y       z     vdW  Elec       q    Type
REMARK                         _______ _______ _______ _____ _____    ______ ____
ROOT
ATOM      1  C   UNL     1       2.805   6.644  18.683  0.00  0.00    +0.000 C 
ENDROOT
BRANCH   1  11
ATOM      2  C   UNL     1       5.723   3.231  15.300  0.00  0.00    +0.000 C 
ATOM      3  C   UNL     1       6.001   4.564  16.043  0.00  0.00    +0.000 C 
ATOM      4  C   UNL     1       7.049   5.309  15.182  0.00  0.00    +0.000 C 
ATOM      5  C   UNL     1       4.715   5.390  16.036  0.00  0.00    +0.000 C 
ATOM      6  C   UNL     1       4.719   6.524  17.092  0.00  0.00    +0.000 C 
ATOM      7  C   UNL     1       6.113   6.844  17.651  0.00  0.00    +0.000 C 
ATOM      8  C   UNL     1       6.317   5.610  18.504  0.00  0.00    +0.000 C 
ATOM      9  C   UNL     1       7.519   5.674  19.445  0.00  0.00    +0.000 C 
ATOM     10  C   UNL     1       5.001   5.705  19.305  0.00  0.00    +0.000 C 
ATOM     11  N   UNL     1       4.008   5.927  18.249  0.00  0.00    +0.000 NA
ATOM     12  C   UNL     1       6.361   4.348  17.568  0.00  0.00    +0.000 C 
ENDBRANCH   1  11
BRANCH   1  13
ATOM     13  C   UNL     1       2.435   6.392  20.169  0.00  0.00    +0.000 C 
BRANCH  13  14
ATOM     14  O   UNL     1       2.166   7.632  20.839  0.00  0.00    +0.000 OA
ATOM     15  H   UNL     1       1.969   7.417  21.769  0.00  0.00    +0.000 HD
ENDBRANCH  13  14
BRANCH  13  16
ATOM     16  C   UNL     1       1.258   5.411  20.293  0.00  0.00    +0.000 C 
BRANCH  16  17
ATOM     17  O   UNL     1       1.715   4.154  20.794  0.00  0.00    +0.000 OA
BRANCH  17  18
ATOM     18  C   UNL     1       2.272   3.332  19.850  0.00  0.00    +0.000 A 
ATOM     19  C   UNL     1       3.446   2.695  20.249  0.00  0.00    +0.000 A 
ATOM     20  C   UNL     1       4.133   1.868  19.361  0.00  0.00    +0.000 A 
ATOM     21  C   UNL     1       3.634   1.658  18.076  0.00  0.00    +0.000 A 
ATOM     22  C   UNL     1       2.436   2.252  17.689  0.00  0.00    +0.000 A 
ATOM     23  C   UNL     1       1.749   3.082  18.576  0.00  0.00    +0.000 A 
ENDBRANCH  17  18
ENDBRANCH  16  17
ENDBRANCH  13  16
ENDBRANCH   1  13
TORSDOF 6
ENDMDL
