MODEL 1
REMARK VINA RESULT:      -7.8      0.000      0.000
REMARK  Name = 
REMARK  9 active torsions:
REMARK  status: ('A' for Active; 'I' for Inactive)
REMARK    1  A    between atoms: C_2  and  C_3
REMARK    2  A    between atoms: C_3  and  N_4
REMARK    3  A    between atoms: N_4  and  C_5
REMARK    4  A    between atoms: C_5  and  C_6
REMARK    5  A    between atoms: C_8  and  C_9
REMARK    6  A    between atoms: C_8  and  C_10
REMARK    7  A    between atoms: C_15  and  C_16
REMARK    8  A    between atoms: C_21  and  O_22
REMARK    9  A    between atoms: O_22  and  C_23
REMARK                            x       y       z     vdW  Elec       q    Type
REMARK                         _______ _______ _______ _____ _____    ______ ____
ROOT
ATOM      1  C   UNL     1       0.612   9.898  20.805  0.00  0.00    +0.000 C 
ATOM      2  C   UNL     1       0.251  11.086  20.283  0.00  0.00    +0.000 C 
ATOM      3  C   UNL     1       0.679  11.619  18.950  0.00  0.00    +0.000 C 
ATOM      4  C   UNL     1       1.780  12.672  19.168  0.00  0.00    +0.000 C 
ATOM      5  C   UNL     1      -0.531  12.263  18.260  0.00  0.00    +0.000 C 
ATOM      6  N   UNL     1       1.178  10.564  18.073  0.00  0.00    +0.000 N 
ATOM      7  C   UNL     1       1.627   9.353  18.605  0.00  0.00    +0.000 A 
ATOM      8  C   UNL     1       2.190   8.411  17.736  0.00  0.00    +0.000 A 
ATOM      9  C   UNL     1       2.472   7.103  18.157  0.00  0.00    +0.000 A 
ATOM     10  C   UNL     1       2.248   6.692  19.476  0.00  0.00    +0.000 A 
ATOM     11  C   UNL     1       1.770   7.690  20.359  0.00  0.00    +0.000 A 
ATOM     12  C   UNL     1       1.372   8.973  19.932  0.00  0.00    +0.000 A 
ATOM     13  H   UNL     1       1.727  10.890  17.285  0.00  0.00    +0.000 HD
ENDROOT
BRANCH  10  14
ATOM     14  C   UNL     1       2.365   5.263  19.925  0.00  0.00    +0.000 A 
ATOM     15  C   UNL     1       1.197   4.620  20.414  0.00  0.00    +0.000 A 
ATOM     16  C   UNL     1       1.178   3.291  20.841  0.00  0.00    +0.000 A 
ATOM     17  C   UNL     1       2.338   2.540  20.784  0.00  0.00    +0.000 A 
ATOM     18  C   UNL     1       3.504   3.119  20.290  0.00  0.00    +0.000 A 
ATOM     19  C   UNL     1       3.530   4.458  19.845  0.00  0.00    +0.000 A 
BRANCH  19  20
ATOM     20  O   UNL     1       4.693   5.019  19.368  0.00  0.00    +0.000 OA
ATOM     21  C   UNL     1       5.187   4.477  18.139  0.00  0.00    +0.000 C 
ENDBRANCH  19  20
ENDBRANCH  10  14
BRANCH   1  22
ATOM     22  C   UNL     1       0.195   9.542  22.213  0.00  0.00    +0.000 C 
BRANCH  22  23
ATOM     23  N   UNL     1      -0.093  10.715  23.049  0.00  0.00    +0.000 NA
ATOM     24  H   UNL     1       0.326  10.562  23.964  0.00  0.00    +0.000 HD
BRANCH  23  25
ATOM     25  C   UNL     1      -1.532  10.896  23.243  0.00  0.00    +0.000 C 
BRANCH  25  27
ATOM     26  C   UNL     1      -1.045  13.334  22.951  0.00  0.00    +0.000 C 
ATOM     27  C   UNL     1      -1.918  12.324  23.039  0.00  0.00    +0.000 C 
ENDBRANCH  25  27
ENDBRANCH  23  25
ENDBRANCH  22  23
ENDBRANCH   1  22
TORSDOF 6
ENDMDL
MODEL 2
REMARK VINA RESULT:      -7.4      2.710      7.183
REMARK  Name = 
REMARK  9 active torsions:
REMARK  status: ('A' for Active; 'I' for Inactive)
REMARK    1  A    between atoms: C_2  and  C_3
REMARK    2  A    between atoms: C_3  and  N_4
REMARK    3  A    between atoms: N_4  and  C_5
REMARK    4  A    between atoms: C_5  and  C_6
REMARK    5  A    between atoms: C_8  and  C_9
REMARK    6  A    between atoms: C_8  and  C_10
REMARK    7  A    between atoms: C_15  and  C_16
REMARK    8  A    between atoms: C_21  and  O_22
REMARK    9  A    between atoms: O_22  and  C_23
REMARK                            x       y       z     vdW  Elec       q    Type
REMARK                         _______ _______ _______ _____ _____    ______ ____
ROOT
ATOM      1  C   UNL     1       3.245   5.038  19.894  0.00  0.00    +0.000 C 
ATOM      2  C   UNL     1       4.199   4.436  19.158  0.00  0.00    +0.000 C 
ATOM      3  C   UNL     1       4.666   4.876  17.805  0.00  0.00    +0.000 C 
ATOM      4  C   UNL     1       4.041   3.957  16.741  0.00  0.00    +0.000 C 
ATOM      5  C   UNL     1       6.196   4.777  17.749  0.00  0.00    +0.000 C 
ATOM      6  N   UNL     1       4.303   6.263  17.525  0.00  0.00    +0.000 N 
ATOM      7  C   UNL     1       3.265   6.880  18.228  0.00  0.00    +0.000 A 
ATOM      8  C   UNL     1       2.885   8.175  17.857  0.00  0.00    +0.000 A 
ATOM      9  C   UNL     1       2.000   8.932  18.639  0.00  0.00    +0.000 A 
ATOM     10  C   UNL     1       1.418   8.410  19.800  0.00  0.00    +0.000 A 
ATOM     11  C   UNL     1       1.741   7.065  20.100  0.00  0.00    +0.000 A 
ATOM     12  C   UNL     1       2.715   6.328  19.396  0.00  0.00    +0.000 A 
ATOM     13  H   UNL     1       4.343   6.524  16.547  0.00  0.00    +0.000 HD
ENDROOT
BRANCH  10  14
ATOM     14  C   UNL     1       0.611   9.237  20.760  0.00  0.00    +0.000 A 
ATOM     15  C   UNL     1       0.679   8.913  22.141  0.00  0.00    +0.000 A 
ATOM     16  C   UNL     1      -0.011   9.620  23.127  0.00  0.00    +0.000 A 
ATOM     17  C   UNL     1      -0.794  10.702  22.769  0.00  0.00    +0.000 A 
ATOM     18  C   UNL     1      -0.875  11.074  21.430  0.00  0.00    +0.000 A 
ATOM     19  C   UNL     1      -0.172  10.372  20.427  0.00  0.00    +0.000 A 
BRANCH  19  20
ATOM     20  O   UNL     1      -0.269  10.747  19.105  0.00  0.00    +0.000 OA
ATOM     21  C   UNL     1       0.027  12.118  18.825  0.00  0.00    +0.000 C 
ENDBRANCH  19  20
ENDBRANCH  10  14
BRANCH   1  22
ATOM     22  C   UNL     1       2.797   4.412  21.194  0.00  0.00    +0.000 C 
BRANCH  22  23
ATOM     23  N   UNL     1       2.076   3.145  21.012  0.00  0.00    +0.000 NA
ATOM     24  H   UNL     1       2.641   2.542  20.415  0.00  0.00    +0.000 HD
BRANCH  23  25
ATOM     25  C   UNL     1       0.789   3.349  20.347  0.00  0.00    +0.000 C 
BRANCH  25  27
ATOM     26  C   UNL     1       1.727   1.834  18.589  0.00  0.00    +0.000 C 
ATOM     27  C   UNL     1       0.745   2.620  19.044  0.00  0.00    +0.000 C 
ENDBRANCH  25  27
ENDBRANCH  23  25
ENDBRANCH  22  23
ENDBRANCH   1  22
TORSDOF 6
ENDMDL
MODEL 3
REMARK VINA RESULT:      -7.3      2.915      7.860
REMARK  Name = 
REMARK  9 active torsions:
REMARK  status: ('A' for Active; 'I' for Inactive)
REMARK    1  A    between atoms: C_2  and  C_3
REMARK    2  A    between atoms: C_3  and  N_4
REMARK    3  A    between atoms: N_4  and  C_5
REMARK    4  A    between atoms: C_5  and  C_6
REMARK    5  A    between atoms: C_8  and  C_9
REMARK    6  A    between atoms: C_8  and  C_10
REMARK    7  A    between atoms: C_15  and  C_16
REMARK    8  A    between atoms: C_21  and  O_22
REMARK    9  A    between atoms: O_22  and  C_23
REMARK                            x       y       z     vdW  Elec       q    Type
REMARK                         _______ _______ _______ _____ _____    ______ ____
ROOT
ATOM      1  C   UNL     1       3.864   5.458  17.934  0.00  0.00    +0.000 C 
ATOM      2  C   UNL     1       4.026   4.128  17.802  0.00  0.00    +0.000 C 
ATOM      3  C   UNL     1       3.535   3.088  18.762  0.00  0.00    +0.000 C 
ATOM      4  C   UNL     1       4.722   2.593  19.606  0.00  0.00    +0.000 C 
ATOM      5  C   UNL     1       2.934   1.921  17.968  0.00  0.00    +0.000 C 
ATOM      6  N   UNL     1       2.492   3.606  19.643  0.00  0.00    +0.000 N 
ATOM      7  C   UNL     1       2.357   4.981  19.851  0.00  0.00    +0.000 A 
ATOM      8  C   UNL     1       1.410   5.426  20.780  0.00  0.00    +0.000 A 
ATOM      9  C   UNL     1       1.075   6.783  20.893  0.00  0.00    +0.000 A 
ATOM     10  C   UNL     1       1.706   7.761  20.116  0.00  0.00    +0.000 A 
ATOM     11  C   UNL     1       2.729   7.298  19.254  0.00  0.00    +0.000 A 
ATOM     12  C   UNL     1       3.000   5.931  19.041  0.00  0.00    +0.000 A 
ATOM     13  H   UNL     1       2.323   3.051  20.474  0.00  0.00    +0.000 HD
ENDROOT
BRANCH  10  14
ATOM     14  C   UNL     1       1.259   9.195  20.074  0.00  0.00    +0.000 A 
ATOM     15  C   UNL     1       1.018   9.781  18.803  0.00  0.00    +0.000 A 
ATOM     16  C   UNL     1       0.583  11.097  18.639  0.00  0.00    +0.000 A 
ATOM     17  C   UNL     1       0.353  11.884  19.753  0.00  0.00    +0.000 A 
ATOM     18  C   UNL     1       0.552  11.347  21.021  0.00  0.00    +0.000 A 
ATOM     19  C   UNL     1       0.981  10.014  21.198  0.00  0.00    +0.000 A 
BRANCH  19  20
ATOM     20  O   UNL     1       1.182   9.500  22.460  0.00  0.00    +0.000 OA
ATOM     21  C   UNL     1       0.039   9.500  23.320  0.00  0.00    +0.000 C 
ENDBRANCH  19  20
ENDBRANCH  10  14
BRANCH   1  22
ATOM     22  C   UNL     1       4.515   6.394  16.943  0.00  0.00    +0.000 C 
BRANCH  22  23
ATOM     23  N   UNL     1       5.949   6.138  16.757  0.00  0.00    +0.000 NA
ATOM     24  H   UNL     1       6.198   5.315  17.303  0.00  0.00    +0.000 HD
BRANCH  23  25
ATOM     25  C   UNL     1       6.762   7.255  17.239  0.00  0.00    +0.000 C 
BRANCH  25  27
ATOM     26  C   UNL     1       7.589   5.717  19.032  0.00  0.00    +0.000 C 
ATOM     27  C   UNL     1       7.758   6.788  18.249  0.00  0.00    +0.000 C 
ENDBRANCH  25  27
ENDBRANCH  23  25
ENDBRANCH  22  23
ENDBRANCH   1  22
TORSDOF 6
ENDMDL
MODEL 4
REMARK VINA RESULT:      -7.3      2.840      7.256
REMARK  Name = 
REMARK  9 active torsions:
REMARK  status: ('A' for Active; 'I' for Inactive)
REMARK    1  A    between atoms: C_2  and  C_3
REMARK    2  A    between atoms: C_3  and  N_4
REMARK    3  A    between atoms: N_4  and  C_5
REMARK    4  A    between atoms: C_5  and  C_6
REMARK    5  A    between atoms: C_8  and  C_9
REMARK    6  A    between atoms: C_8  and  C_10
REMARK    7  A    between atoms: C_15  and  C_16
REMARK    8  A    between atoms: C_21  and  O_22
REMARK    9  A    between atoms: O_22  and  C_23
REMARK                            x       y       z     vdW  Elec       q    Type
REMARK                         _______ _______ _______ _____ _____    ______ ____
ROOT
ATOM      1  C   UNL     1       3.057   5.402  19.817  0.00  0.00    +0.000 C 
ATOM      2  C   UNL     1       4.095   4.687  19.344  0.00  0.00    +0.000 C 
ATOM      3  C   UNL     1       4.817   4.943  18.057  0.00  0.00    +0.000 C 
ATOM      4  C   UNL     1       4.347   3.917  17.011  0.00  0.00    +0.000 C 
ATOM      5  C   UNL     1       6.326   4.793  18.294  0.00  0.00    +0.000 C 
ATOM      6  N   UNL     1       4.582   6.294  17.556  0.00  0.00    +0.000 N 
ATOM      7  C   UNL     1       3.467   7.023  17.980  0.00  0.00    +0.000 A 
ATOM      8  C   UNL     1       3.227   8.272  17.398  0.00  0.00    +0.000 A 
ATOM      9  C   UNL     1       2.256   9.145  17.911  0.00  0.00    +0.000 A 
ATOM     10  C   UNL     1       1.450   8.789  18.998  0.00  0.00    +0.000 A 
ATOM     11  C   UNL     1       1.645   7.482  19.507  0.00  0.00    +0.000 A 
ATOM     12  C   UNL     1       2.690   6.636  19.083  0.00  0.00    +0.000 A 
ATOM     13  H   UNL     1       4.809   6.431  16.578  0.00  0.00    +0.000 HD
ENDROOT
BRANCH  10  14
ATOM     14  C   UNL     1       0.528   9.751  19.691  0.00  0.00    +0.000 A 
ATOM     15  C   UNL     1       0.819  10.105  21.035  0.00  0.00    +0.000 A 
ATOM     16  C   UNL     1       0.047  11.002  21.774  0.00  0.00    +0.000 A 
ATOM     17  C   UNL     1      -1.054  11.599  21.187  0.00  0.00    +0.000 A 
ATOM     18  C   UNL     1      -1.367  11.303  19.863  0.00  0.00    +0.000 A 
ATOM     19  C   UNL     1      -0.585  10.406  19.104  0.00  0.00    +0.000 A 
BRANCH  19  20
ATOM     20  O   UNL     1      -0.913  10.116  17.798  0.00  0.00    +0.000 OA
ATOM     21  C   UNL     1      -2.176  10.618  17.349  0.00  0.00    +0.000 C 
ENDBRANCH  19  20
ENDBRANCH  10  14
BRANCH   1  22
ATOM     22  C   UNL     1       2.352   4.956  21.076  0.00  0.00    +0.000 C 
BRANCH  22  23
ATOM     23  N   UNL     1       2.521   3.524  21.362  0.00  0.00    +0.000 NA
ATOM     24  H   UNL     1       3.185   3.144  20.689  0.00  0.00    +0.000 HD
BRANCH  23  25
ATOM     25  C   UNL     1       1.263   2.793  21.207  0.00  0.00    +0.000 C 
BRANCH  25  27
ATOM     26  C   UNL     1       1.140   2.302  18.755  0.00  0.00    +0.000 C 
ATOM     27  C   UNL     1       0.712   2.973  19.831  0.00  0.00    +0.000 C 
ENDBRANCH  25  27
ENDBRANCH  23  25
ENDBRANCH  22  23
ENDBRANCH   1  22
TORSDOF 6
ENDMDL
MODEL 5
REMARK VINA RESULT:      -7.0      3.079      8.400
REMARK  Name = 
REMARK  9 active torsions:
REMARK  status: ('A' for Active; 'I' for Inactive)
REMARK    1  A    between atoms: C_2  and  C_3
REMARK    2  A    between atoms: C_3  and  N_4
REMARK    3  A    between atoms: N_4  and  C_5
REMARK    4  A    between atoms: C_5  and  C_6
REMARK    5  A    between atoms: C_8  and  C_9
REMARK    6  A    between atoms: C_8  and  C_10
REMARK    7  A    between atoms: C_15  and  C_16
REMARK    8  A    between atoms: C_21  and  O_22
REMARK    9  A    between atoms: O_22  and  C_23
REMARK                            x       y       z     vdW  Elec       q    Type
REMARK                         _______ _______ _______ _____ _____    ______ ____
ROOT
ATOM      1  C   UNL     1       4.635   4.697  18.734  0.00  0.00    +0.000 C 
ATOM      2  C   UNL     1       4.804   3.364  18.652  0.00  0.00    +0.000 C 
ATOM      3  C   UNL     1       4.006   2.336  19.394  0.00  0.00    +0.000 C 
ATOM      4  C   UNL     1       4.844   1.815  20.574  0.00  0.00    +0.000 C 
ATOM      5  C   UNL     1       3.670   1.182  18.441  0.00  0.00    +0.000 C 
ATOM      6  N   UNL     1       2.744   2.877  19.893  0.00  0.00    +0.000 N 
ATOM      7  C   UNL     1       2.579   4.255  20.055  0.00  0.00    +0.000 A 
ATOM      8  C   UNL     1       1.391   4.721  20.630  0.00  0.00    +0.000 A 
ATOM      9  C   UNL     1       1.066   6.085  20.637  0.00  0.00    +0.000 A 
ATOM     10  C   UNL     1       1.935   7.049  20.113  0.00  0.00    +0.000 A 
ATOM     11  C   UNL     1       3.173   6.563  19.626  0.00  0.00    +0.000 A 
ATOM     12  C   UNL     1       3.469   5.190  19.503  0.00  0.00    +0.000 A 
ATOM     13  H   UNL     1       2.303   2.326  20.620  0.00  0.00    +0.000 HD
ENDROOT
BRANCH  10  14
ATOM     14  C   UNL     1       1.556   8.492  19.937  0.00  0.00    +0.000 A 
ATOM     15  C   UNL     1       1.562   9.028  18.622  0.00  0.00    +0.000 A 
ATOM     16  C   UNL     1       1.211  10.348  18.333  0.00  0.00    +0.000 A 
ATOM     17  C   UNL     1       0.822  11.190  19.358  0.00  0.00    +0.000 A 
ATOM     18  C   UNL     1       0.778  10.705  20.662  0.00  0.00    +0.000 A 
ATOM     19  C   UNL     1       1.120   9.369  20.963  0.00  0.00    +0.000 A 
BRANCH  19  20
ATOM     20  O   UNL     1       1.079   8.906  22.259  0.00  0.00    +0.000 OA
ATOM     21  C   UNL     1       0.012   9.411  23.066  0.00  0.00    +0.000 C 
ENDBRANCH  19  20
ENDBRANCH  10  14
BRANCH   1  22
ATOM     22  C   UNL     1       5.592   5.618  18.013  0.00  0.00    +0.000 C 
BRANCH  22  23
ATOM     23  N   UNL     1       6.737   4.916  17.418  0.00  0.00    +0.000 NA
ATOM     24  H   UNL     1       7.588   5.285  17.840  0.00  0.00    +0.000 HD
BRANCH  23  25
ATOM     25  C   UNL     1       6.819   5.149  15.975  0.00  0.00    +0.000 C 
BRANCH  25  27
ATOM     26  C   UNL     1       6.068   3.936  13.918  0.00  0.00    +0.000 C 
ATOM     27  C   UNL     1       5.971   4.170  15.232  0.00  0.00    +0.000 C 
ENDBRANCH  25  27
ENDBRANCH  23  25
ENDBRANCH  22  23
ENDBRANCH   1  22
TORSDOF 6
ENDMDL
MODEL 6
REMARK VINA RESULT:      -7.0      1.898      4.696
REMARK  Name = 
REMARK  9 active torsions:
REMARK  status: ('A' for Active; 'I' for Inactive)
REMARK    1  A    between atoms: C_2  and  C_3
REMARK    2  A    between atoms: C_3  and  N_4
REMARK    3  A    between atoms: N_4  and  C_5
REMARK    4  A    between atoms: C_5  and  C_6
REMARK    5  A    between atoms: C_8  and  C_9
REMARK    6  A    between atoms: C_8  and  C_10
REMARK    7  A    between atoms: C_15  and  C_16
REMARK    8  A    between atoms: C_21  and  O_22
REMARK    9  A    between atoms: O_22  and  C_23
REMARK                            x       y       z     vdW  Elec       q    Type
REMARK                         _______ _______ _______ _____ _____    ______ ____
ROOT
ATOM      1  C   UNL     1      -0.773  12.003  19.962  0.00  0.00    +0.000 C 
ATOM      2  C   UNL     1      -1.285  12.924  20.800  0.00  0.00    +0.000 C 
ATOM      3  C   UNL     1      -1.510  12.737  22.270  0.00  0.00    +0.000 C 
ATOM      4  C   UNL     1      -3.008  12.485  22.514  0.00  0.00    +0.000 C 
ATOM      5  C   UNL     1      -1.066  14.008  23.007  0.00  0.00    +0.000 C 
ATOM      6  N   UNL     1      -0.733  11.623  22.805  0.00  0.00    +0.000 N 
ATOM      7  C   UNL     1      -0.258  10.618  21.958  0.00  0.00    +0.000 A 
ATOM      8  C   UNL     1       0.394   9.518  22.528  0.00  0.00    +0.000 A 
ATOM      9  C   UNL     1       1.074   8.580  21.738  0.00  0.00    +0.000 A 
ATOM     10  C   UNL     1       1.092   8.672  20.342  0.00  0.00    +0.000 A 
ATOM     11  C   UNL     1       0.344   9.737  19.785  0.00  0.00    +0.000 A 
ATOM     12  C   UNL     1      -0.247  10.754  20.561  0.00  0.00    +0.000 A 
ATOM     13  H   UNL     1      -1.047  11.280  23.706  0.00  0.00    +0.000 HD
ENDROOT
BRANCH  10  14
ATOM     14  C   UNL     1       1.950   7.799  19.470  0.00  0.00    +0.000 A 
ATOM     15  C   UNL     1       2.567   8.391  18.336  0.00  0.00    +0.000 A 
ATOM     16  C   UNL     1       3.399   7.686  17.464  0.00  0.00    +0.000 A 
ATOM     17  C   UNL     1       3.661   6.349  17.702  0.00  0.00    +0.000 A 
ATOM     18  C   UNL     1       3.098   5.730  18.815  0.00  0.00    +0.000 A 
ATOM     19  C   UNL     1       2.265   6.437  19.708  0.00  0.00    +0.000 A 
BRANCH  19  20
ATOM     20  O   UNL     1       1.708   5.808  20.800  0.00  0.00    +0.000 OA
ATOM     21  C   UNL     1       2.188   4.488  21.068  0.00  0.00    +0.000 C 
ENDBRANCH  19  20
ENDBRANCH  10  14
BRANCH   1  22
ATOM     22  C   UNL     1      -0.711  12.292  18.480  0.00  0.00    +0.000 C 
BRANCH  22  23
ATOM     23  N   UNL     1      -2.011  12.164  17.807  0.00  0.00    +0.000 NA
ATOM     24  H   UNL     1      -2.742  12.291  18.505  0.00  0.00    +0.000 HD
BRANCH  23  25
ATOM     25  C   UNL     1      -2.183  10.836  17.219  0.00  0.00    +0.000 C 
BRANCH  25  27
ATOM     26  C   UNL     1      -2.950  10.298  14.897  0.00  0.00    +0.000 C 
ATOM     27  C   UNL     1      -3.153  10.882  16.084  0.00  0.00    +0.000 C 
ENDBRANCH  25  27
ENDBRANCH  23  25
ENDBRANCH  22  23
ENDBRANCH   1  22
TORSDOF 6
ENDMDL
MODEL 7
REMARK VINA RESULT:      -7.0      2.227      4.622
REMARK  Name = 
REMARK  9 active torsions:
REMARK  status: ('A' for Active; 'I' for Inactive)
REMARK    1  A    between atoms: C_2  and  C_3
REMARK    2  A    between atoms: C_3  and  N_4
REMARK    3  A    between atoms: N_4  and  C_5
REMARK    4  A    between atoms: C_5  and  C_6
REMARK    5  A    between atoms: C_8  and  C_9
REMARK    6  A    between atoms: C_8  and  C_10
REMARK    7  A    between atoms: C_15  and  C_16
REMARK    8  A    between atoms: C_21  and  O_22
REMARK    9  A    between atoms: O_22  and  C_23
REMARK                            x       y       z     vdW  Elec       q    Type
REMARK                         _______ _______ _______ _____ _____    ______ ____
ROOT
ATOM      1  C   UNL     1       1.868   8.799  18.925  0.00  0.00    +0.000 C 
ATOM      2  C   UNL     1       1.191   9.235  20.005  0.00  0.00    +0.000 C 
ATOM      3  C   UNL     1       0.825   8.406  21.199  0.00  0.00    +0.000 C 
ATOM      4  C   UNL     1      -0.663   8.030  21.103  0.00  0.00    +0.000 C 
ATOM      5  C   UNL     1       1.076   9.228  22.470  0.00  0.00    +0.000 C 
ATOM      6  N   UNL     1       1.632   7.193  21.291  0.00  0.00    +0.000 N 
ATOM      7  C   UNL     1       2.280   6.685  20.163  0.00  0.00    +0.000 A 
ATOM      8  C   UNL     1       2.958   5.466  20.275  0.00  0.00    +0.000 A 
ATOM      9  C   UNL     1       3.798   4.997  19.254  0.00  0.00    +0.000 A 
ATOM     10  C   UNL     1       3.960   5.702  18.056  0.00  0.00    +0.000 A 
ATOM     11  C   UNL     1       3.187   6.882  17.926  0.00  0.00    +0.000 A 
ATOM     12  C   UNL     1       2.431   7.429  18.982  0.00  0.00    +0.000 A 
ATOM     13  H   UNL     1       1.253   6.476  21.899  0.00  0.00    +0.000 HD
ENDROOT
BRANCH  10  14
ATOM     14  C   UNL     1       4.978   5.334  17.014  0.00  0.00    +0.000 A 
ATOM     15  C   UNL     1       4.558   4.521  15.929  0.00  0.00    +0.000 A 
ATOM     16  C   UNL     1       5.408   4.131  14.893  0.00  0.00    +0.000 A 
ATOM     17  C   UNL     1       6.725   4.555  14.894  0.00  0.00    +0.000 A 
ATOM     18  C   UNL     1       7.178   5.373  15.924  0.00  0.00    +0.000 A 
ATOM     19  C   UNL     1       6.323   5.783  16.970  0.00  0.00    +0.000 A 
BRANCH  19  20
ATOM     20  O   UNL     1       6.789   6.586  17.988  0.00  0.00    +0.000 OA
ATOM     21  C   UNL     1       7.662   5.953  18.928  0.00  0.00    +0.000 C 
ENDBRANCH  19  20
ENDBRANCH  10  14
BRANCH   1  22
ATOM     22  C   UNL     1       2.066   9.720  17.744  0.00  0.00    +0.000 C 
BRANCH  22  23
ATOM     23  N   UNL     1       1.440  11.037  17.922  0.00  0.00    +0.000 NA
ATOM     24  H   UNL     1       0.943  11.269  17.064  0.00  0.00    +0.000 HD
BRANCH  23  25
ATOM     25  C   UNL     1       2.439  12.080  18.154  0.00  0.00    +0.000 C 
BRANCH  25  27
ATOM     26  C   UNL     1       1.943  12.969  20.441  0.00  0.00    +0.000 C 
ATOM     27  C   UNL     1       1.922  13.105  19.110  0.00  0.00    +0.000 C 
ENDBRANCH  25  27
ENDBRANCH  23  25
ENDBRANCH  22  23
ENDBRANCH   1  22
TORSDOF 6
ENDMDL
MODEL 8
REMARK VINA RESULT:      -7.0      3.197      7.221
REMARK  Name = 
REMARK  9 active torsions:
REMARK  status: ('A' for Active; 'I' for Inactive)
REMARK    1  A    between atoms: C_2  and  C_3
REMARK    2  A    between atoms: C_3  and  N_4
REMARK    3  A    between atoms: N_4  and  C_5
REMARK    4  A    between atoms: C_5  and  C_6
REMARK    5  A    between atoms: C_8  and  C_9
REMARK    6  A    between atoms: C_8  and  C_10
REMARK    7  A    between atoms: C_15  and  C_16
REMARK    8  A    between atoms: C_21  and  O_22
REMARK    9  A    between atoms: O_22  and  C_23
REMARK                            x       y       z     vdW  Elec       q    Type
REMARK                         _______ _______ _______ _____ _____    ______ ____
ROOT
ATOM      1  C   UNL     1       3.881   4.360  17.964  0.00  0.00    +0.000 C 
ATOM      2  C   UNL     1       4.916   3.886  17.245  0.00  0.00    +0.000 C 
ATOM      3  C   UNL     1       5.653   4.637  16.178  0.00  0.00    +0.000 C 
ATOM      4  C   UNL     1       5.182   4.134  14.802  0.00  0.00    +0.000 C 
ATOM      5  C   UNL     1       7.158   4.383  16.340  0.00  0.00    +0.000 C 
ATOM      6  N   UNL     1       5.436   6.078  16.273  0.00  0.00    +0.000 N 
ATOM      7  C   UNL     1       4.326   6.584  16.952  0.00  0.00    +0.000 A 
ATOM      8  C   UNL     1       4.104   7.966  16.931  0.00  0.00    +0.000 A 
ATOM      9  C   UNL     1       3.138   8.566  17.752  0.00  0.00    +0.000 A 
ATOM     10  C   UNL     1       2.318   7.807  18.595  0.00  0.00    +0.000 A 
ATOM     11  C   UNL     1       2.494   6.404  18.526  0.00  0.00    +0.000 A 
ATOM     12  C   UNL     1       3.534   5.791  17.798  0.00  0.00    +0.000 A 
ATOM     13  H   UNL     1       5.674   6.599  15.436  0.00  0.00    +0.000 HD
ENDROOT
BRANCH  10  14
ATOM     14  C   UNL     1       1.399   8.414  19.617  0.00  0.00    +0.000 A 
ATOM     15  C   UNL     1       1.523   7.985  20.964  0.00  0.00    +0.000 A 
ATOM     16  C   UNL     1       0.739   8.490  22.003  0.00  0.00    +0.000 A 
ATOM     17  C   UNL     1      -0.202   9.467  21.734  0.00  0.00    +0.000 A 
ATOM     18  C   UNL     1      -0.345   9.938  20.432  0.00  0.00    +0.000 A 
ATOM     19  C   UNL     1       0.451   9.442  19.377  0.00  0.00    +0.000 A 
BRANCH  19  20
ATOM     20  O   UNL     1       0.292   9.912  18.093  0.00  0.00    +0.000 OA
ATOM     21  C   UNL     1      -1.058   9.994  17.624  0.00  0.00    +0.000 C 
ENDBRANCH  19  20
ENDBRANCH  10  14
BRANCH   1  22
ATOM     22  C   UNL     1       3.160   3.447  18.929  0.00  0.00    +0.000 C 
BRANCH  22  23
ATOM     23  N   UNL     1       1.981   2.797  18.343  0.00  0.00    +0.000 NA
ATOM     24  H   UNL     1       1.709   3.322  17.513  0.00  0.00    +0.000 HD
BRANCH  23  25
ATOM     25  C   UNL     1       0.846   2.808  19.267  0.00  0.00    +0.000 C 
BRANCH  25  27
ATOM     26  C   UNL     1       1.318   2.624  21.719  0.00  0.00    +0.000 C 
ATOM     27  C   UNL     1       1.253   3.351  20.598  0.00  0.00    +0.000 C 
ENDBRANCH  25  27
ENDBRANCH  23  25
ENDBRANCH  22  23
ENDBRANCH   1  22
TORSDOF 6
ENDMDL
MODEL 9
REMARK VINA RESULT:      -6.8      2.568      7.134
REMARK  Name = 
REMARK  9 active torsions:
REMARK  status: ('A' for Active; 'I' for Inactive)
REMARK    1  A    between atoms: C_2  and  C_3
REMARK    2  A    between atoms: C_3  and  N_4
REMARK    3  A    between atoms: N_4  and  C_5
REMARK    4  A    between atoms: C_5  and  C_6
REMARK    5  A    between atoms: C_8  and  C_9
REMARK    6  A    between atoms: C_8  and  C_10
REMARK    7  A    between atoms: C_15  and  C_16
REMARK    8  A    between atoms: C_21  and  O_22
REMARK    9  A    between atoms: O_22  and  C_23
REMARK                            x       y       z     vdW  Elec       q    Type
REMARK                         _______ _______ _______ _____ _____    ______ ____
ROOT
ATOM      1  C   UNL     1       2.942   5.644  19.743  0.00  0.00    +0.000 C 
ATOM      2  C   UNL     1       4.024   4.945  19.351  0.00  0.00    +0.000 C 
ATOM      3  C   UNL     1       4.847   5.222  18.130  0.00  0.00    +0.000 C 
ATOM      4  C   UNL     1       4.477   4.202  17.040  0.00  0.00    +0.000 C 
ATOM      5  C   UNL     1       6.333   5.087  18.490  0.00  0.00    +0.000 C 
ATOM      6  N   UNL     1       4.637   6.576  17.624  0.00  0.00    +0.000 N 
ATOM      7  C   UNL     1       3.483   7.287  17.961  0.00  0.00    +0.000 A 
ATOM      8  C   UNL     1       3.276   8.540  17.373  0.00  0.00    +0.000 A 
ATOM      9  C   UNL     1       2.256   9.397  17.813  0.00  0.00    +0.000 A 
ATOM     10  C   UNL     1       1.368   9.020  18.826  0.00  0.00    +0.000 A 
ATOM     11  C   UNL     1       1.536   7.710  19.337  0.00  0.00    +0.000 A 
ATOM     12  C   UNL     1       2.623   6.881  18.993  0.00  0.00    +0.000 A 
ATOM     13  H   UNL     1       4.942   6.725  16.669  0.00  0.00    +0.000 HD
ENDROOT
BRANCH  10  14
ATOM     14  C   UNL     1       0.380   9.965  19.450  0.00  0.00    +0.000 A 
ATOM     15  C   UNL     1      -0.691  10.437  18.646  0.00  0.00    +0.000 A 
ATOM     16  C   UNL     1      -1.679  11.301  19.119  0.00  0.00    +0.000 A 
ATOM     17  C   UNL     1      -1.643  11.723  20.435  0.00  0.00    +0.000 A 
ATOM     18  C   UNL     1      -0.625  11.270  21.270  0.00  0.00    +0.000 A 
ATOM     19  C   UNL     1       0.372  10.386  20.804  0.00  0.00    +0.000 A 
BRANCH  19  20
ATOM     20  O   UNL     1       1.377   9.954  21.640  0.00  0.00    +0.000 OA
ATOM     21  C   UNL     1       0.951   9.272  22.823  0.00  0.00    +0.000 C 
ENDBRANCH  19  20
ENDBRANCH  10  14
BRANCH   1  22
ATOM     22  C   UNL     1       2.142   5.176  20.936  0.00  0.00    +0.000 C 
BRANCH  22  23
ATOM     23  N   UNL     1       0.908   4.470  20.569  0.00  0.00    +0.000 NA
ATOM     24  H   UNL     1       0.204   4.672  21.278  0.00  0.00    +0.000 HD
BRANCH  23  25
ATOM     25  C   UNL     1       1.106   3.021  20.539  0.00  0.00    +0.000 C 
BRANCH  25  27
ATOM     26  C   UNL     1       1.787   2.222  18.266  0.00  0.00    +0.000 C 
ATOM     27  C   UNL     1       0.838   2.477  19.174  0.00  0.00    +0.000 C 
ENDBRANCH  25  27
ENDBRANCH  23  25
ENDBRANCH  22  23
ENDBRANCH   1  22
TORSDOF 6
ENDMDL
