MODEL 1
REMARK VINA RESULT:      -8.9      0.000      0.000
REMARK  Name = 
REMARK  10 active torsions:
REMARK  status: ('A' for Active; 'I' for Inactive)
REMARK    1  A    between atoms: C_1  and  O_2
REMARK    2  A    between atoms: O_2  and  C_3
REMARK    3  A    between atoms: C_5  and  C_6
REMARK    4  A    between atoms: N_8  and  C_9
REMARK    5  A    between atoms: N_8  and  C_10
REMARK    6  A    between atoms: C_13  and  N_14
REMARK    7  A    between atoms: C_17  and  O_18
REMARK    8  A    between atoms: O_18  and  C_19
REMARK    9  A    between atoms: C_23  and  C_24
REMARK   10  A    between atoms: C_23  and  C_25
REMARK                            x       y       z     vdW  Elec       q    Type
REMARK                         _______ _______ _______ _____ _____    ______ ____
ROOT
ATOM      1  N   UNL     1       1.597   9.779  17.928  0.00  0.00    +0.000 N 
ATOM      2  C   UNL     1       2.119   8.596  18.472  0.00  0.00    +0.000 A 
ATOM      3  N   UNL     1       3.035   7.940  17.711  0.00  0.00    +0.000 NA
ATOM      4  C   UNL     1       3.473   6.715  18.119  0.00  0.00    +0.000 A 
ATOM      5  C   UNL     1       2.884   6.138  19.248  0.00  0.00    +0.000 A 
ATOM      6  C   UNL     1       2.856   4.876  19.911  0.00  0.00    +0.000 A 
ATOM      7  C   UNL     1       1.997   4.975  20.987  0.00  0.00    +0.000 A 
ATOM      8  N   UNL     1       1.557   6.274  21.049  0.00  0.00    +0.000 N 
ATOM      9  C   UNL     1       2.043   6.962  19.976  0.00  0.00    +0.000 A 
ATOM     10  N   UNL     1       1.696   8.207  19.683  0.00  0.00    +0.000 NA
ATOM     11  H   UNL     1       1.840   9.761  16.945  0.00  0.00    +0.000 HD
ATOM     12  H   UNL     1       0.898   6.664  21.711  0.00  0.00    +0.000 HD
ENDROOT
BRANCH   1  18
ATOM     13  C   UNL     1       0.155  11.625  18.886  0.00  0.00    +0.000 A 
ATOM     14  C   UNL     1      -1.155  12.037  19.191  0.00  0.00    +0.000 A 
ATOM     15  C   UNL     1      -2.283  11.368  18.703  0.00  0.00    +0.000 A 
ATOM     16  C   UNL     1      -2.089  10.258  17.888  0.00  0.00    +0.000 A 
ATOM     17  C   UNL     1      -0.788   9.775  17.663  0.00  0.00    +0.000 A 
ATOM     18  C   UNL     1       0.360  10.434  18.158  0.00  0.00    +0.000 A 
BRANCH  15  19
ATOM     19  C   UNL     1      -3.598  11.985  19.046  0.00  0.00    +0.000 C 
ATOM     20  O   UNL     1      -3.687  12.472  20.179  0.00  0.00    +0.000 OA
ATOM     21  N   UNL     1      -4.687  11.961  18.175  0.00  0.00    +0.000 N 
ATOM     22  C   UNL     1      -4.694  11.469  16.809  0.00  0.00    +0.000 C 
ATOM     23  C   UNL     1      -5.924  12.587  18.623  0.00  0.00    +0.000 C 
ENDBRANCH  15  19
BRANCH  13  25
ATOM     24  C   UNL     1       1.820  13.231  18.379  0.00  0.00    +0.000 C 
ATOM     25  O   UNL     1       1.225  12.355  19.344  0.00  0.00    +0.000 OA
ENDBRANCH  13  25
ENDBRANCH   1  18
BRANCH   4  26
ATOM     26  O   UNL     1       4.346   5.990  17.315  0.00  0.00    +0.000 OA
BRANCH  26  27
ATOM     27  C   UNL     1       5.169   6.785  16.443  0.00  0.00    +0.000 C 
ATOM     28  C   UNL     1       6.477   7.121  17.157  0.00  0.00    +0.000 C 
ATOM     29  C   UNL     1       7.405   5.928  17.339  0.00  0.00    +0.000 C 
ATOM     30  O   UNL     1       7.405   4.900  16.368  0.00  0.00    +0.000 OA
ATOM     31  C   UNL     1       6.404   4.813  15.359  0.00  0.00    +0.000 C 
ATOM     32  C   UNL     1       7.214   4.497  14.085  0.00  0.00    +0.000 C 
ATOM     33  C   UNL     1       5.495   3.604  15.627  0.00  0.00    +0.000 C 
ATOM     34  C   UNL     1       5.568   6.086  15.143  0.00  0.00    +0.000 C 
ENDBRANCH  26  27
ENDBRANCH   4  26
TORSDOF 5
ENDMDL
MODEL 2
REMARK VINA RESULT:      -8.9      2.553      3.261
REMARK  Name = 
REMARK  10 active torsions:
REMARK  status: ('A' for Active; 'I' for Inactive)
REMARK    1  A    between atoms: C_1  and  O_2
REMARK    2  A    between atoms: O_2  and  C_3
REMARK    3  A    between atoms: C_5  and  C_6
REMARK    4  A    between atoms: N_8  and  C_9
REMARK    5  A    between atoms: N_8  and  C_10
REMARK    6  A    between atoms: C_13  and  N_14
REMARK    7  A    between atoms: C_17  and  O_18
REMARK    8  A    between atoms: O_18  and  C_19
REMARK    9  A    between atoms: C_23  and  C_24
REMARK   10  A    between atoms: C_23  and  C_25
REMARK                            x       y       z     vdW  Elec       q    Type
REMARK                         _______ _______ _______ _____ _____    ______ ____
ROOT
ATOM      1  N   UNL     1       2.207   8.324  20.332  0.00  0.00    +0.000 N 
ATOM      2  C   UNL     1       2.289   6.970  19.972  0.00  0.00    +0.000 A 
ATOM      3  N   UNL     1       3.156   6.669  18.968  0.00  0.00    +0.000 NA
ATOM      4  C   UNL     1       3.178   5.397  18.477  0.00  0.00    +0.000 A 
ATOM      5  C   UNL     1       2.235   4.482  18.954  0.00  0.00    +0.000 A 
ATOM      6  C   UNL     1       1.753   3.180  18.631  0.00  0.00    +0.000 A 
ATOM      7  C   UNL     1       0.733   2.869  19.508  0.00  0.00    +0.000 A 
ATOM      8  N   UNL     1       0.626   3.905  20.403  0.00  0.00    +0.000 N 
ATOM      9  C   UNL     1       1.488   4.899  20.042  0.00  0.00    +0.000 A 
ATOM     10  N   UNL     1       1.532   6.084  20.633  0.00  0.00    +0.000 NA
ATOM     11  H   UNL     1       2.644   8.837  19.576  0.00  0.00    +0.000 HD
ATOM     12  H   UNL     1      -0.043   3.992  21.158  0.00  0.00    +0.000 HD
ENDROOT
BRANCH   1  18
ATOM     13  C   UNL     1       0.191   9.852  20.270  0.00  0.00    +0.000 A 
ATOM     14  C   UNL     1      -0.669  10.673  21.021  0.00  0.00    +0.000 A 
ATOM     15  C   UNL     1      -0.691  10.653  22.420  0.00  0.00    +0.000 A 
ATOM     16  C   UNL     1       0.174   9.785  23.080  0.00  0.00    +0.000 A 
ATOM     17  C   UNL     1       1.109   9.038  22.343  0.00  0.00    +0.000 A 
ATOM     18  C   UNL     1       1.150   9.057  20.931  0.00  0.00    +0.000 A 
BRANCH  15  19
ATOM     19  C   UNL     1      -1.722  11.519  23.063  0.00  0.00    +0.000 C 
ATOM     20  O   UNL     1      -2.683  10.928  23.570  0.00  0.00    +0.000 OA
ATOM     21  N   UNL     1      -1.653  12.911  23.040  0.00  0.00    +0.000 N 
ATOM     22  C   UNL     1      -0.559  13.717  22.526  0.00  0.00    +0.000 C 
ATOM     23  C   UNL     1      -2.725  13.652  23.693  0.00  0.00    +0.000 C 
ENDBRANCH  15  19
BRANCH  13  25
ATOM     24  C   UNL     1      -1.107  10.354  18.353  0.00  0.00    +0.000 C 
ATOM     25  O   UNL     1       0.127   9.871  18.897  0.00  0.00    +0.000 OA
ENDBRANCH  13  25
ENDBRANCH   1  18
BRANCH   4  26
ATOM     26  O   UNL     1       3.997   5.088  17.397  0.00  0.00    +0.000 OA
BRANCH  26  27
ATOM     27  C   UNL     1       4.945   6.110  17.043  0.00  0.00    +0.000 C 
ATOM     28  C   UNL     1       6.179   5.979  17.934  0.00  0.00    +0.000 C 
ATOM     29  C   UNL     1       7.029   4.751  17.635  0.00  0.00    +0.000 C 
ATOM     30  O   UNL     1       7.092   4.262  16.310  0.00  0.00    +0.000 OA
ATOM     31  C   UNL     1       6.206   4.719  15.292  0.00  0.00    +0.000 C 
ATOM     32  C   UNL     1       7.138   4.927  14.081  0.00  0.00    +0.000 C 
ATOM     33  C   UNL     1       5.222   3.601  14.916  0.00  0.00    +0.000 C 
ATOM     34  C   UNL     1       5.456   6.024  15.604  0.00  0.00    +0.000 C 
ENDBRANCH  26  27
ENDBRANCH   4  26
TORSDOF 5
ENDMDL
MODEL 3
REMARK VINA RESULT:      -8.7      2.564      3.604
REMARK  Name = 
REMARK  10 active torsions:
REMARK  status: ('A' for Active; 'I' for Inactive)
REMARK    1  A    between atoms: C_1  and  O_2
REMARK    2  A    between atoms: O_2  and  C_3
REMARK    3  A    between atoms: C_5  and  C_6
REMARK    4  A    between atoms: N_8  and  C_9
REMARK    5  A    between atoms: N_8  and  C_10
REMARK    6  A    between atoms: C_13  and  N_14
REMARK    7  A    between atoms: C_17  and  O_18
REMARK    8  A    between atoms: O_18  and  C_19
REMARK    9  A    between atoms: C_23  and  C_24
REMARK   10  A    between atoms: C_23  and  C_25
REMARK                            x       y       z     vdW  Elec       q    Type
REMARK                         _______ _______ _______ _____ _____    ______ ____
ROOT
ATOM      1  N   UNL     1       2.136   8.191  20.003  0.00  0.00    +0.000 N 
ATOM      2  C   UNL     1       2.200   6.816  19.732  0.00  0.00    +0.000 A 
ATOM      3  N   UNL     1       2.958   6.450  18.665  0.00  0.00    +0.000 NA
ATOM      4  C   UNL     1       2.947   5.147  18.265  0.00  0.00    +0.000 A 
ATOM      5  C   UNL     1       2.074   4.261  18.904  0.00  0.00    +0.000 A 
ATOM      6  C   UNL     1       1.579   2.936  18.728  0.00  0.00    +0.000 A 
ATOM      7  C   UNL     1       0.664   2.681  19.730  0.00  0.00    +0.000 A 
ATOM      8  N   UNL     1       0.638   3.777  20.556  0.00  0.00    +0.000 N 
ATOM      9  C   UNL     1       1.441   4.749  20.035  0.00  0.00    +0.000 A 
ATOM     10  N   UNL     1       1.531   5.974  20.532  0.00  0.00    +0.000 NA
ATOM     11  H   UNL     1       2.481   8.652  19.169  0.00  0.00    +0.000 HD
ATOM     12  H   UNL     1       0.053   3.914  21.370  0.00  0.00    +0.000 HD
ENDROOT
BRANCH   1  18
ATOM     13  C   UNL     1       0.185   9.803  20.054  0.00  0.00    +0.000 A 
ATOM     14  C   UNL     1      -0.605  10.646  20.855  0.00  0.00    +0.000 A 
ATOM     15  C   UNL     1      -0.565  10.605  22.253  0.00  0.00    +0.000 A 
ATOM     16  C   UNL     1       0.291   9.691  22.860  0.00  0.00    +0.000 A 
ATOM     17  C   UNL     1       1.160   8.918  22.072  0.00  0.00    +0.000 A 
ATOM     18  C   UNL     1       1.139   8.958  20.660  0.00  0.00    +0.000 A 
BRANCH  15  19
ATOM     19  C   UNL     1      -1.530  11.502  22.954  0.00  0.00    +0.000 C 
ATOM     20  O   UNL     1      -2.483  10.942  23.507  0.00  0.00    +0.000 OA
ATOM     21  N   UNL     1      -1.412  12.891  22.935  0.00  0.00    +0.000 N 
ATOM     22  C   UNL     1      -0.319  13.661  22.368  0.00  0.00    +0.000 C 
ATOM     23  C   UNL     1      -2.421  13.665  23.647  0.00  0.00    +0.000 C 
ENDBRANCH  15  19
BRANCH  13  25
ATOM     24  C   UNL     1      -1.195  10.342  18.206  0.00  0.00    +0.000 C 
ATOM     25  O   UNL     1       0.061   9.846  18.686  0.00  0.00    +0.000 OA
ENDBRANCH  13  25
ENDBRANCH   1  18
BRANCH   4  26
ATOM     26  O   UNL     1       3.649   4.766  17.126  0.00  0.00    +0.000 OA
BRANCH  26  27
ATOM     27  C   UNL     1       4.934   4.170  17.379  0.00  0.00    +0.000 C 
ATOM     28  C   UNL     1       5.505   3.636  16.066  0.00  0.00    +0.000 C 
ATOM     29  C   UNL     1       5.933   4.724  15.091  0.00  0.00    +0.000 C 
ATOM     30  O   UNL     1       6.424   5.950  15.597  0.00  0.00    +0.000 OA
ATOM     31  C   UNL     1       6.307   6.301  16.972  0.00  0.00    +0.000 C 
ATOM     32  C   UNL     1       7.697   6.880  17.307  0.00  0.00    +0.000 C 
ATOM     33  C   UNL     1       5.292   7.443  17.135  0.00  0.00    +0.000 C 
ATOM     34  C   UNL     1       5.981   5.141  17.927  0.00  0.00    +0.000 C 
ENDBRANCH  26  27
ENDBRANCH   4  26
TORSDOF 5
ENDMDL
MODEL 4
REMARK VINA RESULT:      -8.6      0.844      1.153
REMARK  Name = 
REMARK  10 active torsions:
REMARK  status: ('A' for Active; 'I' for Inactive)
REMARK    1  A    between atoms: C_1  and  O_2
REMARK    2  A    between atoms: O_2  and  C_3
REMARK    3  A    between atoms: C_5  and  C_6
REMARK    4  A    between atoms: N_8  and  C_9
REMARK    5  A    between atoms: N_8  and  C_10
REMARK    6  A    between atoms: C_13  and  N_14
REMARK    7  A    between atoms: C_17  and  O_18
REMARK    8  A    between atoms: O_18  and  C_19
REMARK    9  A    between atoms: C_23  and  C_24
REMARK   10  A    between atoms: C_23  and  C_25
REMARK                            x       y       z     vdW  Elec       q    Type
REMARK                         _______ _______ _______ _____ _____    ______ ____
ROOT
ATOM      1  N   UNL     1       1.590   9.798  17.949  0.00  0.00    +0.000 N 
ATOM      2  C   UNL     1       2.111   8.612  18.487  0.00  0.00    +0.000 A 
ATOM      3  N   UNL     1       3.016   7.951  17.718  0.00  0.00    +0.000 NA
ATOM      4  C   UNL     1       3.452   6.724  18.121  0.00  0.00    +0.000 A 
ATOM      5  C   UNL     1       2.869   6.149  19.255  0.00  0.00    +0.000 A 
ATOM      6  C   UNL     1       2.840   4.887  19.918  0.00  0.00    +0.000 A 
ATOM      7  C   UNL     1       1.991   4.990  21.001  0.00  0.00    +0.000 A 
ATOM      8  N   UNL     1       1.558   6.291  21.068  0.00  0.00    +0.000 N 
ATOM      9  C   UNL     1       2.039   6.978  19.991  0.00  0.00    +0.000 A 
ATOM     10  N   UNL     1       1.696   8.224  19.701  0.00  0.00    +0.000 NA
ATOM     11  H   UNL     1       1.824   9.779  16.963  0.00  0.00    +0.000 HD
ATOM     12  H   UNL     1       0.907   6.684  21.735  0.00  0.00    +0.000 HD
ENDROOT
BRANCH   1  18
ATOM     13  C   UNL     1       0.173  11.686  18.861  0.00  0.00    +0.000 A 
ATOM     14  C   UNL     1      -1.126  12.108  19.192  0.00  0.00    +0.000 A 
ATOM     15  C   UNL     1      -2.268  11.411  18.783  0.00  0.00    +0.000 A 
ATOM     16  C   UNL     1      -2.098  10.259  18.021  0.00  0.00    +0.000 A 
ATOM     17  C   UNL     1      -0.803   9.771  17.773  0.00  0.00    +0.000 A 
ATOM     18  C   UNL     1       0.358  10.459  18.190  0.00  0.00    +0.000 A 
BRANCH  15  19
ATOM     19  C   UNL     1      -3.573  12.039  19.141  0.00  0.00    +0.000 C 
ATOM     20  O   UNL     1      -4.424  12.065  18.245  0.00  0.00    +0.000 OA
ATOM     21  N   UNL     1      -3.807  12.626  20.385  0.00  0.00    +0.000 N 
ATOM     22  C   UNL     1      -2.913  12.616  21.530  0.00  0.00    +0.000 C 
ATOM     23  C   UNL     1      -5.117  13.219  20.617  0.00  0.00    +0.000 C 
ENDBRANCH  15  19
BRANCH  13  25
ATOM     24  C   UNL     1       1.667  13.433  18.288  0.00  0.00    +0.000 C 
ATOM     25  O   UNL     1       1.255  12.444  19.239  0.00  0.00    +0.000 OA
ENDBRANCH  13  25
ENDBRANCH   1  18
BRANCH   4  26
ATOM     26  O   UNL     1       4.314   5.994  17.309  0.00  0.00    +0.000 OA
BRANCH  26  27
ATOM     27  C   UNL     1       5.135   6.787  16.433  0.00  0.00    +0.000 C 
ATOM     28  C   UNL     1       6.445   7.124  17.144  0.00  0.00    +0.000 C 
ATOM     29  C   UNL     1       7.372   5.931  17.329  0.00  0.00    +0.000 C 
ATOM     30  O   UNL     1       7.371   4.900  16.362  0.00  0.00    +0.000 OA
ATOM     31  C   UNL     1       6.368   4.810  15.354  0.00  0.00    +0.000 C 
ATOM     32  C   UNL     1       7.176   4.489  14.081  0.00  0.00    +0.000 C 
ATOM     33  C   UNL     1       5.459   3.602  15.628  0.00  0.00    +0.000 C 
ATOM     34  C   UNL     1       5.532   6.082  15.135  0.00  0.00    +0.000 C 
ENDBRANCH  26  27
ENDBRANCH   4  26
TORSDOF 5
ENDMDL
MODEL 5
REMARK VINA RESULT:      -8.6      2.807      9.777
REMARK  Name = 
REMARK  10 active torsions:
REMARK  status: ('A' for Active; 'I' for Inactive)
REMARK    1  A    between atoms: C_1  and  O_2
REMARK    2  A    between atoms: O_2  and  C_3
REMARK    3  A    between atoms: C_5  and  C_6
REMARK    4  A    between atoms: N_8  and  C_9
REMARK    5  A    between atoms: N_8  and  C_10
REMARK    6  A    between atoms: C_13  and  N_14
REMARK    7  A    between atoms: C_17  and  O_18
REMARK    8  A    between atoms: O_18  and  C_19
REMARK    9  A    between atoms: C_23  and  C_24
REMARK   10  A    between atoms: C_23  and  C_25
REMARK                            x       y       z     vdW  Elec       q    Type
REMARK                         _______ _______ _______ _____ _____    ______ ____
ROOT
ATOM      1  N   UNL     1       1.588   8.964  20.164  0.00  0.00    +0.000 N 
ATOM      2  C   UNL     1       0.630   9.842  19.636  0.00  0.00    +0.000 A 
ATOM      3  N   UNL     1       0.219  10.845  20.456  0.00  0.00    +0.000 NA
ATOM      4  C   UNL     1      -0.809  11.645  20.055  0.00  0.00    +0.000 A 
ATOM      5  C   UNL     1      -1.469  11.334  18.863  0.00  0.00    +0.000 A 
ATOM      6  C   UNL     1      -2.652  11.718  18.165  0.00  0.00    +0.000 A 
ATOM      7  C   UNL     1      -2.744  10.952  17.021  0.00  0.00    +0.000 A 
ATOM      8  N   UNL     1      -1.620  10.166  16.956  0.00  0.00    +0.000 N 
ATOM      9  C   UNL     1      -0.879  10.352  18.086  0.00  0.00    +0.000 A 
ATOM     10  N   UNL     1       0.201   9.643  18.382  0.00  0.00    +0.000 NA
ATOM     11  H   UNL     1       1.587   9.125  21.164  0.00  0.00    +0.000 HD
ATOM     12  H   UNL     1      -1.398   9.477  16.249  0.00  0.00    +0.000 HD
ENDROOT
BRANCH   1  18
ATOM     13  C   UNL     1       2.550   7.141  18.696  0.00  0.00    +0.000 A 
ATOM     14  C   UNL     1       2.583   5.761  18.428  0.00  0.00    +0.000 A 
ATOM     15  C   UNL     1       2.068   4.812  19.318  0.00  0.00    +0.000 A 
ATOM     16  C   UNL     1       1.506   5.263  20.508  0.00  0.00    +0.000 A 
ATOM     17  C   UNL     1       1.373   6.644  20.738  0.00  0.00    +0.000 A 
ATOM     18  C   UNL     1       1.878   7.613  19.843  0.00  0.00    +0.000 A 
BRANCH  15  19
ATOM     19  C   UNL     1       2.262   3.386  18.926  0.00  0.00    +0.000 C 
ATOM     20  O   UNL     1       1.243   2.779  18.576  0.00  0.00    +0.000 OA
ATOM     21  N   UNL     1       3.499   2.746  19.009  0.00  0.00    +0.000 N 
ATOM     22  C   UNL     1       4.770   3.359  19.353  0.00  0.00    +0.000 C 
ATOM     23  C   UNL     1       3.564   1.347  18.608  0.00  0.00    +0.000 C 
ENDBRANCH  15  19
BRANCH  13  25
ATOM     24  C   UNL     1       4.228   7.499  17.063  0.00  0.00    +0.000 C 
ATOM     25  O   UNL     1       3.125   8.023  17.812  0.00  0.00    +0.000 OA
ENDBRANCH  13  25
ENDBRANCH   1  18
BRANCH   4  26
ATOM     26  O   UNL     1      -1.300  12.624  20.913  0.00  0.00    +0.000 OA
BRANCH  26  27
ATOM     27  C   UNL     1      -1.009  12.409  22.306  0.00  0.00    +0.000 C 
ATOM     28  C   UNL     1      -0.629  13.742  22.949  0.00  0.00    +0.000 C 
ATOM     29  C   UNL     1      -1.793  14.712  23.094  0.00  0.00    +0.000 C 
ATOM     30  O   UNL     1      -3.094  14.200  23.308  0.00  0.00    +0.000 OA
ATOM     31  C   UNL     1      -3.399  12.818  23.150  0.00  0.00    +0.000 C 
ATOM     32  C   UNL     1      -4.275  12.507  24.380  0.00  0.00    +0.000 C 
ATOM     33  C   UNL     1      -4.279  12.616  21.907  0.00  0.00    +0.000 C 
ATOM     34  C   UNL     1      -2.187  11.871  23.119  0.00  0.00    +0.000 C 
ENDBRANCH  26  27
ENDBRANCH   4  26
TORSDOF 5
ENDMDL
MODEL 6
REMARK VINA RESULT:      -8.5      2.771      9.965
REMARK  Name = 
REMARK  10 active torsions:
REMARK  status: ('A' for Active; 'I' for Inactive)
REMARK    1  A    between atoms: C_1  and  O_2
REMARK    2  A    between atoms: O_2  and  C_3
REMARK    3  A    between atoms: C_5  and  C_6
REMARK    4  A    between atoms: N_8  and  C_9
REMARK    5  A    between atoms: N_8  and  C_10
REMARK    6  A    between atoms: C_13  and  N_14
REMARK    7  A    between atoms: C_17  and  O_18
REMARK    8  A    between atoms: O_18  and  C_19
REMARK    9  A    between atoms: C_23  and  C_24
REMARK   10  A    between atoms: C_23  and  C_25
REMARK                            x       y       z     vdW  Elec       q    Type
REMARK                         _______ _______ _______ _____ _____    ______ ____
ROOT
ATOM      1  N   UNL     1       0.882  10.535  19.343  0.00  0.00    +0.000 N 
ATOM      2  C   UNL     1      -0.399  11.016  19.032  0.00  0.00    +0.000 A 
ATOM      3  N   UNL     1      -0.835  12.076  19.763  0.00  0.00    +0.000 NA
ATOM      4  C   UNL     1      -2.121  12.499  19.607  0.00  0.00    +0.000 A 
ATOM      5  C   UNL     1      -2.970  11.760  18.779  0.00  0.00    +0.000 A 
ATOM      6  C   UNL     1      -4.360  11.683  18.469  0.00  0.00    +0.000 A 
ATOM      7  C   UNL     1      -4.544  10.653  17.568  0.00  0.00    +0.000 A 
ATOM      8  N   UNL     1      -3.306  10.147  17.259  0.00  0.00    +0.000 N 
ATOM      9  C   UNL     1      -2.364  10.770  18.023  0.00  0.00    +0.000 A 
ATOM     10  N   UNL     1      -1.087  10.417  18.050  0.00  0.00    +0.000 NA
ATOM     11  H   UNL     1       1.116  10.938  20.242  0.00  0.00    +0.000 HD
ATOM     12  H   UNL     1      -3.101   9.369  16.644  0.00  0.00    +0.000 HD
ENDROOT
BRANCH   1  18
ATOM     13  C   UNL     1       1.457   8.194  20.113  0.00  0.00    +0.000 A 
ATOM     14  C   UNL     1       2.234   7.048  19.868  0.00  0.00    +0.000 A 
ATOM     15  C   UNL     1       2.923   6.853  18.666  0.00  0.00    +0.000 A 
ATOM     16  C   UNL     1       2.828   7.835  17.686  0.00  0.00    +0.000 A 
ATOM     17  C   UNL     1       2.141   9.031  17.960  0.00  0.00    +0.000 A 
ATOM     18  C   UNL     1       1.450   9.246  19.173  0.00  0.00    +0.000 A 
BRANCH  15  19
ATOM     19  C   UNL     1       3.627   5.544  18.530  0.00  0.00    +0.000 C 
ATOM     20  O   UNL     1       4.827   5.544  18.829  0.00  0.00    +0.000 OA
ATOM     21  N   UNL     1       2.999   4.402  18.034  0.00  0.00    +0.000 N 
ATOM     22  C   UNL     1       1.593   4.262  17.699  0.00  0.00    +0.000 C 
ATOM     23  C   UNL     1       3.792   3.183  17.936  0.00  0.00    +0.000 C 
ENDBRANCH  15  19
BRANCH  13  25
ATOM     24  C   UNL     1       1.384   9.099  22.301  0.00  0.00    +0.000 C 
ATOM     25  O   UNL     1       0.754   8.304  21.289  0.00  0.00    +0.000 OA
ENDBRANCH  13  25
ENDBRANCH   1  18
BRANCH   4  26
ATOM     26  O   UNL     1      -2.613  13.527  20.404  0.00  0.00    +0.000 OA
BRANCH  26  27
ATOM     27  C   UNL     1      -2.100  13.550  21.748  0.00  0.00    +0.000 C 
ATOM     28  C   UNL     1      -2.115  14.987  22.266  0.00  0.00    +0.000 C 
ATOM     29  C   UNL     1      -3.511  15.532  22.533  0.00  0.00    +0.000 C 
ATOM     30  O   UNL     1      -4.528  14.645  22.958  0.00  0.00    +0.000 OA
ATOM     31  C   UNL     1      -4.366  13.231  22.910  0.00  0.00    +0.000 C 
ATOM     32  C   UNL     1      -4.930  12.766  24.268  0.00  0.00    +0.000 C 
ATOM     33  C   UNL     1      -5.271  12.638  21.820  0.00  0.00    +0.000 C 
ATOM     34  C   UNL     1      -2.920  12.734  22.748  0.00  0.00    +0.000 C 
ENDBRANCH  26  27
ENDBRANCH   4  26
TORSDOF 5
ENDMDL
MODEL 7
REMARK VINA RESULT:      -8.4      1.679      2.329
REMARK  Name = 
REMARK  10 active torsions:
REMARK  status: ('A' for Active; 'I' for Inactive)
REMARK    1  A    between atoms: C_1  and  O_2
REMARK    2  A    between atoms: O_2  and  C_3
REMARK    3  A    between atoms: C_5  and  C_6
REMARK    4  A    between atoms: N_8  and  C_9
REMARK    5  A    between atoms: N_8  and  C_10
REMARK    6  A    between atoms: C_13  and  N_14
REMARK    7  A    between atoms: C_17  and  O_18
REMARK    8  A    between atoms: O_18  and  C_19
REMARK    9  A    between atoms: C_23  and  C_24
REMARK   10  A    between atoms: C_23  and  C_25
REMARK                            x       y       z     vdW  Elec       q    Type
REMARK                         _______ _______ _______ _____ _____    ______ ____
ROOT
ATOM      1  N   UNL     1       1.697   9.559  18.707  0.00  0.00    +0.000 N 
ATOM      2  C   UNL     1       2.222   8.285  18.968  0.00  0.00    +0.000 A 
ATOM      3  N   UNL     1       3.000   7.746  17.992  0.00  0.00    +0.000 NA
ATOM      4  C   UNL     1       3.423   6.457  18.123  0.00  0.00    +0.000 A 
ATOM      5  C   UNL     1       2.953   5.708  19.206  0.00  0.00    +0.000 A 
ATOM      6  C   UNL     1       2.944   4.351  19.643  0.00  0.00    +0.000 A 
ATOM      7  C   UNL     1       2.234   4.284  20.824  0.00  0.00    +0.000 A 
ATOM      8  N   UNL     1       1.872   5.564  21.164  0.00  0.00    +0.000 N 
ATOM      9  C   UNL     1       2.254   6.415  20.169  0.00  0.00    +0.000 A 
ATOM     10  N   UNL     1       1.936   7.702  20.140  0.00  0.00    +0.000 NA
ATOM     11  H   UNL     1       1.812   9.706  17.711  0.00  0.00    +0.000 HD
ATOM     12  H   UNL     1       1.323   5.850  21.964  0.00  0.00    +0.000 HD
ENDROOT
BRANCH   1  18
ATOM     13  C   UNL     1      -0.709  10.328  18.551  0.00  0.00    +0.000 A 
ATOM     14  C   UNL     1      -1.701  11.160  19.099  0.00  0.00    +0.000 A 
ATOM     15  C   UNL     1      -1.551  11.788  20.340  0.00  0.00    +0.000 A 
ATOM     16  C   UNL     1      -0.373  11.573  21.048  0.00  0.00    +0.000 A 
ATOM     17  C   UNL     1       0.667  10.828  20.464  0.00  0.00    +0.000 A 
ATOM     18  C   UNL     1       0.533  10.198  19.207  0.00  0.00    +0.000 A 
BRANCH  15  19
ATOM     19  C   UNL     1      -2.731  12.566  20.818  0.00  0.00    +0.000 C 
ATOM     20  O   UNL     1      -3.345  13.201  19.954  0.00  0.00    +0.000 OA
ATOM     21  N   UNL     1      -3.089  12.634  22.165  0.00  0.00    +0.000 N 
ATOM     22  C   UNL     1      -2.483  11.898  23.261  0.00  0.00    +0.000 C 
ATOM     23  C   UNL     1      -4.256  13.434  22.514  0.00  0.00    +0.000 C 
ENDBRANCH  15  19
BRANCH  13  25
ATOM     24  C   UNL     1      -2.252   9.864  16.814  0.00  0.00    +0.000 C 
ATOM     25  O   UNL     1      -0.937   9.689  17.356  0.00  0.00    +0.000 OA
ENDBRANCH  13  25
ENDBRANCH   1  18
BRANCH   4  26
ATOM     26  O   UNL     1       4.150   5.859  17.099  0.00  0.00    +0.000 OA
BRANCH  26  27
ATOM     27  C   UNL     1       4.988   6.756  16.348  0.00  0.00    +0.000 C 
ATOM     28  C   UNL     1       6.231   7.088  17.172  0.00  0.00    +0.000 C 
ATOM     29  C   UNL     1       7.200   5.923  17.324  0.00  0.00    +0.000 C 
ATOM     30  O   UNL     1       7.311   4.978  16.278  0.00  0.00    +0.000 OA
ATOM     31  C   UNL     1       6.381   4.930  15.200  0.00  0.00    +0.000 C 
ATOM     32  C   UNL     1       7.285   4.752  13.963  0.00  0.00    +0.000 C 
ATOM     33  C   UNL     1       5.515   3.666  15.313  0.00  0.00    +0.000 C 
ATOM     34  C   UNL     1       5.502   6.180  15.028  0.00  0.00    +0.000 C 
ENDBRANCH  26  27
ENDBRANCH   4  26
TORSDOF 5
ENDMDL
MODEL 8
REMARK VINA RESULT:      -8.3      1.593      1.998
REMARK  Name = 
REMARK  10 active torsions:
REMARK  status: ('A' for Active; 'I' for Inactive)
REMARK    1  A    between atoms: C_1  and  O_2
REMARK    2  A    between atoms: O_2  and  C_3
REMARK    3  A    between atoms: C_5  and  C_6
REMARK    4  A    between atoms: N_8  and  C_9
REMARK    5  A    between atoms: N_8  and  C_10
REMARK    6  A    between atoms: C_13  and  N_14
REMARK    7  A    between atoms: C_17  and  O_18
REMARK    8  A    between atoms: O_18  and  C_19
REMARK    9  A    between atoms: C_23  and  C_24
REMARK   10  A    between atoms: C_23  and  C_25
REMARK                            x       y       z     vdW  Elec       q    Type
REMARK                         _______ _______ _______ _____ _____    ______ ____
ROOT
ATOM      1  N   UNL     1       2.235   8.682  19.315  0.00  0.00    +0.000 N 
ATOM      2  C   UNL     1       2.478   7.315  19.517  0.00  0.00    +0.000 A 
ATOM      3  N   UNL     1       3.689   6.854  19.107  0.00  0.00    +0.000 NA
ATOM      4  C   UNL     1       3.931   5.513  19.145  0.00  0.00    +0.000 A 
ATOM      5  C   UNL     1       2.887   4.657  19.506  0.00  0.00    +0.000 A 
ATOM      6  C   UNL     1       2.600   3.261  19.502  0.00  0.00    +0.000 A 
ATOM      7  C   UNL     1       1.311   3.085  19.961  0.00  0.00    +0.000 A 
ATOM      8  N   UNL     1       0.825   4.319  20.317  0.00  0.00    +0.000 N 
ATOM      9  C   UNL     1       1.746   5.272  19.995  0.00  0.00    +0.000 A 
ATOM     10  N   UNL     1       1.524   6.574  20.097  0.00  0.00    +0.000 NA
ATOM     11  H   UNL     1       2.943   8.993  18.661  0.00  0.00    +0.000 HD
ATOM     12  H   UNL     1      -0.100   4.532  20.668  0.00  0.00    +0.000 HD
ENDROOT
BRANCH   1  18
ATOM     13  C   UNL     1       0.230   9.962  20.179  0.00  0.00    +0.000 A 
ATOM     14  C   UNL     1      -1.051  10.456  19.877  0.00  0.00    +0.000 A 
ATOM     15  C   UNL     1      -1.545  10.507  18.569  0.00  0.00    +0.000 A 
ATOM     16  C   UNL     1      -0.730  10.050  17.539  0.00  0.00    +0.000 A 
ATOM     17  C   UNL     1       0.508   9.457  17.839  0.00  0.00    +0.000 A 
ATOM     18  C   UNL     1       1.015   9.389  19.156  0.00  0.00    +0.000 A 
BRANCH  15  19
ATOM     19  C   UNL     1      -2.886  11.142  18.409  0.00  0.00    +0.000 C 
ATOM     20  O   UNL     1      -3.265  11.848  19.351  0.00  0.00    +0.000 OA
ATOM     21  N   UNL     1      -3.700  10.907  17.300  0.00  0.00    +0.000 N 
ATOM     22  C   UNL     1      -3.351  10.146  16.114  0.00  0.00    +0.000 C 
ATOM     23  C   UNL     1      -4.995  11.575  17.259  0.00  0.00    +0.000 C 
ENDBRANCH  15  19
BRANCH  13  25
ATOM     24  C   UNL     1      -0.082   9.219  22.406  0.00  0.00    +0.000 C 
ATOM     25  O   UNL     1       0.686   9.991  21.475  0.00  0.00    +0.000 OA
ENDBRANCH  13  25
ENDBRANCH   1  18
BRANCH   4  26
ATOM     26  O   UNL     1       5.132   5.013  18.653  0.00  0.00    +0.000 OA
BRANCH  26  27
ATOM     27  C   UNL     1       6.020   6.002  18.102  0.00  0.00    +0.000 C 
ATOM     28  C   UNL     1       7.446   5.707  18.564  0.00  0.00    +0.000 C 
ATOM     29  C   UNL     1       8.054   4.461  17.933  0.00  0.00    +0.000 C 
ATOM     30  O   UNL     1       7.676   4.099  16.620  0.00  0.00    +0.000 OA
ATOM     31  C   UNL     1       6.573   4.707  15.955  0.00  0.00    +0.000 C 
ATOM     32  C   UNL     1       7.117   4.971  14.537  0.00  0.00    +0.000 C 
ATOM     33  C   UNL     1       5.424   3.696  15.817  0.00  0.00    +0.000 C 
ATOM     34  C   UNL     1       6.069   6.022  16.574  0.00  0.00    +0.000 C 
ENDBRANCH  26  27
ENDBRANCH   4  26
TORSDOF 5
ENDMDL
MODEL 9
REMARK VINA RESULT:      -8.2      2.600     10.307
REMARK  Name = 
REMARK  10 active torsions:
REMARK  status: ('A' for Active; 'I' for Inactive)
REMARK    1  A    between atoms: C_1  and  O_2
REMARK    2  A    between atoms: O_2  and  C_3
REMARK    3  A    between atoms: C_5  and  C_6
REMARK    4  A    between atoms: N_8  and  C_9
REMARK    5  A    between atoms: N_8  and  C_10
REMARK    6  A    between atoms: C_13  and  N_14
REMARK    7  A    between atoms: C_17  and  O_18
REMARK    8  A    between atoms: O_18  and  C_19
REMARK    9  A    between atoms: C_23  and  C_24
REMARK   10  A    between atoms: C_23  and  C_25
REMARK                            x       y       z     vdW  Elec       q    Type
REMARK                         _______ _______ _______ _____ _____    ______ ____
ROOT
ATOM      1  N   UNL     1       0.559  10.595  19.583  0.00  0.00    +0.000 N 
ATOM      2  C   UNL     1      -0.687  11.094  19.175  0.00  0.00    +0.000 A 
ATOM      3  N   UNL     1      -1.256  12.023  19.988  0.00  0.00    +0.000 NA
ATOM      4  C   UNL     1      -2.526  12.441  19.723  0.00  0.00    +0.000 A 
ATOM      5  C   UNL     1      -3.230  11.819  18.687  0.00  0.00    +0.000 A 
ATOM      6  C   UNL     1      -4.562  11.764  18.183  0.00  0.00    +0.000 A 
ATOM      7  C   UNL     1      -4.586  10.879  17.124  0.00  0.00    +0.000 A 
ATOM      8  N   UNL     1      -3.299  10.449  16.914  0.00  0.00    +0.000 N 
ATOM      9  C   UNL     1      -2.491  10.967  17.883  0.00  0.00    +0.000 A 
ATOM     10  N   UNL     1      -1.216  10.638  18.031  0.00  0.00    +0.000 NA
ATOM     11  H   UNL     1       0.657  10.862  20.556  0.00  0.00    +0.000 HD
ATOM     12  H   UNL     1      -2.985   9.777  16.226  0.00  0.00    +0.000 HD
ENDROOT
BRANCH   1  18
ATOM     13  C   UNL     1       1.351   8.269  20.188  0.00  0.00    +0.000 A 
ATOM     14  C   UNL     1       2.177   7.191  19.825  0.00  0.00    +0.000 A 
ATOM     15  C   UNL     1       2.773   7.097  18.562  0.00  0.00    +0.000 A 
ATOM     16  C   UNL     1       2.531   8.112  17.643  0.00  0.00    +0.000 A 
ATOM     17  C   UNL     1       1.793   9.244  18.030  0.00  0.00    +0.000 A 
ATOM     18  C   UNL     1       1.195   9.358  19.305  0.00  0.00    +0.000 A 
BRANCH  15  19
ATOM     19  C   UNL     1       3.548   5.848  18.305  0.00  0.00    +0.000 C 
ATOM     20  O   UNL     1       4.771   5.928  18.469  0.00  0.00    +0.000 OA
ATOM     21  N   UNL     1       2.950   4.676  17.843  0.00  0.00    +0.000 N 
ATOM     22  C   UNL     1       1.528   4.442  17.662  0.00  0.00    +0.000 C 
ATOM     23  C   UNL     1       3.810   3.522  17.617  0.00  0.00    +0.000 C 
ENDBRANCH  15  19
BRANCH  13  25
ATOM     24  C   UNL     1       1.379   9.106  22.404  0.00  0.00    +0.000 C 
ATOM     25  O   UNL     1       0.744   8.279  21.421  0.00  0.00    +0.000 OA
ENDBRANCH  13  25
ENDBRANCH   1  18
BRANCH   4  26
ATOM     26  O   UNL     1      -3.158  13.327  20.588  0.00  0.00    +0.000 OA
BRANCH  26  27
ATOM     27  C   UNL     1      -3.824  12.712  21.705  0.00  0.00    +0.000 C 
ATOM     28  C   UNL     1      -3.458  13.465  22.983  0.00  0.00    +0.000 C 
ATOM     29  C   UNL     1      -4.069  14.857  23.077  0.00  0.00    +0.000 C 
ATOM     30  O   UNL     1      -5.330  15.097  22.484  0.00  0.00    +0.000 OA
ATOM     31  C   UNL     1      -5.938  14.164  21.597  0.00  0.00    +0.000 C 
ATOM     32  C   UNL     1      -7.406  14.133  22.070  0.00  0.00    +0.000 C 
ATOM     33  C   UNL     1      -5.938  14.727  20.167  0.00  0.00    +0.000 C 
ATOM     34  C   UNL     1      -5.351  12.743  21.623  0.00  0.00    +0.000 C 
ENDBRANCH  26  27
ENDBRANCH   4  26
TORSDOF 5
ENDMDL
