MODEL 1
REMARK VINA RESULT:      -6.7      0.000      0.000
REMARK  Name = 
REMARK  7 active torsions:
REMARK  status: ('A' for Active; 'I' for Inactive)
REMARK    1  A    between atoms: C_1  and  C_2
REMARK    2  A    between atoms: C_5  and  C_6
REMARK    3  A    between atoms: C_6  and  N_7
REMARK    4  A    between atoms: N_10  and  C_11
REMARK    5  A    between atoms: C_21  and  C_22
REMARK    6  A    between atoms: C_22  and  C_23
REMARK    7  A    between atoms: C_23  and  O_24
REMARK                            x       y       z     vdW  Elec       q    Type
REMARK                         _______ _______ _______ _____ _____    ______ ____
ROOT
ATOM      1  N   UNL     1       4.697   4.773  17.512  0.00  0.00    +0.000 NA
ATOM      2  C   UNL     1       5.166   6.095  17.911  0.00  0.00    +0.000 C 
ATOM      3  C   UNL     1       4.080   7.147  17.626  0.00  0.00    +0.000 C 
ATOM      4  N   UNL     1       2.789   6.737  18.174  0.00  0.00    +0.000 N 
ATOM      5  C   UNL     1       2.330   5.384  17.846  0.00  0.00    +0.000 C 
ATOM      6  C   UNL     1       3.451   4.326  18.153  0.00  0.00    +0.000 C 
ENDROOT
BRANCH   4   7
ATOM      7  C   UNL     1       2.138   7.540  19.080  0.00  0.00    +0.000 A 
ATOM      8  N   UNL     1       1.888   7.055  20.332  0.00  0.00    +0.000 NA
ATOM      9  C   UNL     1       1.260   7.832  21.237  0.00  0.00    +0.000 A 
ATOM     10  N   UNL     1       0.846   9.105  21.097  0.00  0.00    +0.000 NA
ATOM     11  C   UNL     1       1.129   9.553  19.868  0.00  0.00    +0.000 A 
ATOM     12  N   UNL     1       0.889  10.808  19.390  0.00  0.00    +0.000 N 
ATOM     13  C   UNL     1       1.351  10.858  18.105  0.00  0.00    +0.000 A 
ATOM     14  N   UNL     1       1.863   9.708  17.724  0.00  0.00    +0.000 NA
ATOM     15  C   UNL     1       1.738   8.874  18.825  0.00  0.00    +0.000 A 
ATOM     16  H   UNL     1       0.464  11.557  19.915  0.00  0.00    +0.000 HD
ENDBRANCH   4   7
BRANCH   1  17
ATOM     17  C   UNL     1       5.629   3.842  16.920  0.00  0.00    +0.000 C 
BRANCH  17  22
ATOM     18  C   UNL     1       7.353   4.612  11.408  0.00  0.00    +0.000 C 
ATOM     19  C   UNL     1       6.886   4.456  12.824  0.00  0.00    +0.000 A 
ATOM     20  C   UNL     1       7.591   5.039  13.882  0.00  0.00    +0.000 A 
ATOM     21  C   UNL     1       7.168   4.864  15.201  0.00  0.00    +0.000 A 
ATOM     22  C   UNL     1       6.032   4.098  15.490  0.00  0.00    +0.000 A 
ATOM     23  C   UNL     1       5.321   3.523  14.425  0.00  0.00    +0.000 A 
ATOM     24  C   UNL     1       5.742   3.701  13.105  0.00  0.00    +0.000 A 
ENDBRANCH  17  22
ENDBRANCH   1  17
BRANCH   6  25
ATOM     25  C   UNL     1       3.604   4.074  19.673  0.00  0.00    +0.000 C 
BRANCH  25  26
ATOM     26  C   UNL     1       3.769   2.598  20.035  0.00  0.00    +0.000 C 
BRANCH  26  27
ATOM     27  O   UNL     1       5.148   2.244  20.071  0.00  0.00    +0.000 OA
ATOM     28  H   UNL     1       5.342   1.709  19.283  0.00  0.00    +0.000 HD
ENDBRANCH  26  27
ENDBRANCH  25  26
ENDBRANCH   6  25
TORSDOF 6
ENDMDL
MODEL 2
REMARK VINA RESULT:      -6.5      4.435      6.598
REMARK  Name = 
REMARK  7 active torsions:
REMARK  status: ('A' for Active; 'I' for Inactive)
REMARK    1  A    between atoms: C_1  and  C_2
REMARK    2  A    between atoms: C_5  and  C_6
REMARK    3  A    between atoms: C_6  and  N_7
REMARK    4  A    between atoms: N_10  and  C_11
REMARK    5  A    between atoms: C_21  and  C_22
REMARK    6  A    between atoms: C_22  and  C_23
REMARK    7  A    between atoms: C_23  and  O_24
REMARK                            x       y       z     vdW  Elec       q    Type
REMARK                         _______ _______ _______ _____ _____    ______ ____
ROOT
ATOM      1  N   UNL     1       1.578   8.577  19.655  0.00  0.00    +0.000 NA
ATOM      2  C   UNL     1       1.674   9.855  18.959  0.00  0.00    +0.000 C 
ATOM      3  C   UNL     1       0.279  10.309  18.497  0.00  0.00    +0.000 C 
ATOM      4  N   UNL     1      -0.687  10.251  19.592  0.00  0.00    +0.000 N 
ATOM      5  C   UNL     1      -0.750   9.000  20.354  0.00  0.00    +0.000 C 
ATOM      6  C   UNL     1       0.684   8.560  20.822  0.00  0.00    +0.000 C 
ENDROOT
BRANCH   4   7
ATOM      7  C   UNL     1      -1.370  11.382  19.969  0.00  0.00    +0.000 A 
ATOM      8  N   UNL     1      -0.769  12.263  20.823  0.00  0.00    +0.000 NA
ATOM      9  C   UNL     1      -1.420  13.384  21.195  0.00  0.00    +0.000 A 
ATOM     10  N   UNL     1      -2.635  13.810  20.804  0.00  0.00    +0.000 NA
ATOM     11  C   UNL     1      -3.181  12.934  19.951  0.00  0.00    +0.000 A 
ATOM     12  N   UNL     1      -4.387  13.062  19.323  0.00  0.00    +0.000 N 
ATOM     13  C   UNL     1      -4.555  11.968  18.523  0.00  0.00    +0.000 A 
ATOM     14  N   UNL     1      -3.537  11.139  18.607  0.00  0.00    +0.000 NA
ATOM     15  C   UNL     1      -2.658  11.735  19.497  0.00  0.00    +0.000 A 
ATOM     16  H   UNL     1      -5.016  13.843  19.430  0.00  0.00    +0.000 HD
ENDBRANCH   4   7
BRANCH   1  17
ATOM     17  C   UNL     1       2.623   7.596  19.478  0.00  0.00    +0.000 C 
BRANCH  17  22
ATOM     18  C   UNL     1       0.696   2.132  18.858  0.00  0.00    +0.000 C 
ATOM     19  C   UNL     1       1.235   3.521  19.029  0.00  0.00    +0.000 A 
ATOM     20  C   UNL     1       1.293   4.120  20.291  0.00  0.00    +0.000 A 
ATOM     21  C   UNL     1       1.768   5.425  20.438  0.00  0.00    +0.000 A 
ATOM     22  C   UNL     1       2.191   6.159  19.325  0.00  0.00    +0.000 A 
ATOM     23  C   UNL     1       2.142   5.551  18.061  0.00  0.00    +0.000 A 
ATOM     24  C   UNL     1       1.670   4.245  17.913  0.00  0.00    +0.000 A 
ENDBRANCH  17  22
ENDBRANCH   1  17
BRANCH   6  25
ATOM     25  C   UNL     1       1.198   9.430  21.996  0.00  0.00    +0.000 C 
BRANCH  25  26
ATOM     26  C   UNL     1       0.255   9.453  23.199  0.00  0.00    +0.000 C 
BRANCH  26  27
ATOM     27  O   UNL     1      -0.351  10.735  23.335  0.00  0.00    +0.000 OA
ATOM     28  H   UNL     1       0.019  11.159  24.128  0.00  0.00    +0.000 HD
ENDBRANCH  26  27
ENDBRANCH  25  26
ENDBRANCH   6  25
TORSDOF 6
ENDMDL
MODEL 3
REMARK VINA RESULT:      -6.4      0.948      1.357
REMARK  Name = 
REMARK  7 active torsions:
REMARK  status: ('A' for Active; 'I' for Inactive)
REMARK    1  A    between atoms: C_1  and  C_2
REMARK    2  A    between atoms: C_5  and  C_6
REMARK    3  A    between atoms: C_6  and  N_7
REMARK    4  A    between atoms: N_10  and  C_11
REMARK    5  A    between atoms: C_21  and  C_22
REMARK    6  A    between atoms: C_22  and  C_23
REMARK    7  A    between atoms: C_23  and  O_24
REMARK                            x       y       z     vdW  Elec       q    Type
REMARK                         _______ _______ _______ _____ _____    ______ ____
ROOT
ATOM      1  N   UNL     1       4.042   4.725  17.977  0.00  0.00    +0.000 NA
ATOM      2  C   UNL     1       4.663   5.997  18.328  0.00  0.00    +0.000 C 
ATOM      3  C   UNL     1       3.706   7.158  18.006  0.00  0.00    +0.000 C 
ATOM      4  N   UNL     1       2.378   6.922  18.568  0.00  0.00    +0.000 N 
ATOM      5  C   UNL     1       1.764   5.620  18.289  0.00  0.00    +0.000 C 
ATOM      6  C   UNL     1       2.754   4.450  18.633  0.00  0.00    +0.000 C 
ENDROOT
BRANCH   4   7
ATOM      7  C   UNL     1       1.830   7.826  19.444  0.00  0.00    +0.000 A 
ATOM      8  N   UNL     1       1.570   7.430  20.726  0.00  0.00    +0.000 NA
ATOM      9  C   UNL     1       1.042   8.308  21.603  0.00  0.00    +0.000 A 
ATOM     10  N   UNL     1       0.744   9.605  21.405  0.00  0.00    +0.000 NA
ATOM     11  C   UNL     1       1.033   9.962  20.148  0.00  0.00    +0.000 A 
ATOM     12  N   UNL     1       0.898  11.209  19.610  0.00  0.00    +0.000 N 
ATOM     13  C   UNL     1       1.327  11.150  18.315  0.00  0.00    +0.000 A 
ATOM     14  N   UNL     1       1.720   9.939  17.983  0.00  0.00    +0.000 NA
ATOM     15  C   UNL     1       1.548   9.177  19.129  0.00  0.00    +0.000 A 
ATOM     16  H   UNL     1       0.558  12.020  20.105  0.00  0.00    +0.000 HD
ENDBRANCH   4   7
BRANCH   1  17
ATOM     17  C   UNL     1       4.855   3.672  17.418  0.00  0.00    +0.000 C 
BRANCH  17  22
ATOM     18  C   UNL     1       7.777   5.202  12.615  0.00  0.00    +0.000 C 
ATOM     19  C   UNL     1       7.042   4.763  13.846  0.00  0.00    +0.000 A 
ATOM     20  C   UNL     1       5.783   4.161  13.756  0.00  0.00    +0.000 A 
ATOM     21  C   UNL     1       5.091   3.784  14.908  0.00  0.00    +0.000 A 
ATOM     22  C   UNL     1       5.643   4.004  16.175  0.00  0.00    +0.000 A 
ATOM     23  C   UNL     1       6.911   4.598  16.262  0.00  0.00    +0.000 A 
ATOM     24  C   UNL     1       7.605   4.973  15.109  0.00  0.00    +0.000 A 
ENDBRANCH  17  22
ENDBRANCH   1  17
BRANCH   6  25
ATOM     25  C   UNL     1       2.883   4.236  20.160  0.00  0.00    +0.000 C 
BRANCH  25  26
ATOM     26  C   UNL     1       2.810   2.768  20.581  0.00  0.00    +0.000 C 
BRANCH  26  27
ATOM     27  O   UNL     1       2.688   2.659  21.996  0.00  0.00    +0.000 OA
ATOM     28  H   UNL     1       3.478   3.058  22.397  0.00  0.00    +0.000 HD
ENDBRANCH  26  27
ENDBRANCH  25  26
ENDBRANCH   6  25
TORSDOF 6
ENDMDL
MODEL 4
REMARK VINA RESULT:      -6.3      4.490      6.574
REMARK  Name = 
REMARK  7 active torsions:
REMARK  status: ('A' for Active; 'I' for Inactive)
REMARK    1  A    between atoms: C_1  and  C_2
REMARK    2  A    between atoms: C_5  and  C_6
REMARK    3  A    between atoms: C_6  and  N_7
REMARK    4  A    between atoms: N_10  and  C_11
REMARK    5  A    between atoms: C_21  and  C_22
REMARK    6  A    between atoms: C_22  and  C_23
REMARK    7  A    between atoms: C_23  and  O_24
REMARK                            x       y       z     vdW  Elec       q    Type
REMARK                         _______ _______ _______ _____ _____    ______ ____
ROOT
ATOM      1  N   UNL     1       1.570   8.604  19.741  0.00  0.00    +0.000 NA
ATOM      2  C   UNL     1       1.777   9.882  19.069  0.00  0.00    +0.000 C 
ATOM      3  C   UNL     1       0.435  10.432  18.558  0.00  0.00    +0.000 C 
ATOM      4  N   UNL     1      -0.577  10.424  19.612  0.00  0.00    +0.000 N 
ATOM      5  C   UNL     1      -0.753   9.171  20.351  0.00  0.00    +0.000 C 
ATOM      6  C   UNL     1       0.629   8.631  20.871  0.00  0.00    +0.000 C 
ENDROOT
BRANCH   4   7
ATOM      7  C   UNL     1      -1.200  11.593  19.978  0.00  0.00    +0.000 A 
ATOM      8  N   UNL     1      -2.525  11.753  19.689  0.00  0.00    +0.000 NA
ATOM      9  C   UNL     1      -3.156  12.890  20.050  0.00  0.00    +0.000 A 
ATOM     10  N   UNL     1      -2.655  13.942  20.723  0.00  0.00    +0.000 NA
ATOM     11  C   UNL     1      -1.364  13.738  21.010  0.00  0.00    +0.000 A 
ATOM     12  N   UNL     1      -0.551  14.575  21.718  0.00  0.00    +0.000 N 
ATOM     13  C   UNL     1       0.677  13.983  21.806  0.00  0.00    +0.000 A 
ATOM     14  N   UNL     1       0.707  12.823  21.188  0.00  0.00    +0.000 NA
ATOM     15  C   UNL     1      -0.573  12.647  20.686  0.00  0.00    +0.000 A 
ATOM     16  H   UNL     1      -0.833  15.459  22.114  0.00  0.00    +0.000 HD
ENDBRANCH   4   7
BRANCH   1  17
ATOM     17  C   UNL     1       2.555   7.559  19.592  0.00  0.00    +0.000 C 
BRANCH  17  22
ATOM     18  C   UNL     1       0.810   2.051  18.835  0.00  0.00    +0.000 C 
ATOM     19  C   UNL     1       1.215   3.483  19.018  0.00  0.00    +0.000 A 
ATOM     20  C   UNL     1       1.638   4.256  17.931  0.00  0.00    +0.000 A 
ATOM     21  C   UNL     1       2.042   5.579  18.113  0.00  0.00    +0.000 A 
ATOM     22  C   UNL     1       2.037   6.157  19.388  0.00  0.00    +0.000 A 
ATOM     23  C   UNL     1       1.602   5.383  20.475  0.00  0.00    +0.000 A 
ATOM     24  C   UNL     1       1.194   4.060  20.292  0.00  0.00    +0.000 A 
ENDBRANCH  17  22
ENDBRANCH   1  17
BRANCH   6  25
ATOM     25  C   UNL     1       1.149   9.451  22.077  0.00  0.00    +0.000 C 
BRANCH  25  26
ATOM     26  C   UNL     1       0.179   9.483  23.259  0.00  0.00    +0.000 C 
BRANCH  26  27
ATOM     27  O   UNL     1      -0.374  10.786  23.415  0.00  0.00    +0.000 OA
ATOM     28  H   UNL     1      -1.017  10.927  22.700  0.00  0.00    +0.000 HD
ENDBRANCH  26  27
ENDBRANCH  25  26
ENDBRANCH   6  25
TORSDOF 6
ENDMDL
MODEL 5
REMARK VINA RESULT:      -6.2      1.265      1.367
REMARK  Name = 
REMARK  7 active torsions:
REMARK  status: ('A' for Active; 'I' for Inactive)
REMARK    1  A    between atoms: C_1  and  C_2
REMARK    2  A    between atoms: C_5  and  C_6
REMARK    3  A    between atoms: C_6  and  N_7
REMARK    4  A    between atoms: N_10  and  C_11
REMARK    5  A    between atoms: C_21  and  C_22
REMARK    6  A    between atoms: C_22  and  C_23
REMARK    7  A    between atoms: C_23  and  O_24
REMARK                            x       y       z     vdW  Elec       q    Type
REMARK                         _______ _______ _______ _____ _____    ______ ____
ROOT
ATOM      1  N   UNL     1       3.806   4.978  18.211  0.00  0.00    +0.000 NA
ATOM      2  C   UNL     1       4.434   6.275  18.434  0.00  0.00    +0.000 C 
ATOM      3  C   UNL     1       3.422   7.403  18.171  0.00  0.00    +0.000 C 
ATOM      4  N   UNL     1       2.171   7.171  18.889  0.00  0.00    +0.000 N 
ATOM      5  C   UNL     1       1.558   5.847  18.738  0.00  0.00    +0.000 C 
ATOM      6  C   UNL     1       2.606   4.712  19.019  0.00  0.00    +0.000 C 
ENDROOT
BRANCH   4   7
ATOM      7  C   UNL     1       1.704   8.105  19.781  0.00  0.00    +0.000 A 
ATOM      8  N   UNL     1       1.785   7.839  21.119  0.00  0.00    +0.000 NA
ATOM      9  C   UNL     1       1.342   8.750  22.009  0.00  0.00    +0.000 A 
ATOM     10  N   UNL     1       0.829   9.970  21.768  0.00  0.00    +0.000 NA
ATOM     11  C   UNL     1       0.788  10.204  20.450  0.00  0.00    +0.000 A 
ATOM     12  N   UNL     1       0.367  11.353  19.846  0.00  0.00    +0.000 N 
ATOM     13  C   UNL     1       0.510  11.188  18.497  0.00  0.00    +0.000 A 
ATOM     14  N   UNL     1       0.986   9.999  18.197  0.00  0.00    +0.000 NA
ATOM     15  C   UNL     1       1.175   9.367  19.416  0.00  0.00    +0.000 A 
ATOM     16  H   UNL     1       0.032  12.173  20.329  0.00  0.00    +0.000 HD
ENDBRANCH   4   7
BRANCH   1  17
ATOM     17  C   UNL     1       4.575   3.914  17.610  0.00  0.00    +0.000 C 
BRANCH  17  22
ATOM     18  C   UNL     1       7.782   5.004  12.869  0.00  0.00    +0.000 C 
ATOM     19  C   UNL     1       6.947   4.770  14.092  0.00  0.00    +0.000 A 
ATOM     20  C   UNL     1       7.482   4.942  15.373  0.00  0.00    +0.000 A 
ATOM     21  C   UNL     1       6.707   4.693  16.507  0.00  0.00    +0.000 A 
ATOM     22  C   UNL     1       5.380   4.263  16.384  0.00  0.00    +0.000 A 
ATOM     23  C   UNL     1       4.843   4.102  15.098  0.00  0.00    +0.000 A 
ATOM     24  C   UNL     1       5.617   4.354  13.962  0.00  0.00    +0.000 A 
ENDBRANCH  17  22
ENDBRANCH   1  17
BRANCH   6  25
ATOM     25  C   UNL     1       2.909   4.570  20.530  0.00  0.00    +0.000 C 
BRANCH  25  26
ATOM     26  C   UNL     1       1.910   3.684  21.274  0.00  0.00    +0.000 C 
BRANCH  26  27
ATOM     27  O   UNL     1       2.593   2.724  22.074  0.00  0.00    +0.000 OA
ATOM     28  H   UNL     1       2.185   1.856  21.915  0.00  0.00    +0.000 HD
ENDBRANCH  26  27
ENDBRANCH  25  26
ENDBRANCH   6  25
TORSDOF 6
ENDMDL
MODEL 6
REMARK VINA RESULT:      -6.2      1.432      1.987
REMARK  Name = 
REMARK  7 active torsions:
REMARK  status: ('A' for Active; 'I' for Inactive)
REMARK    1  A    between atoms: C_1  and  C_2
REMARK    2  A    between atoms: C_5  and  C_6
REMARK    3  A    between atoms: C_6  and  N_7
REMARK    4  A    between atoms: N_10  and  C_11
REMARK    5  A    between atoms: C_21  and  C_22
REMARK    6  A    between atoms: C_22  and  C_23
REMARK    7  A    between atoms: C_23  and  O_24
REMARK                            x       y       z     vdW  Elec       q    Type
REMARK                         _______ _______ _______ _____ _____    ______ ____
ROOT
ATOM      1  N   UNL     1       5.772   5.905  16.840  0.00  0.00    +0.000 NA
ATOM      2  C   UNL     1       5.417   7.316  16.929  0.00  0.00    +0.000 C 
ATOM      3  C   UNL     1       3.886   7.473  16.956  0.00  0.00    +0.000 C 
ATOM      4  N   UNL     1       3.282   6.601  17.960  0.00  0.00    +0.000 N 
ATOM      5  C   UNL     1       3.681   5.190  17.937  0.00  0.00    +0.000 C 
ATOM      6  C   UNL     1       5.246   5.053  17.918  0.00  0.00    +0.000 C 
ENDROOT
BRANCH   4   7
ATOM      7  C   UNL     1       2.510   7.135  18.963  0.00  0.00    +0.000 A 
ATOM      8  N   UNL     1       2.297   6.401  20.095  0.00  0.00    +0.000 NA
ATOM      9  C   UNL     1       1.551   6.914  21.095  0.00  0.00    +0.000 A 
ATOM     10  N   UNL     1       0.975   8.128  21.165  0.00  0.00    +0.000 NA
ATOM     11  C   UNL     1       1.225   8.826  20.051  0.00  0.00    +0.000 A 
ATOM     12  N   UNL     1       0.833  10.108  19.794  0.00  0.00    +0.000 N 
ATOM     13  C   UNL     1       1.314  10.450  18.562  0.00  0.00    +0.000 A 
ATOM     14  N   UNL     1       1.982   9.463  18.006  0.00  0.00    +0.000 NA
ATOM     15  C   UNL     1       1.943   8.432  18.933  0.00  0.00    +0.000 A 
ATOM     16  H   UNL     1       0.300  10.688  20.424  0.00  0.00    +0.000 HD
ENDBRANCH   4   7
BRANCH   1  17
ATOM     17  C   UNL     1       6.908   5.511  16.041  0.00  0.00    +0.000 C 
BRANCH  17  22
ATOM     18  C   UNL     1       5.646   2.735  11.075  0.00  0.00    +0.000 C 
ATOM     19  C   UNL     1       5.989   3.408  12.370  0.00  0.00    +0.000 A 
ATOM     20  C   UNL     1       5.133   3.326  13.473  0.00  0.00    +0.000 A 
ATOM     21  C   UNL     1       5.445   3.981  14.666  0.00  0.00    +0.000 A 
ATOM     22  C   UNL     1       6.618   4.737  14.779  0.00  0.00    +0.000 A 
ATOM     23  C   UNL     1       7.480   4.808  13.674  0.00  0.00    +0.000 A 
ATOM     24  C   UNL     1       7.170   4.150  12.482  0.00  0.00    +0.000 A 
ENDBRANCH  17  22
ENDBRANCH   1  17
BRANCH   6  25
ATOM     25  C   UNL     1       5.867   5.367  19.300  0.00  0.00    +0.000 C 
BRANCH  25  26
ATOM     26  C   UNL     1       7.381   5.579  19.257  0.00  0.00    +0.000 C 
BRANCH  26  27
ATOM     27  O   UNL     1       7.936   5.487  20.566  0.00  0.00    +0.000 OA
ATOM     28  H   UNL     1       7.315   5.905  21.185  0.00  0.00    +0.000 HD
ENDBRANCH  26  27
ENDBRANCH  25  26
ENDBRANCH   6  25
TORSDOF 6
ENDMDL
MODEL 7
REMARK VINA RESULT:      -6.2      4.695      8.338
REMARK  Name = 
REMARK  7 active torsions:
REMARK  status: ('A' for Active; 'I' for Inactive)
REMARK    1  A    between atoms: C_1  and  C_2
REMARK    2  A    between atoms: C_5  and  C_6
REMARK    3  A    between atoms: C_6  and  N_7
REMARK    4  A    between atoms: N_10  and  C_11
REMARK    5  A    between atoms: C_21  and  C_22
REMARK    6  A    between atoms: C_22  and  C_23
REMARK    7  A    between atoms: C_23  and  O_24
REMARK                            x       y       z     vdW  Elec       q    Type
REMARK                         _______ _______ _______ _____ _____    ______ ____
ROOT
ATOM      1  N   UNL     1       0.886  11.377  19.966  0.00  0.00    +0.000 NA
ATOM      2  C   UNL     1       1.083  12.483  20.897  0.00  0.00    +0.000 C 
ATOM      3  C   UNL     1       2.245  13.372  20.420  0.00  0.00    +0.000 C 
ATOM      4  N   UNL     1       2.087  13.743  19.016  0.00  0.00    +0.000 N 
ATOM      5  C   UNL     1       1.816  12.655  18.071  0.00  0.00    +0.000 C 
ATOM      6  C   UNL     1       0.621  11.766  18.573  0.00  0.00    +0.000 C 
ENDROOT
BRANCH   4   7
ATOM      7  C   UNL     1       2.038  15.067  18.653  0.00  0.00    +0.000 A 
ATOM      8  N   UNL     1       3.075  15.594  17.936  0.00  0.00    +0.000 NA
ATOM      9  C   UNL     1       3.038  16.889  17.563  0.00  0.00    +0.000 A 
ATOM     10  N   UNL     1       2.061  17.790  17.774  0.00  0.00    +0.000 NA
ATOM     11  C   UNL     1       1.055  17.231  18.457  0.00  0.00    +0.000 A 
ATOM     12  N   UNL     1      -0.116  17.837  18.810  0.00  0.00    +0.000 N 
ATOM     13  C   UNL     1      -0.877  16.914  19.470  0.00  0.00    +0.000 A 
ATOM     14  N   UNL     1      -0.262  15.756  19.573  0.00  0.00    +0.000 NA
ATOM     15  C   UNL     1       0.955  15.934  18.933  0.00  0.00    +0.000 A 
ATOM     16  H   UNL     1      -0.364  18.791  18.595  0.00  0.00    +0.000 HD
ENDBRANCH   4   7
BRANCH   1  17
ATOM     17  C   UNL     1       0.523  10.078  20.480  0.00  0.00    +0.000 C 
BRANCH  17  22
ATOM     18  C   UNL     1       3.202   5.388  18.294  0.00  0.00    +0.000 C 
ATOM     19  C   UNL     1       2.554   6.609  18.874  0.00  0.00    +0.000 A 
ATOM     20  C   UNL     1       2.118   6.630  20.203  0.00  0.00    +0.000 A 
ATOM     21  C   UNL     1       1.489   7.760  20.728  0.00  0.00    +0.000 A 
ATOM     22  C   UNL     1       1.278   8.893  19.933  0.00  0.00    +0.000 A 
ATOM     23  C   UNL     1       1.726   8.873  18.604  0.00  0.00    +0.000 A 
ATOM     24  C   UNL     1       2.360   7.744  18.079  0.00  0.00    +0.000 A 
ENDBRANCH  17  22
ENDBRANCH   1  17
BRANCH   6  25
ATOM     25  C   UNL     1      -0.742  12.476  18.387  0.00  0.00    +0.000 C 
BRANCH  25  26
ATOM     26  C   UNL     1      -1.840  11.561  17.844  0.00  0.00    +0.000 C 
BRANCH  26  27
ATOM     27  O   UNL     1      -2.026  11.776  16.449  0.00  0.00    +0.000 OA
ATOM     28  H   UNL     1      -2.640  12.521  16.339  0.00  0.00    +0.000 HD
ENDBRANCH  26  27
ENDBRANCH  25  26
ENDBRANCH   6  25
TORSDOF 6
ENDMDL
MODEL 8
REMARK VINA RESULT:      -6.2      5.106      8.722
REMARK  Name = 
REMARK  7 active torsions:
REMARK  status: ('A' for Active; 'I' for Inactive)
REMARK    1  A    between atoms: C_1  and  C_2
REMARK    2  A    between atoms: C_5  and  C_6
REMARK    3  A    between atoms: C_6  and  N_7
REMARK    4  A    between atoms: N_10  and  C_11
REMARK    5  A    between atoms: C_21  and  C_22
REMARK    6  A    between atoms: C_22  and  C_23
REMARK    7  A    between atoms: C_23  and  O_24
REMARK                            x       y       z     vdW  Elec       q    Type
REMARK                         _______ _______ _______ _____ _____    ______ ____
ROOT
ATOM      1  N   UNL     1       0.274  11.596  19.473  0.00  0.00    +0.000 NA
ATOM      2  C   UNL     1      -0.991  12.086  18.939  0.00  0.00    +0.000 C 
ATOM      3  C   UNL     1      -2.112  11.887  19.973  0.00  0.00    +0.000 C 
ATOM      4  N   UNL     1      -1.727  12.414  21.281  0.00  0.00    +0.000 N 
ATOM      5  C   UNL     1      -0.425  11.992  21.806  0.00  0.00    +0.000 C 
ATOM      6  C   UNL     1       0.705  12.212  20.737  0.00  0.00    +0.000 C 
ENDROOT
BRANCH   4   7
ATOM      7  C   UNL     1      -2.492  13.380  21.887  0.00  0.00    +0.000 A 
ATOM      8  N   UNL     1      -2.527  14.633  21.342  0.00  0.00    +0.000 NA
ATOM      9  C   UNL     1      -3.281  15.591  21.918  0.00  0.00    +0.000 A 
ATOM     10  N   UNL     1      -4.080  15.488  22.996  0.00  0.00    +0.000 NA
ATOM     11  C   UNL     1      -4.037  14.243  23.486  0.00  0.00    +0.000 A 
ATOM     12  N   UNL     1      -4.751  13.768  24.549  0.00  0.00    +0.000 N 
ATOM     13  C   UNL     1      -4.437  12.448  24.702  0.00  0.00    +0.000 A 
ATOM     14  N   UNL     1      -3.556  12.047  23.811  0.00  0.00    +0.000 NA
ATOM     15  C   UNL     1      -3.298  13.164  23.031  0.00  0.00    +0.000 A 
ATOM     16  H   UNL     1      -5.404  14.308  25.096  0.00  0.00    +0.000 HD
ENDBRANCH   4   7
BRANCH   1  17
ATOM     17  C   UNL     1       1.203  10.930  18.592  0.00  0.00    +0.000 C 
BRANCH  17  22
ATOM     18  C   UNL     1       2.736   5.465  19.908  0.00  0.00    +0.000 C 
ATOM     19  C   UNL     1       2.302   6.854  19.548  0.00  0.00    +0.000 A 
ATOM     20  C   UNL     1       2.586   7.393  18.289  0.00  0.00    +0.000 A 
ATOM     21  C   UNL     1       2.205   8.699  17.972  0.00  0.00    +0.000 A 
ATOM     22  C   UNL     1       1.536   9.494  18.910  0.00  0.00    +0.000 A 
ATOM     23  C   UNL     1       1.243   8.946  20.168  0.00  0.00    +0.000 A 
ATOM     24  C   UNL     1       1.620   7.639  20.484  0.00  0.00    +0.000 A 
ENDBRANCH  17  22
ENDBRANCH   1  17
BRANCH   6  25
ATOM     25  C   UNL     1       1.075  13.708  20.591  0.00  0.00    +0.000 C 
BRANCH  25  26
ATOM     26  C   UNL     1       2.578  13.957  20.457  0.00  0.00    +0.000 C 
BRANCH  26  27
ATOM     27  O   UNL     1       3.257  13.569  21.647  0.00  0.00    +0.000 OA
ATOM     28  H   UNL     1       2.943  14.137  22.370  0.00  0.00    +0.000 HD
ENDBRANCH  26  27
ENDBRANCH  25  26
ENDBRANCH   6  25
TORSDOF 6
ENDMDL
MODEL 9
REMARK VINA RESULT:      -6.1      3.770      6.228
REMARK  Name = 
REMARK  7 active torsions:
REMARK  status: ('A' for Active; 'I' for Inactive)
REMARK    1  A    between atoms: C_1  and  C_2
REMARK    2  A    between atoms: C_5  and  C_6
REMARK    3  A    between atoms: C_6  and  N_7
REMARK    4  A    between atoms: N_10  and  C_11
REMARK    5  A    between atoms: C_21  and  C_22
REMARK    6  A    between atoms: C_22  and  C_23
REMARK    7  A    between atoms: C_23  and  O_24
REMARK                            x       y       z     vdW  Elec       q    Type
REMARK                         _______ _______ _______ _____ _____    ______ ____
ROOT
ATOM      1  N   UNL     1       6.875   6.796  17.402  0.00  0.00    +0.000 NA
ATOM      2  C   UNL     1       7.198   5.631  18.218  0.00  0.00    +0.000 C 
ATOM      3  C   UNL     1       6.108   5.414  19.281  0.00  0.00    +0.000 C 
ATOM      4  N   UNL     1       4.775   5.422  18.683  0.00  0.00    +0.000 N 
ATOM      5  C   UNL     1       4.453   6.548  17.800  0.00  0.00    +0.000 C 
ATOM      6  C   UNL     1       5.575   6.745  16.718  0.00  0.00    +0.000 C 
ENDROOT
BRANCH   4   7
ATOM      7  C   UNL     1       3.947   4.335  18.828  0.00  0.00    +0.000 A 
ATOM      8  N   UNL     1       4.348   3.129  18.328  0.00  0.00    +0.000 NA
ATOM      9  C   UNL     1       3.554   2.049  18.471  0.00  0.00    +0.000 A 
ATOM     10  N   UNL     1       2.367   1.965  19.098  0.00  0.00    +0.000 NA
ATOM     11  C   UNL     1       2.019   3.158  19.595  0.00  0.00    +0.000 A 
ATOM     12  N   UNL     1       0.900   3.435  20.325  0.00  0.00    +0.000 N 
ATOM     13  C   UNL     1       0.939   4.760  20.657  0.00  0.00    +0.000 A 
ATOM     14  N   UNL     1       2.008   5.354  20.175  0.00  0.00    +0.000 NA
ATOM     15  C   UNL     1       2.706   4.359  19.508  0.00  0.00    +0.000 A 
ATOM     16  H   UNL     1       0.193   2.762  20.580  0.00  0.00    +0.000 HD
ENDBRANCH   4   7
BRANCH   1  17
ATOM     17  C   UNL     1       7.939   7.664  16.958  0.00  0.00    +0.000 C 
BRANCH  17  22
ATOM     18  C   UNL     1       9.330  12.343  20.140  0.00  0.00    +0.000 C 
ATOM     19  C   UNL     1       8.932  11.135  19.346  0.00  0.00    +0.000 A 
ATOM     20  C   UNL     1       9.203   9.845  19.814  0.00  0.00    +0.000 A 
ATOM     21  C   UNL     1       8.856   8.726  19.056  0.00  0.00    +0.000 A 
ATOM     22  C   UNL     1       8.235   8.873  17.810  0.00  0.00    +0.000 A 
ATOM     23  C   UNL     1       7.955  10.168  17.348  0.00  0.00    +0.000 A 
ATOM     24  C   UNL     1       8.298  11.289  18.109  0.00  0.00    +0.000 A 
ENDBRANCH  17  22
ENDBRANCH   1  17
BRANCH   6  25
ATOM     25  C   UNL     1       5.508   5.660  15.616  0.00  0.00    +0.000 C 
BRANCH  25  26
ATOM     26  C   UNL     1       6.788   4.831  15.495  0.00  0.00    +0.000 C 
BRANCH  26  27
ATOM     27  O   UNL     1       7.656   5.393  14.515  0.00  0.00    +0.000 OA
ATOM     28  H   UNL     1       8.120   4.663  14.072  0.00  0.00    +0.000 HD
ENDBRANCH  26  27
ENDBRANCH  25  26
ENDBRANCH   6  25
TORSDOF 6
ENDMDL
